MODEL 1
REMARK VINA RESULT:     -10.7      0.000      0.000
REMARK  1 active torsions:
REMARK  status: ('A' for Active; 'I' for Inactive)
REMARK    1  A    between atoms: C_9  and  C_12 
ROOT
HETATM    1  C   UNL     1     -21.355  -8.651  -1.564  1.00  0.00     0.001 A 
HETATM    2  C   UNL     1     -21.945  -7.437  -1.232  1.00  0.00     0.002 A 
HETATM    3  C   UNL     1     -21.939  -6.381  -2.150  1.00  0.00     0.030 A 
HETATM    4  C   UNL     1     -21.358  -6.504  -3.405  1.00  0.00     0.042 A 
HETATM    5  C   UNL     1     -20.754  -7.736  -3.731  1.00  0.00    -0.009 A 
HETATM    6  C   UNL     1     -20.755  -8.801  -2.811  1.00  0.00     0.013 A 
HETATM    7  C   UNL     1     -20.170  -7.867  -4.993  1.00  0.00     0.015 A 
HETATM    8  C   UNL     1     -20.222  -6.807  -5.890  1.00  0.00     0.027 A 
HETATM    9  C   UNL     1     -20.860  -5.631  -5.505  1.00  0.00     0.029 A 
HETATM   10  N   UNL     1     -21.402  -5.470  -4.271  1.00  0.00    -0.358 N 
ATOM     11  HN  UNL     1     -21.834  -4.586  -4.003  1.00  0.00     0.166 HD
ENDROOT
BRANCH   9  12
HETATM   12  C   UNL     1     -21.027  -4.520  -6.501  1.00  0.00     0.185 A 
HETATM   13  C   UNL     1     -22.333  -4.552  -7.263  1.00  0.00     0.177 A 
HETATM   14  O   UNL     1     -23.466  -4.518  -6.812  1.00  0.00    -0.291 OA
HETATM   15  C   UNL     1     -22.032  -4.523  -8.698  1.00  0.00     0.025 A 
HETATM   16  C   UNL     1     -22.907  -4.420  -9.764  1.00  0.00     0.016 A 
HETATM   17  C   UNL     1     -20.658  -4.546  -8.887  1.00  0.00     0.025 A 
HETATM   18  C   UNL     1     -22.357  -4.353 -11.049  1.00  0.00     0.001 A 
HETATM   19  C   UNL     1     -20.962  -4.398 -11.240  1.00  0.00     0.001 A 
HETATM   20  C   UNL     1     -20.094  -4.496 -10.149  1.00  0.00     0.016 A 
HETATM   21  C   UNL     1     -19.978  -4.558  -7.593  1.00  0.00     0.177 A 
HETATM   22  O   UNL     1     -18.767  -4.517  -7.470  1.00  0.00    -0.291 OA
ENDBRANCH   9  12
TORSDOF 1
BEGIN_RES ARG D 557
REMARK  4 active torsions:
REMARK  status: ('A' for Active; 'I' for Inactive)
REMARK    1  A    between atoms: CA   and  CB  
REMARK    2  A    between atoms: CB   and  CG  
REMARK    3  A    between atoms: CG   and  CD  
REMARK    4  A    between atoms: CD   and  NE  
REMARK       I    between atoms: NE   and  CZ  
REMARK       I    between atoms: CZ   and  NH1 
REMARK       I    between atoms: CZ   and  NH2 
ROOT
ATOM      1  CA  ARG D 557     -26.217   2.705 -17.014  1.00 35.49     0.159 C 
ENDROOT
BRANCH   1   2
ATOM      2  CB  ARG D 557     -26.789   1.319 -17.183  1.00 35.49     0.034 C 
BRANCH   2   3
ATOM      3  CG  ARG D 557     -25.862   0.195 -17.004  1.00 35.49     0.027 C 
BRANCH   3   4
ATOM      4  CD  ARG D 557     -26.277  -0.710 -15.908  1.00 35.49     0.116 C 
BRANCH   4   5
ATOM      5  NE  ARG D 557     -25.228  -0.911 -14.944  1.00 35.49    -0.212 N 
ATOM      6  CZ  ARG D 557     -24.949  -2.043 -14.337  1.00 35.49     0.666 C 
ATOM      7  NH1 ARG D 557     -25.638  -3.149 -14.547  1.00 35.49    -0.235 N 
ATOM      8  NH2 ARG D 557     -23.947  -2.047 -13.506  1.00 35.49    -0.235 N 
ATOM      9  HH  ARG D 557     -26.300  -3.169 -15.091  1.00 35.49     0.174 HD
ATOM     10  HH  ARG D 557     -25.408  -3.858 -14.125  1.00 35.49     0.174 HD
ATOM     11  HH  ARG D 557     -23.515  -1.320 -13.396  1.00 35.49     0.174 HD
ATOM     12  HH  ARG D 557     -23.734  -2.760 -13.099  1.00 35.49     0.174 HD
ATOM     13  HE  ARG D 557     -24.780  -0.233 -14.694  1.00 35.49     0.178 HD
ENDBRANCH   4   5
ENDBRANCH   3   4
ENDBRANCH   2   3
ENDBRANCH   1   2
END_RES ARG D 557
BEGIN_RES GLU D 570
REMARK  3 active torsions:
REMARK  status: ('A' for Active; 'I' for Inactive)
REMARK    5  A    between atoms: CA   and  CB  
REMARK    6  A    between atoms: CB   and  CG  
REMARK    7  A    between atoms: CG   and  CD  
ROOT
ATOM     14  CA  GLU D 570     -18.033  -6.348 -13.375  1.00 32.92     0.160 C 
ENDROOT
BRANCH  14  15
ATOM     15  CB  GLU D 570     -19.500  -6.345 -13.794  1.00 32.92     0.043 C 
BRANCH  15  16
ATOM     16  CG  GLU D 570     -19.813  -5.932 -15.186  1.00 32.92     0.100 C 
BRANCH  16  17
ATOM     17  CD  GLU D 570     -21.250  -5.500 -15.364  1.00 32.92     0.185 C 
ATOM     18  OE1 GLU D 570     -22.078  -5.772 -14.473  1.00 32.92    -0.647 OA
ATOM     19  OE2 GLU D 570     -21.554  -4.897 -16.412  1.00 32.92    -0.647 OA
ENDBRANCH  16  17
ENDBRANCH  15  16
ENDBRANCH  14  15
END_RES GLU D 570
ENDMDL
MODEL 2
REMARK VINA RESULT:     -10.7      1.562      1.895
REMARK  1 active torsions:
REMARK  status: ('A' for Active; 'I' for Inactive)
REMARK    1  A    between atoms: C_9  and  C_12 
ROOT
HETATM    1  C   UNL     1     -21.341  -8.701  -1.615  1.00  0.00     0.001 A 
HETATM    2  C   UNL     1     -21.933  -7.493  -1.264  1.00  0.00     0.002 A 
HETATM    3  C   UNL     1     -21.937  -6.426  -2.170  1.00  0.00     0.030 A 
HETATM    4  C   UNL     1     -21.364  -6.532  -3.430  1.00  0.00     0.042 A 
HETATM    5  C   UNL     1     -20.759  -7.758  -3.776  1.00  0.00    -0.009 A 
HETATM    6  C   UNL     1     -20.749  -8.833  -2.869  1.00  0.00     0.013 A 
HETATM    7  C   UNL     1     -20.184  -7.872  -5.043  1.00  0.00     0.015 A 
HETATM    8  C   UNL     1     -20.247  -6.802  -5.928  1.00  0.00     0.027 A 
HETATM    9  C   UNL     1     -20.885  -5.633  -5.524  1.00  0.00     0.029 A 
HETATM   10  N   UNL     1     -21.419  -5.489  -4.284  1.00  0.00    -0.358 N 
ATOM     11  HN  UNL     1     -21.852  -4.609  -4.002  1.00  0.00     0.166 HD
ENDROOT
BRANCH   9  12
HETATM   12  C   UNL     1     -21.064  -4.511  -6.505  1.00  0.00     0.185 A 
HETATM   13  C   UNL     1     -22.373  -4.541  -7.262  1.00  0.00     0.177 A 
HETATM   14  O   UNL     1     -23.504  -4.519  -6.805  1.00  0.00    -0.291 OA
HETATM   15  C   UNL     1     -22.079  -4.493  -8.698  1.00  0.00     0.025 A 
HETATM   16  C   UNL     1     -22.959  -4.382  -9.758  1.00  0.00     0.016 A 
HETATM   17  C   UNL     1     -20.706  -4.506  -8.893  1.00  0.00     0.025 A 
HETATM   18  C   UNL     1     -22.416  -4.296 -11.045  1.00  0.00     0.001 A 
HETATM   19  C   UNL     1     -21.022  -4.331 -11.243  1.00  0.00     0.001 A 
HETATM   20  C   UNL     1     -20.148  -4.437 -10.157  1.00  0.00     0.016 A 
HETATM   21  C   UNL     1     -20.020  -4.529  -7.603  1.00  0.00     0.177 A 
HETATM   22  O   UNL     1     -18.808  -4.483  -7.485  1.00  0.00    -0.291 OA
ENDBRANCH   9  12
TORSDOF 1
BEGIN_RES ARG D 557
REMARK  4 active torsions:
REMARK  status: ('A' for Active; 'I' for Inactive)
REMARK    1  A    between atoms: CA   and  CB  
REMARK    2  A    between atoms: CB   and  CG  
REMARK    3  A    between atoms: CG   and  CD  
REMARK    4  A    between atoms: CD   and  NE  
REMARK       I    between atoms: NE   and  CZ  
REMARK       I    between atoms: CZ   and  NH1 
REMARK       I    between atoms: CZ   and  NH2 
ROOT
ATOM      1  CA  ARG D 557     -26.217   2.705 -17.014  1.00 35.49     0.159 C 
ENDROOT
BRANCH   1   2
ATOM      2  CB  ARG D 557     -26.789   1.319 -17.183  1.00 35.49     0.034 C 
BRANCH   2   3
ATOM      3  CG  ARG D 557     -28.236   1.225 -17.410  1.00 35.49     0.027 C 
BRANCH   3   4
ATOM      4  CD  ARG D 557     -28.896   0.294 -16.467  1.00 35.49     0.116 C 
BRANCH   4   5
ATOM      5  NE  ARG D 557     -29.294  -0.933 -17.105  1.00 35.49    -0.212 N 
ATOM      6  CZ  ARG D 557     -28.664  -2.083 -17.019  1.00 35.49     0.666 C 
ATOM      7  NH1 ARG D 557     -27.551  -2.232 -16.323  1.00 35.49    -0.235 N 
ATOM      8  NH2 ARG D 557     -29.180  -3.099 -17.647  1.00 35.49    -0.235 N 
ATOM      9  HH  ARG D 557     -27.195  -1.577 -15.900  1.00 35.49     0.174 HD
ATOM     10  HH  ARG D 557     -27.186  -3.007 -16.301  1.00 35.49     0.174 HD
ATOM     11  HH  ARG D 557     -29.903  -2.976 -18.082  1.00 35.49     0.174 HD
ATOM     12  HH  ARG D 557     -28.804  -3.859 -17.612  1.00 35.49     0.174 HD
ATOM     13  HE  ARG D 557     -29.961  -0.911 -17.632  1.00 35.49     0.178 HD
ENDBRANCH   4   5
ENDBRANCH   3   4
ENDBRANCH   2   3
ENDBRANCH   1   2
END_RES ARG D 557
BEGIN_RES GLU D 570
REMARK  3 active torsions:
REMARK  status: ('A' for Active; 'I' for Inactive)
REMARK    5  A    between atoms: CA   and  CB  
REMARK    6  A    between atoms: CB   and  CG  
REMARK    7  A    between atoms: CG   and  CD  
ROOT
ATOM     14  CA  GLU D 570     -18.033  -6.348 -13.375  1.00 32.92     0.160 C 
ENDROOT
BRANCH  14  15
ATOM     15  CB  GLU D 570     -19.500  -6.345 -13.794  1.00 32.92     0.043 C 
BRANCH  15  16
ATOM     16  CG  GLU D 570     -19.797  -6.239 -15.246  1.00 32.92     0.100 C 
BRANCH  16  17
ATOM     17  CD  GLU D 570     -21.071  -5.479 -15.533  1.00 32.92     0.185 C 
ATOM     18  OE1 GLU D 570     -21.856  -5.238 -14.596  1.00 32.92    -0.647 OA
ATOM     19  OE2 GLU D 570     -21.295  -5.137 -16.711  1.00 32.92    -0.647 OA
ENDBRANCH  16  17
ENDBRANCH  15  16
ENDBRANCH  14  15
END_RES GLU D 570
ENDMDL
MODEL 3
REMARK VINA RESULT:     -10.3      3.637      7.634
REMARK  1 active torsions:
REMARK  status: ('A' for Active; 'I' for Inactive)
REMARK    1  A    between atoms: C_9  and  C_12 
ROOT
HETATM    1  C   UNL     1     -25.601  -6.433 -16.175  1.00  0.00     0.001 A 
HETATM    2  C   UNL     1     -24.475  -7.058 -15.652  1.00  0.00     0.002 A 
HETATM    3  C   UNL     1     -23.741  -6.441 -14.634  1.00  0.00     0.030 A 
HETATM    4  C   UNL     1     -24.103  -5.206 -14.114  1.00  0.00     0.042 A 
HETATM    5  C   UNL     1     -25.242  -4.574 -14.654  1.00  0.00    -0.009 A 
HETATM    6  C   UNL     1     -25.983  -5.189 -15.680  1.00  0.00     0.013 A 
HETATM    7  C   UNL     1     -25.614  -3.333 -14.134  1.00  0.00     0.015 A 
HETATM    8  C   UNL     1     -24.881  -2.774 -13.093  1.00  0.00     0.027 A 
HETATM    9  C   UNL     1     -23.784  -3.471 -12.594  1.00  0.00     0.029 A 
HETATM   10  N   UNL     1     -23.384  -4.661 -13.110  1.00  0.00    -0.358 N 
ATOM     11  HN  UNL     1     -22.557  -5.135 -12.747  1.00  0.00     0.166 HD
ENDROOT
BRANCH   9  12
HETATM   12  C   UNL     1     -23.052  -2.938 -11.397  1.00  0.00     0.185 A 
HETATM   13  C   UNL     1     -21.669  -3.518 -11.197  1.00  0.00     0.177 A 
HETATM   14  O   UNL     1     -20.726  -3.490 -11.971  1.00  0.00    -0.291 OA
HETATM   15  C   UNL     1     -21.583  -4.051  -9.835  1.00  0.00     0.025 A 
HETATM   16  C   UNL     1     -20.482  -4.565  -9.174  1.00  0.00     0.016 A 
HETATM   17  C   UNL     1     -22.810  -3.915  -9.202  1.00  0.00     0.025 A 
HETATM   18  C   UNL     1     -20.651  -4.959  -7.842  1.00  0.00     0.001 A 
HETATM   19  C   UNL     1     -21.903  -4.839  -7.208  1.00  0.00     0.001 A 
HETATM   20  C   UNL     1     -23.002  -4.312  -7.890  1.00  0.00     0.016 A 
HETATM   21  C   UNL     1     -23.760  -3.256 -10.095  1.00  0.00     0.177 A 
HETATM   22  O   UNL     1     -24.895  -2.959  -9.768  1.00  0.00    -0.291 OA
ENDBRANCH   9  12
TORSDOF 1
BEGIN_RES ARG D 557
REMARK  4 active torsions:
REMARK  status: ('A' for Active; 'I' for Inactive)
REMARK    1  A    between atoms: CA   and  CB  
REMARK    2  A    between atoms: CB   and  CG  
REMARK    3  A    between atoms: CG   and  CD  
REMARK    4  A    between atoms: CD   and  NE  
REMARK       I    between atoms: NE   and  CZ  
REMARK       I    between atoms: CZ   and  NH1 
REMARK       I    between atoms: CZ   and  NH2 
ROOT
ATOM      1  CA  ARG D 557     -26.217   2.705 -17.014  1.00 35.49     0.159 C 
ENDROOT
BRANCH   1   2
ATOM      2  CB  ARG D 557     -26.789   1.319 -17.183  1.00 35.49     0.034 C 
BRANCH   2   3
ATOM      3  CG  ARG D 557     -28.217   1.229 -17.511  1.00 35.49     0.027 C 
BRANCH   3   4
ATOM      4  CD  ARG D 557     -28.960   0.364 -16.566  1.00 35.49     0.116 C 
BRANCH   4   5
ATOM      5  NE  ARG D 557     -29.319  -0.899 -17.155  1.00 35.49    -0.212 N 
ATOM      6  CZ  ARG D 557     -28.647  -2.022 -17.034  1.00 35.49     0.666 C 
ATOM      7  NH1 ARG D 557     -27.524  -2.106 -16.345  1.00 35.49    -0.235 N 
ATOM      8  NH2 ARG D 557     -29.132  -3.078 -17.619  1.00 35.49    -0.235 N 
ATOM      9  HH  ARG D 557     -27.188  -1.424 -15.949  1.00 35.49     0.174 HD
ATOM     10  HH  ARG D 557     -27.130  -2.865 -16.298  1.00 35.49     0.174 HD
ATOM     11  HH  ARG D 557     -29.863  -2.996 -18.051  1.00 35.49     0.174 HD
ATOM     12  HH  ARG D 557     -28.729  -3.822 -17.560  1.00 35.49     0.174 HD
ATOM     13  HE  ARG D 557     -29.991  -0.920 -17.676  1.00 35.49     0.178 HD
ENDBRANCH   4   5
ENDBRANCH   3   4
ENDBRANCH   2   3
ENDBRANCH   1   2
END_RES ARG D 557
BEGIN_RES GLU D 570
REMARK  3 active torsions:
REMARK  status: ('A' for Active; 'I' for Inactive)
REMARK    5  A    between atoms: CA   and  CB  
REMARK    6  A    between atoms: CB   and  CG  
REMARK    7  A    between atoms: CG   and  CD  
ROOT
ATOM     14  CA  GLU D 570     -18.033  -6.348 -13.375  1.00 32.92     0.160 C 
ENDROOT
BRANCH  14  15
ATOM     15  CB  GLU D 570     -19.500  -6.345 -13.794  1.00 32.92     0.043 C 
BRANCH  15  16
ATOM     16  CG  GLU D 570     -20.082  -7.631 -14.257  1.00 32.92     0.100 C 
BRANCH  16  17
ATOM     17  CD  GLU D 570     -20.623  -7.559 -15.666  1.00 32.92     0.185 C 
ATOM     18  OE1 GLU D 570     -20.532  -6.488 -16.296  1.00 32.92    -0.647 OA
ATOM     19  OE2 GLU D 570     -21.160  -8.581 -16.139  1.00 32.92    -0.647 OA
ENDBRANCH  16  17
ENDBRANCH  15  16
ENDBRANCH  14  15
END_RES GLU D 570
ENDMDL
MODEL 4
REMARK VINA RESULT:     -10.3      1.737      3.268
REMARK  1 active torsions:
REMARK  status: ('A' for Active; 'I' for Inactive)
REMARK    1  A    between atoms: C_9  and  C_12 
ROOT
HETATM    1  C   UNL     1     -21.178  -9.234   1.141  1.00  0.00     0.001 A 
HETATM    2  C   UNL     1     -20.933 -10.301   0.284  1.00  0.00     0.002 A 
HETATM    3  C   UNL     1     -21.061 -10.132  -1.099  1.00  0.00     0.030 A 
HETATM    4  C   UNL     1     -21.429  -8.915  -1.658  1.00  0.00     0.042 A 
HETATM    5  C   UNL     1     -21.684  -7.840  -0.782  1.00  0.00    -0.009 A 
HETATM    6  C   UNL     1     -21.559  -8.005   0.610  1.00  0.00     0.013 A 
HETATM    7  C   UNL     1     -22.051  -6.613  -1.337  1.00  0.00     0.015 A 
HETATM    8  C   UNL     1     -22.127  -6.477  -2.719  1.00  0.00     0.027 A 
HETATM    9  C   UNL     1     -21.834  -7.578  -3.520  1.00  0.00     0.029 A 
HETATM   10  N   UNL     1     -21.510  -8.789  -2.999  1.00  0.00    -0.358 N 
ATOM     11  HN  UNL     1     -21.333  -9.587  -3.608  1.00  0.00     0.166 HD
ENDROOT
BRANCH   9  12
HETATM   12  C   UNL     1     -21.797  -7.417  -5.012  1.00  0.00     0.185 A 
HETATM   13  C   UNL     1     -20.411  -7.236  -5.591  1.00  0.00     0.177 A 
HETATM   14  O   UNL     1     -19.457  -7.990  -5.500  1.00  0.00    -0.291 OA
HETATM   15  C   UNL     1     -20.406  -6.017  -6.405  1.00  0.00     0.025 A 
HETATM   16  C   UNL     1     -19.399  -5.521  -7.213  1.00  0.00     0.016 A 
HETATM   17  C   UNL     1     -21.643  -5.395  -6.322  1.00  0.00     0.025 A 
HETATM   18  C   UNL     1     -19.668  -4.356  -7.940  1.00  0.00     0.001 A 
HETATM   19  C   UNL     1     -20.918  -3.714  -7.839  1.00  0.00     0.001 A 
HETATM   20  C   UNL     1     -21.924  -4.234  -7.021  1.00  0.00     0.016 A 
HETATM   21  C   UNL     1     -22.541  -6.183  -5.481  1.00  0.00     0.177 A 
HETATM   22  O   UNL     1     -23.709  -5.895  -5.290  1.00  0.00    -0.291 OA
ENDBRANCH   9  12
TORSDOF 1
BEGIN_RES ARG D 557
REMARK  4 active torsions:
REMARK  status: ('A' for Active; 'I' for Inactive)
REMARK    1  A    between atoms: CA   and  CB  
REMARK    2  A    between atoms: CB   and  CG  
REMARK    3  A    between atoms: CG   and  CD  
REMARK    4  A    between atoms: CD   and  NE  
REMARK       I    between atoms: NE   and  CZ  
REMARK       I    between atoms: CZ   and  NH1 
REMARK       I    between atoms: CZ   and  NH2 
ROOT
ATOM      1  CA  ARG D 557     -26.217   2.705 -17.014  1.00 35.49     0.159 C 
ENDROOT
BRANCH   1   2
ATOM      2  CB  ARG D 557     -26.789   1.319 -17.183  1.00 35.49     0.034 C 
BRANCH   2   3
ATOM      3  CG  ARG D 557     -25.833   0.205 -17.177  1.00 35.49     0.027 C 
BRANCH   3   4
ATOM      4  CD  ARG D 557     -24.747   0.399 -16.190  1.00 35.49     0.116 C 
BRANCH   4   5
ATOM      5  NE  ARG D 557     -24.904  -0.447 -15.036  1.00 35.49    -0.212 N 
ATOM      6  CZ  ARG D 557     -24.086  -1.408 -14.671  1.00 35.49     0.666 C 
ATOM      7  NH1 ARG D 557     -23.002  -1.717 -15.359  1.00 35.49    -0.235 N 
ATOM      8  NH2 ARG D 557     -24.374  -2.060 -13.582  1.00 35.49    -0.235 N 
ATOM      9  HH  ARG D 557     -22.792  -1.299 -16.077  1.00 35.49     0.174 HD
ATOM     10  HH  ARG D 557     -22.504  -2.352 -15.071  1.00 35.49     0.174 HD
ATOM     11  HH  ARG D 557     -25.076  -1.834 -13.154  1.00 35.49     0.174 HD
ATOM     12  HH  ARG D 557     -23.868  -2.685 -13.312  1.00 35.49     0.174 HD
ATOM     13  HE  ARG D 557     -25.614  -0.365 -14.575  1.00 35.49     0.178 HD
ENDBRANCH   4   5
ENDBRANCH   3   4
ENDBRANCH   2   3
ENDBRANCH   1   2
END_RES ARG D 557
BEGIN_RES GLU D 570
REMARK  3 active torsions:
REMARK  status: ('A' for Active; 'I' for Inactive)
REMARK    5  A    between atoms: CA   and  CB  
REMARK    6  A    between atoms: CB   and  CG  
REMARK    7  A    between atoms: CG   and  CD  
ROOT
ATOM     14  CA  GLU D 570     -18.033  -6.348 -13.375  1.00 32.92     0.160 C 
ENDROOT
BRANCH  14  15
ATOM     15  CB  GLU D 570     -19.500  -6.345 -13.794  1.00 32.92     0.043 C 
BRANCH  15  16
ATOM     16  CG  GLU D 570     -20.431  -5.483 -13.021  1.00 32.92     0.100 C 
BRANCH  16  17
ATOM     17  CD  GLU D 570     -21.691  -5.145 -13.783  1.00 32.92     0.185 C 
ATOM     18  OE1 GLU D 570     -22.371  -4.164 -13.425  1.00 32.92    -0.647 OA
ATOM     19  OE2 GLU D 570     -22.012  -5.880 -14.738  1.00 32.92    -0.647 OA
ENDBRANCH  16  17
ENDBRANCH  15  16
ENDBRANCH  14  15
END_RES GLU D 570
ENDMDL
MODEL 5
REMARK VINA RESULT:      -9.9      1.992      3.439
REMARK  1 active torsions:
REMARK  status: ('A' for Active; 'I' for Inactive)
REMARK    1  A    between atoms: C_9  and  C_12 
ROOT
HETATM    1  C   UNL     1     -21.132  -9.278   1.131  1.00  0.00     0.001 A 
HETATM    2  C   UNL     1     -20.895 -10.341   0.267  1.00  0.00     0.002 A 
HETATM    3  C   UNL     1     -21.032 -10.165  -1.114  1.00  0.00     0.030 A 
HETATM    4  C   UNL     1     -21.401  -8.945  -1.665  1.00  0.00     0.042 A 
HETATM    5  C   UNL     1     -21.647  -7.873  -0.782  1.00  0.00    -0.009 A 
HETATM    6  C   UNL     1     -21.513  -8.045   0.608  1.00  0.00     0.013 A 
HETATM    7  C   UNL     1     -22.015  -6.643  -1.329  1.00  0.00     0.015 A 
HETATM    8  C   UNL     1     -22.100  -6.500  -2.710  1.00  0.00     0.027 A 
HETATM    9  C   UNL     1     -21.815  -7.598  -3.518  1.00  0.00     0.029 A 
HETATM   10  N   UNL     1     -21.492  -8.812  -3.004  1.00  0.00    -0.358 N 
ATOM     11  HN  UNL     1     -21.320  -9.608  -3.619  1.00  0.00     0.166 HD
ENDROOT
BRANCH   9  12
HETATM   12  C   UNL     1     -21.789  -7.431  -5.010  1.00  0.00     0.185 A 
HETATM   13  C   UNL     1     -20.407  -7.246  -5.596  1.00  0.00     0.177 A 
HETATM   14  O   UNL     1     -19.452  -8.001  -5.515  1.00  0.00    -0.291 OA
HETATM   15  C   UNL     1     -20.406  -6.024  -6.405  1.00  0.00     0.025 A 
HETATM   16  C   UNL     1     -19.406  -5.524  -7.218  1.00  0.00     0.016 A 
HETATM   17  C   UNL     1     -21.643  -5.402  -6.312  1.00  0.00     0.025 A 
HETATM   18  C   UNL     1     -19.679  -4.356  -7.938  1.00  0.00     0.001 A 
HETATM   19  C   UNL     1     -20.928  -3.714  -7.825  1.00  0.00     0.001 A 
HETATM   20  C   UNL     1     -21.929  -4.239  -7.003  1.00  0.00     0.016 A 
HETATM   21  C   UNL     1     -22.535  -6.194  -5.468  1.00  0.00     0.177 A 
HETATM   22  O   UNL     1     -23.703  -5.907  -5.268  1.00  0.00    -0.291 OA
ENDBRANCH   9  12
TORSDOF 1
BEGIN_RES ARG D 557
REMARK  4 active torsions:
REMARK  status: ('A' for Active; 'I' for Inactive)
REMARK    1  A    between atoms: CA   and  CB  
REMARK    2  A    between atoms: CB   and  CG  
REMARK    3  A    between atoms: CG   and  CD  
REMARK    4  A    between atoms: CD   and  NE  
REMARK       I    between atoms: NE   and  CZ  
REMARK       I    between atoms: CZ   and  NH1 
REMARK       I    between atoms: CZ   and  NH2 
ROOT
ATOM      1  CA  ARG D 557     -26.217   2.705 -17.014  1.00 35.49     0.159 C 
ENDROOT
BRANCH   1   2
ATOM      2  CB  ARG D 557     -26.789   1.319 -17.183  1.00 35.49     0.034 C 
BRANCH   2   3
ATOM      3  CG  ARG D 557     -28.212   1.149 -16.866  1.00 35.49     0.027 C 
BRANCH   3   4
ATOM      4  CD  ARG D 557     -28.597  -0.276 -16.747  1.00 35.49     0.116 C 
BRANCH   4   5
ATOM      5  NE  ARG D 557     -27.604  -1.050 -16.049  1.00 35.49    -0.212 N 
ATOM      6  CZ  ARG D 557     -27.452  -2.353 -16.125  1.00 35.49     0.666 C 
ATOM      7  NH1 ARG D 557     -28.235  -3.116 -16.865  1.00 35.49    -0.235 N 
ATOM      8  NH2 ARG D 557     -26.483  -2.886 -15.439  1.00 35.49    -0.235 N 
ATOM      9  HH  ARG D 557     -28.878  -2.787 -17.326  1.00 35.49     0.174 HD
ATOM     10  HH  ARG D 557     -28.088  -3.960 -16.877  1.00 35.49     0.174 HD
ATOM     11  HH  ARG D 557     -25.989  -2.367 -14.976  1.00 35.49     0.174 HD
ATOM     12  HH  ARG D 557     -26.352  -3.723 -15.465  1.00 35.49     0.174 HD
ATOM     13  HE  ARG D 557     -27.102  -0.647 -15.493  1.00 35.49     0.178 HD
ENDBRANCH   4   5
ENDBRANCH   3   4
ENDBRANCH   2   3
ENDBRANCH   1   2
END_RES ARG D 557
BEGIN_RES GLU D 570
REMARK  3 active torsions:
REMARK  status: ('A' for Active; 'I' for Inactive)
REMARK    5  A    between atoms: CA   and  CB  
REMARK    6  A    between atoms: CB   and  CG  
REMARK    7  A    between atoms: CG   and  CD  
ROOT
ATOM     14  CA  GLU D 570     -18.033  -6.348 -13.375  1.00 32.92     0.160 C 
ENDROOT
BRANCH  14  15
ATOM     15  CB  GLU D 570     -19.500  -6.345 -13.794  1.00 32.92     0.043 C 
BRANCH  15  16
ATOM     16  CG  GLU D 570     -20.441  -5.526 -12.987  1.00 32.92     0.100 C 
BRANCH  16  17
ATOM     17  CD  GLU D 570     -21.705  -5.171 -13.735  1.00 32.92     0.185 C 
ATOM     18  OE1 GLU D 570     -22.777  -5.088 -13.106  1.00 32.92    -0.647 OA
ATOM     19  OE2 GLU D 570     -21.625  -4.992 -14.966  1.00 32.92    -0.647 OA
ENDBRANCH  16  17
ENDBRANCH  15  16
ENDBRANCH  14  15
END_RES GLU D 570
ENDMDL
MODEL 6
REMARK VINA RESULT:      -9.7      2.164      6.290
REMARK  1 active torsions:
REMARK  status: ('A' for Active; 'I' for Inactive)
REMARK    1  A    between atoms: C_9  and  C_12 
ROOT
HETATM    1  C   UNL     1     -23.565  -3.075 -13.453  1.00  0.00     0.001 A 
HETATM    2  C   UNL     1     -24.584  -3.034 -12.508  1.00  0.00     0.002 A 
HETATM    3  C   UNL     1     -24.301  -3.293 -11.162  1.00  0.00     0.030 A 
HETATM    4  C   UNL     1     -23.016  -3.591 -10.727  1.00  0.00     0.042 A 
HETATM    5  C   UNL     1     -21.990  -3.639 -11.693  1.00  0.00    -0.009 A 
HETATM    6  C   UNL     1     -22.269  -3.382 -13.048  1.00  0.00     0.013 A 
HETATM    7  C   UNL     1     -20.696  -3.936 -11.263  1.00  0.00     0.015 A 
HETATM    8  C   UNL     1     -20.450  -4.145  -9.910  1.00  0.00     0.027 A 
HETATM    9  C   UNL     1     -21.511  -4.055  -9.013  1.00  0.00     0.029 A 
HETATM   10  N   UNL     1     -22.783  -3.804  -9.416  1.00  0.00    -0.358 N 
ATOM     11  HN  UNL     1     -23.547  -3.776  -8.740  1.00  0.00     0.166 HD
ENDROOT
BRANCH   9  12
HETATM   12  C   UNL     1     -21.245  -4.164  -7.539  1.00  0.00     0.185 A 
HETATM   13  C   UNL     1     -20.051  -5.020  -7.179  1.00  0.00     0.177 A 
HETATM   14  O   UNL     1     -18.891  -4.875  -7.529  1.00  0.00    -0.291 OA
HETATM   15  C   UNL     1     -20.485  -6.039  -6.218  1.00  0.00     0.025 A 
HETATM   16  C   UNL     1     -19.719  -6.960  -5.528  1.00  0.00     0.016 A 
HETATM   17  C   UNL     1     -21.852  -5.930  -6.009  1.00  0.00     0.025 A 
HETATM   18  C   UNL     1     -20.374  -7.793  -4.614  1.00  0.00     0.001 A 
HETATM   19  C   UNL     1     -21.766  -7.695  -4.418  1.00  0.00     0.001 A 
HETATM   20  C   UNL     1     -22.522  -6.754  -5.122  1.00  0.00     0.016 A 
HETATM   21  C   UNL     1     -22.388  -4.817  -6.790  1.00  0.00     0.177 A 
HETATM   22  O   UNL     1     -23.553  -4.463  -6.744  1.00  0.00    -0.291 OA
ENDBRANCH   9  12
TORSDOF 1
BEGIN_RES ARG D 557
REMARK  4 active torsions:
REMARK  status: ('A' for Active; 'I' for Inactive)
REMARK    1  A    between atoms: CA   and  CB  
REMARK    2  A    between atoms: CB   and  CG  
REMARK    3  A    between atoms: CG   and  CD  
REMARK    4  A    between atoms: CD   and  NE  
REMARK       I    between atoms: NE   and  CZ  
REMARK       I    between atoms: CZ   and  NH1 
REMARK       I    between atoms: CZ   and  NH2 
ROOT
ATOM      1  CA  ARG D 557     -26.217   2.705 -17.014  1.00 35.49     0.159 C 
ENDROOT
BRANCH   1   2
ATOM      2  CB  ARG D 557     -26.789   1.319 -17.183  1.00 35.49     0.034 C 
BRANCH   2   3
ATOM      3  CG  ARG D 557     -28.148   1.099 -16.674  1.00 35.49     0.027 C 
BRANCH   3   4
ATOM      4  CD  ARG D 557     -28.788  -0.096 -17.272  1.00 35.49     0.116 C 
BRANCH   4   5
ATOM      5  NE  ARG D 557     -28.166  -1.319 -16.837  1.00 35.49    -0.212 N 
ATOM      6  CZ  ARG D 557     -28.637  -2.530 -17.029  1.00 35.49     0.666 C 
ATOM      7  NH1 ARG D 557     -29.779  -2.757 -17.652  1.00 35.49    -0.235 N 
ATOM      8  NH2 ARG D 557     -27.928  -3.527 -16.585  1.00 35.49    -0.235 N 
ATOM      9  HH  ARG D 557     -30.261  -2.116 -17.954  1.00 35.49     0.174 HD
ATOM     10  HH  ARG D 557     -30.035  -3.569 -17.750  1.00 35.49     0.174 HD
ATOM     11  HH  ARG D 557     -27.191  -3.352 -16.194  1.00 35.49     0.174 HD
ATOM     12  HH  ARG D 557     -28.198  -4.324 -16.694  1.00 35.49     0.174 HD
ATOM     13  HE  ARG D 557     -27.462  -1.262 -16.364  1.00 35.49     0.178 HD
ENDBRANCH   4   5
ENDBRANCH   3   4
ENDBRANCH   2   3
ENDBRANCH   1   2
END_RES ARG D 557
BEGIN_RES GLU D 570
REMARK  3 active torsions:
REMARK  status: ('A' for Active; 'I' for Inactive)
REMARK    5  A    between atoms: CA   and  CB  
REMARK    6  A    between atoms: CB   and  CG  
REMARK    7  A    between atoms: CG   and  CD  
ROOT
ATOM     14  CA  GLU D 570     -18.033  -6.348 -13.375  1.00 32.92     0.160 C 
ENDROOT
BRANCH  14  15
ATOM     15  CB  GLU D 570     -19.500  -6.345 -13.794  1.00 32.92     0.043 C 
BRANCH  15  16
ATOM     16  CG  GLU D 570     -19.796  -6.297 -15.249  1.00 32.92     0.100 C 
BRANCH  16  17
ATOM     17  CD  GLU D 570     -20.845  -7.300 -15.671  1.00 32.92     0.185 C 
ATOM     18  OE1 GLU D 570     -21.960  -6.888 -16.045  1.00 32.92    -0.647 OA
ATOM     19  OE2 GLU D 570     -20.554  -8.511 -15.610  1.00 32.92    -0.647 OA
ENDBRANCH  16  17
ENDBRANCH  15  16
ENDBRANCH  14  15
END_RES GLU D 570
ENDMDL
MODEL 7
REMARK VINA RESULT:      -9.1      1.939      6.068
REMARK  1 active torsions:
REMARK  status: ('A' for Active; 'I' for Inactive)
REMARK    1  A    between atoms: C_9  and  C_12 
ROOT
HETATM    1  C   UNL     1     -21.057  -4.206  -8.862  1.00  0.00     0.001 A 
HETATM    2  C   UNL     1     -19.776  -4.113  -8.332  1.00  0.00     0.002 A 
HETATM    3  C   UNL     1     -19.507  -4.620  -7.055  1.00  0.00     0.030 A 
HETATM    4  C   UNL     1     -20.492  -5.225  -6.285  1.00  0.00     0.042 A 
HETATM    5  C   UNL     1     -21.791  -5.308  -6.826  1.00  0.00    -0.009 A 
HETATM    6  C   UNL     1     -22.067  -4.798  -8.108  1.00  0.00     0.013 A 
HETATM    7  C   UNL     1     -22.785  -5.918  -6.058  1.00  0.00     0.015 A 
HETATM    8  C   UNL     1     -22.466  -6.446  -4.812  1.00  0.00     0.027 A 
HETATM    9  C   UNL     1     -21.154  -6.350  -4.357  1.00  0.00     0.029 A 
HETATM   10  N   UNL     1     -20.182  -5.728  -5.072  1.00  0.00    -0.358 N 
ATOM     11  HN  UNL     1     -19.236  -5.643  -4.700  1.00  0.00     0.166 HD
ENDROOT
BRANCH   9  12
HETATM   12  C   UNL     1     -20.768  -7.014  -3.067  1.00  0.00     0.185 A 
HETATM   13  C   UNL     1     -20.888  -8.522  -3.078  1.00  0.00     0.177 A 
HETATM   14  O   UNL     1     -20.334  -9.313  -3.823  1.00  0.00    -0.291 OA
HETATM   15  C   UNL     1     -21.723  -8.929  -1.944  1.00  0.00     0.025 A 
HETATM   16  C   UNL     1     -22.007 -10.204  -1.491  1.00  0.00     0.016 A 
HETATM   17  C   UNL     1     -22.185  -7.803  -1.278  1.00  0.00     0.025 A 
HETATM   18  C   UNL     1     -22.791 -10.322  -0.338  1.00  0.00     0.001 A 
HETATM   19  C   UNL     1     -23.277  -9.178   0.325  1.00  0.00     0.001 A 
HETATM   20  C   UNL     1     -22.974  -7.897  -0.146  1.00  0.00     0.016 A 
HETATM   21  C   UNL     1     -21.655  -6.598  -1.911  1.00  0.00     0.177 A 
HETATM   22  O   UNL     1     -21.855  -5.472  -1.489  1.00  0.00    -0.291 OA
ENDBRANCH   9  12
TORSDOF 1
BEGIN_RES ARG D 557
REMARK  4 active torsions:
REMARK  status: ('A' for Active; 'I' for Inactive)
REMARK    1  A    between atoms: CA   and  CB  
REMARK    2  A    between atoms: CB   and  CG  
REMARK    3  A    between atoms: CG   and  CD  
REMARK    4  A    between atoms: CD   and  NE  
REMARK       I    between atoms: NE   and  CZ  
REMARK       I    between atoms: CZ   and  NH1 
REMARK       I    between atoms: CZ   and  NH2 
ROOT
ATOM      1  CA  ARG D 557     -26.217   2.705 -17.014  1.00 35.49     0.159 C 
ENDROOT
BRANCH   1   2
ATOM      2  CB  ARG D 557     -26.789   1.319 -17.183  1.00 35.49     0.034 C 
BRANCH   2   3
ATOM      3  CG  ARG D 557     -25.872   0.194 -16.963  1.00 35.49     0.027 C 
BRANCH   3   4
ATOM      4  CD  ARG D 557     -26.309  -0.682 -15.853  1.00 35.49     0.116 C 
BRANCH   4   5
ATOM      5  NE  ARG D 557     -25.250  -0.934 -14.911  1.00 35.49    -0.212 N 
ATOM      6  CZ  ARG D 557     -24.954  -2.099 -14.381  1.00 35.49     0.666 C 
ATOM      7  NH1 ARG D 557     -25.633  -3.197 -14.658  1.00 35.49    -0.235 N 
ATOM      8  NH2 ARG D 557     -23.945  -2.147 -13.560  1.00 35.49    -0.235 N 
ATOM      9  HH  ARG D 557     -26.299  -3.189 -15.197  1.00 35.49     0.174 HD
ATOM     10  HH  ARG D 557     -25.393  -3.929 -14.284  1.00 35.49     0.174 HD
ATOM     11  HH  ARG D 557     -23.520  -1.424 -13.406  1.00 35.49     0.174 HD
ATOM     12  HH  ARG D 557     -23.722  -2.882 -13.202  1.00 35.49     0.174 HD
ATOM     13  HE  ARG D 557     -24.807  -0.268 -14.621  1.00 35.49     0.178 HD
ENDBRANCH   4   5
ENDBRANCH   3   4
ENDBRANCH   2   3
ENDBRANCH   1   2
END_RES ARG D 557
BEGIN_RES GLU D 570
REMARK  3 active torsions:
REMARK  status: ('A' for Active; 'I' for Inactive)
REMARK    5  A    between atoms: CA   and  CB  
REMARK    6  A    between atoms: CB   and  CG  
REMARK    7  A    between atoms: CG   and  CD  
ROOT
ATOM     14  CA  GLU D 570     -18.033  -6.348 -13.375  1.00 32.92     0.160 C 
ENDROOT
BRANCH  14  15
ATOM     15  CB  GLU D 570     -19.500  -6.345 -13.794  1.00 32.92     0.043 C 
BRANCH  15  16
ATOM     16  CG  GLU D 570     -20.448  -5.559 -12.962  1.00 32.92     0.100 C 
BRANCH  16  17
ATOM     17  CD  GLU D 570     -21.703  -5.169 -13.708  1.00 32.92     0.185 C 
ATOM     18  OE1 GLU D 570     -21.682  -5.139 -14.954  1.00 32.92    -0.647 OA
ATOM     19  OE2 GLU D 570     -22.713  -4.875 -13.039  1.00 32.92    -0.647 OA
ENDBRANCH  16  17
ENDBRANCH  15  16
ENDBRANCH  14  15
END_RES GLU D 570
ENDMDL
MODEL 8
REMARK VINA RESULT:      -9.0      2.890      5.911
REMARK  1 active torsions:
REMARK  status: ('A' for Active; 'I' for Inactive)
REMARK    1  A    between atoms: C_9  and  C_12 
ROOT
HETATM    1  C   UNL     1     -21.444  -4.032  -7.677  1.00  0.00     0.001 A 
HETATM    2  C   UNL     1     -20.156  -4.448  -7.992  1.00  0.00     0.002 A 
HETATM    3  C   UNL     1     -19.602  -5.560  -7.348  1.00  0.00     0.030 A 
HETATM    4  C   UNL     1     -20.305  -6.277  -6.389  1.00  0.00     0.042 A 
HETATM    5  C   UNL     1     -21.608  -5.844  -6.069  1.00  0.00    -0.009 A 
HETATM    6  C   UNL     1     -22.170  -4.725  -6.712  1.00  0.00     0.013 A 
HETATM    7  C   UNL     1     -22.322  -6.563  -5.108  1.00  0.00     0.015 A 
HETATM    8  C   UNL     1     -21.750  -7.686  -4.522  1.00  0.00     0.027 A 
HETATM    9  C   UNL     1     -20.469  -8.068  -4.910  1.00  0.00     0.029 A 
HETATM   10  N   UNL     1     -19.744  -7.362  -5.815  1.00  0.00    -0.358 N 
ATOM     11  HN  UNL     1     -18.794  -7.645  -6.057  1.00  0.00     0.166 HD
ENDROOT
BRANCH   9  12
HETATM   12  C   UNL     1     -19.882  -9.342  -4.374  1.00  0.00     0.185 A 
HETATM   13  C   UNL     1     -19.058  -9.174  -3.117  1.00  0.00     0.177 A 
HETATM   14  O   UNL     1     -19.412  -8.712  -2.045  1.00  0.00    -0.291 OA
HETATM   15  C   UNL     1     -17.738  -9.769  -3.345  1.00  0.00     0.025 A 
HETATM   16  C   UNL     1     -16.704  -9.953  -2.446  1.00  0.00     0.016 A 
HETATM   17  C   UNL     1     -17.653 -10.226  -4.652  1.00  0.00     0.025 A 
HETATM   18  C   UNL     1     -15.556 -10.608  -2.904  1.00  0.00     0.001 A 
HETATM   19  C   UNL     1     -15.462 -11.052  -4.237  1.00  0.00     0.001 A 
HETATM   20  C   UNL     1     -16.521 -10.862  -5.130  1.00  0.00     0.016 A 
HETATM   21  C   UNL     1     -18.917  -9.990  -5.346  1.00  0.00     0.177 A 
HETATM   22  O   UNL     1     -19.134 -10.350  -6.490  1.00  0.00    -0.291 OA
ENDBRANCH   9  12
TORSDOF 1
BEGIN_RES ARG D 557
REMARK  4 active torsions:
REMARK  status: ('A' for Active; 'I' for Inactive)
REMARK    1  A    between atoms: CA   and  CB  
REMARK    2  A    between atoms: CB   and  CG  
REMARK    3  A    between atoms: CG   and  CD  
REMARK    4  A    between atoms: CD   and  NE  
REMARK       I    between atoms: NE   and  CZ  
REMARK       I    between atoms: CZ   and  NH1 
REMARK       I    between atoms: CZ   and  NH2 
ROOT
ATOM      1  CA  ARG D 557     -26.217   2.705 -17.014  1.00 35.49     0.159 C 
ENDROOT
BRANCH   1   2
ATOM      2  CB  ARG D 557     -26.789   1.319 -17.183  1.00 35.49     0.034 C 
BRANCH   2   3
ATOM      3  CG  ARG D 557     -25.837   0.202 -17.142  1.00 35.49     0.027 C 
BRANCH   3   4
ATOM      4  CD  ARG D 557     -24.749   0.423 -16.163  1.00 35.49     0.116 C 
BRANCH   4   5
ATOM      5  NE  ARG D 557     -24.868  -0.438 -15.016  1.00 35.49    -0.212 N 
ATOM      6  CZ  ARG D 557     -24.037  -1.402 -14.690  1.00 35.49     0.666 C 
ATOM      7  NH1 ARG D 557     -22.975  -1.699 -15.417  1.00 35.49    -0.235 N 
ATOM      8  NH2 ARG D 557     -24.289  -2.069 -13.601  1.00 35.49    -0.235 N 
ATOM      9  HH  ARG D 557     -22.789  -1.272 -16.136  1.00 35.49     0.174 HD
ATOM     10  HH  ARG D 557     -22.467  -2.337 -15.153  1.00 35.49     0.174 HD
ATOM     11  HH  ARG D 557     -24.977  -1.850 -13.148  1.00 35.49     0.174 HD
ATOM     12  HH  ARG D 557     -23.773  -2.696 -13.356  1.00 35.49     0.174 HD
ATOM     13  HE  ARG D 557     -25.563  -0.364 -14.532  1.00 35.49     0.178 HD
ENDBRANCH   4   5
ENDBRANCH   3   4
ENDBRANCH   2   3
ENDBRANCH   1   2
END_RES ARG D 557
BEGIN_RES GLU D 570
REMARK  3 active torsions:
REMARK  status: ('A' for Active; 'I' for Inactive)
REMARK    5  A    between atoms: CA   and  CB  
REMARK    6  A    between atoms: CB   and  CG  
REMARK    7  A    between atoms: CG   and  CD  
ROOT
ATOM     14  CA  GLU D 570     -18.033  -6.348 -13.375  1.00 32.92     0.160 C 
ENDROOT
BRANCH  14  15
ATOM     15  CB  GLU D 570     -19.500  -6.345 -13.794  1.00 32.92     0.043 C 
BRANCH  15  16
ATOM     16  CG  GLU D 570     -20.453  -5.585 -12.944  1.00 32.92     0.100 C 
BRANCH  16  17
ATOM     17  CD  GLU D 570     -21.648  -5.072 -13.713  1.00 32.92     0.185 C 
ATOM     18  OE1 GLU D 570     -21.686  -5.229 -14.949  1.00 32.92    -0.647 OA
ATOM     19  OE2 GLU D 570     -22.548  -4.491 -13.075  1.00 32.92    -0.647 OA
ENDBRANCH  16  17
ENDBRANCH  15  16
ENDBRANCH  14  15
END_RES GLU D 570
ENDMDL
MODEL 9
REMARK VINA RESULT:      -8.8      1.575      5.471
REMARK  1 active torsions:
REMARK  status: ('A' for Active; 'I' for Inactive)
REMARK    1  A    between atoms: C_9  and  C_12 
ROOT
HETATM    1  C   UNL     1     -23.380  -3.276 -10.411  1.00  0.00     0.001 A 
HETATM    2  C   UNL     1     -24.198  -3.513  -9.313  1.00  0.00     0.002 A 
HETATM    3  C   UNL     1     -23.694  -4.188  -8.196  1.00  0.00     0.030 A 
HETATM    4  C   UNL     1     -22.381  -4.636  -8.142  1.00  0.00     0.042 A 
HETATM    5  C   UNL     1     -21.559  -4.399  -9.263  1.00  0.00    -0.009 A 
HETATM    6  C   UNL     1     -22.061  -3.723 -10.390  1.00  0.00     0.013 A 
HETATM    7  C   UNL     1     -20.236  -4.845  -9.214  1.00  0.00     0.015 A 
HETATM    8  C   UNL     1     -19.763  -5.475  -8.068  1.00  0.00     0.027 A 
HETATM    9  C   UNL     1     -20.628  -5.649  -6.991  1.00  0.00     0.029 A 
HETATM   10  N   UNL     1     -21.927  -5.256  -7.033  1.00  0.00    -0.358 N 
ATOM     11  HN  UNL     1     -22.548  -5.426  -6.241  1.00  0.00     0.166 HD
ENDROOT
BRANCH   9  12
HETATM   12  C   UNL     1     -20.103  -6.221  -5.706  1.00  0.00     0.185 A 
HETATM   13  C   UNL     1     -20.642  -7.593  -5.364  1.00  0.00     0.177 A 
HETATM   14  O   UNL     1     -20.562  -8.615  -6.025  1.00  0.00    -0.291 OA
HETATM   15  C   UNL     1     -21.208  -7.544  -4.013  1.00  0.00     0.025 A 
HETATM   16  C   UNL     1     -21.703  -8.581  -3.244  1.00  0.00     0.016 A 
HETATM   17  C   UNL     1     -21.130  -6.250  -3.521  1.00  0.00     0.025 A 
HETATM   18  C   UNL     1     -22.137  -8.278  -1.949  1.00  0.00     0.001 A 
HETATM   19  C   UNL     1     -22.077  -6.959  -1.459  1.00  0.00     0.001 A 
HETATM   20  C   UNL     1     -21.568  -5.925  -2.249  1.00  0.00     0.016 A 
HETATM   21  C   UNL     1     -20.480  -5.383  -4.501  1.00  0.00     0.177 A 
HETATM   22  O   UNL     1     -20.229  -4.208  -4.298  1.00  0.00    -0.291 OA
ENDBRANCH   9  12
TORSDOF 1
BEGIN_RES ARG D 557
REMARK  4 active torsions:
REMARK  status: ('A' for Active; 'I' for Inactive)
REMARK    1  A    between atoms: CA   and  CB  
REMARK    2  A    between atoms: CB   and  CG  
REMARK    3  A    between atoms: CG   and  CD  
REMARK    4  A    between atoms: CD   and  NE  
REMARK       I    between atoms: NE   and  CZ  
REMARK       I    between atoms: CZ   and  NH1 
REMARK       I    between atoms: CZ   and  NH2 
ROOT
ATOM      1  CA  ARG D 557     -26.217   2.705 -17.014  1.00 35.49     0.159 C 
ENDROOT
BRANCH   1   2
ATOM      2  CB  ARG D 557     -26.789   1.319 -17.183  1.00 35.49     0.034 C 
BRANCH   2   3
ATOM      3  CG  ARG D 557     -25.920   0.196 -16.812  1.00 35.49     0.027 C 
BRANCH   3   4
ATOM      4  CD  ARG D 557     -26.656  -0.880 -16.111  1.00 35.49     0.116 C 
BRANCH   4   5
ATOM      5  NE  ARG D 557     -25.862  -1.501 -15.083  1.00 35.49    -0.212 N 
ATOM      6  CZ  ARG D 557     -25.892  -2.772 -14.752  1.00 35.49     0.666 C 
ATOM      7  NH1 ARG D 557     -26.695  -3.639 -15.340  1.00 35.49    -0.235 N 
ATOM      8  NH2 ARG D 557     -25.086  -3.166 -13.809  1.00 35.49    -0.235 N 
ATOM      9  HH  ARG D 557     -27.232  -3.403 -15.964  1.00 35.49     0.174 HD
ATOM     10  HH  ARG D 557     -26.669  -4.457 -15.084  1.00 35.49     0.174 HD
ATOM     11  HH  ARG D 557     -24.573  -2.585 -13.452  1.00 35.49     0.174 HD
ATOM     12  HH  ARG D 557     -25.074  -3.979 -13.570  1.00 35.49     0.174 HD
ATOM     13  HE  ARG D 557     -25.369  -1.001 -14.604  1.00 35.49     0.178 HD
ENDBRANCH   4   5
ENDBRANCH   3   4
ENDBRANCH   2   3
ENDBRANCH   1   2
END_RES ARG D 557
BEGIN_RES GLU D 570
REMARK  3 active torsions:
REMARK  status: ('A' for Active; 'I' for Inactive)
REMARK    5  A    between atoms: CA   and  CB  
REMARK    6  A    between atoms: CB   and  CG  
REMARK    7  A    between atoms: CG   and  CD  
ROOT
ATOM     14  CA  GLU D 570     -18.033  -6.348 -13.375  1.00 32.92     0.160 C 
ENDROOT
BRANCH  14  15
ATOM     15  CB  GLU D 570     -19.500  -6.345 -13.794  1.00 32.92     0.043 C 
BRANCH  15  16
ATOM     16  CG  GLU D 570     -20.434  -5.495 -13.011  1.00 32.92     0.100 C 
BRANCH  16  17
ATOM     17  CD  GLU D 570     -21.731  -5.222 -13.736  1.00 32.92     0.185 C 
ATOM     18  OE1 GLU D 570     -22.133  -4.047 -13.837  1.00 32.92    -0.647 OA
ATOM     19  OE2 GLU D 570     -22.361  -6.197 -14.193  1.00 32.92    -0.647 OA
ENDBRANCH  16  17
ENDBRANCH  15  16
ENDBRANCH  14  15
END_RES GLU D 570
ENDMDL
