MODEL 1
REMARK VINA RESULT:     -10.3      0.000      0.000
REMARK  5 active torsions:
REMARK  status: ('A' for Active; 'I' for Inactive)
REMARK    1  A    between atoms: C_4  and  N_7 
REMARK    2  A    between atoms: N_9  and  C_11 
REMARK    3  A    between atoms: C_14  and  N_17 
REMARK    4  A    between atoms: N_19  and  C_21 
REMARK    5  A    between atoms: C_22  and  O_31 
ROOT
HETATM    1  C   UNL     1     -21.095  -4.969  -7.628  1.00  0.00     0.048 A 
HETATM    2  C   UNL     1     -20.353  -4.267  -6.658  1.00  0.00     0.033 A 
HETATM    3  C   UNL     1     -20.224  -4.762  -5.339  1.00  0.00     0.033 A 
HETATM    4  C   UNL     1     -20.822  -5.967  -4.955  1.00  0.00     0.048 A 
HETATM    5  C   UNL     1     -21.568  -6.654  -5.927  1.00  0.00     0.033 A 
HETATM    6  C   UNL     1     -21.694  -6.162  -7.240  1.00  0.00     0.033 A 
ENDROOT
BRANCH   4   7
HETATM    7  N   UNL     1     -20.770  -6.501  -3.644  1.00  0.00    -0.300 N 
HETATM    8  N   UNL     1     -21.345  -7.609  -3.503  1.00  0.00    -0.297 N 
ATOM      9  HN  UNL     1     -21.675  -8.200  -4.266  1.00  0.00     0.187 HD
ATOM     10  HN  UNL     1     -20.303  -6.023  -2.874  1.00  0.00     0.187 HD
BRANCH   8  11
HETATM   11  C   UNL     1     -21.468  -7.919  -2.115  1.00  0.00     0.092 C 
HETATM   12  C   UNL     1     -22.151  -7.036  -1.250  1.00  0.00     0.094 C 
HETATM   13  C   UNL     1     -22.316  -7.313   0.106  1.00  0.00     0.040 C 
HETATM   14  C   UNL     1     -21.922  -8.546   0.597  1.00  0.00     0.015 C 
HETATM   15  C   UNL     1     -21.233  -9.443  -0.225  1.00  0.00    -0.024 C 
HETATM   16  C   UNL     1     -20.832 -10.683   0.283  1.00  0.00     0.012 C 
HETATM   17  C   UNL     1     -20.872  -9.069  -1.539  1.00  0.00     0.005 C 
HETATM   18  C   UNL     1     -19.797 -11.379  -0.328  1.00  0.00     0.001 C 
HETATM   19  C   UNL     1     -19.289 -10.935  -1.540  1.00  0.00     0.001 C 
HETATM   20  C   UNL     1     -19.890  -9.852  -2.189  1.00  0.00     0.014 C 
BRANCH  12  21
HETATM   21  O   UNL     1     -22.677  -5.852  -1.689  1.00  0.00    -0.358 OA
HETATM   22  H   UNL     1     -23.062  -6.027  -2.564  1.00  0.00     0.217 HD
ENDBRANCH  12  21
ENDBRANCH   8  11
ENDBRANCH   4   7
BRANCH   1  23
HETATM   23  N   UNL     1     -21.339  -4.475  -8.940  1.00  0.00    -0.300 N 
HETATM   24  N   UNL     1     -22.560  -4.237  -9.169  1.00  0.00    -0.300 N 
ATOM     25  HN  UNL     1     -23.295  -4.324  -8.468  1.00  0.00     0.187 HD
ATOM     26  HN  UNL     1     -20.601  -4.327  -9.628  1.00  0.00     0.187 HD
BRANCH  24  27
HETATM   27  C   UNL     1     -22.794  -3.838 -10.505  1.00  0.00     0.048 A 
HETATM   28  C   UNL     1     -21.846  -3.931 -11.539  1.00  0.00     0.031 A 
HETATM   29  C   UNL     1     -22.181  -3.606 -12.859  1.00  0.00     0.002 A 
HETATM   30  C   UNL     1     -23.469  -3.178 -13.174  1.00  0.00     0.000 A 
HETATM   31  C   UNL     1     -24.421  -3.077 -12.165  1.00  0.00     0.002 A 
HETATM   32  C   UNL     1     -24.082  -3.408 -10.842  1.00  0.00     0.031 A 
ENDBRANCH  24  27
ENDBRANCH   1  23
TORSDOF 5
BEGIN_RES ARG D 557
REMARK  4 active torsions:
REMARK  status: ('A' for Active; 'I' for Inactive)
REMARK    1  A    between atoms: CA   and  CB  
REMARK    2  A    between atoms: CB   and  CG  
REMARK    3  A    between atoms: CG   and  CD  
REMARK    4  A    between atoms: CD   and  NE  
REMARK       I    between atoms: NE   and  CZ  
REMARK       I    between atoms: CZ   and  NH1 
REMARK       I    between atoms: CZ   and  NH2 
ROOT
ATOM      1  CA  ARG D 557     -26.217   2.705 -17.014  1.00 35.49     0.159 C 
ENDROOT
BRANCH   1   2
ATOM      2  CB  ARG D 557     -26.789   1.319 -17.183  1.00 35.49     0.034 C 
BRANCH   2   3
ATOM      3  CG  ARG D 557     -28.225   1.161 -16.922  1.00 35.49     0.027 C 
BRANCH   3   4
ATOM      4  CD  ARG D 557     -28.609  -0.256 -16.724  1.00 35.49     0.116 C 
BRANCH   4   5
ATOM      5  NE  ARG D 557     -27.598  -0.999 -16.020  1.00 35.49    -0.212 N 
ATOM      6  CZ  ARG D 557     -27.412  -2.298 -16.088  1.00 35.49     0.666 C 
ATOM      7  NH1 ARG D 557     -28.172  -3.085 -16.827  1.00 35.49    -0.235 N 
ATOM      8  NH2 ARG D 557     -26.431  -2.801 -15.397  1.00 35.49    -0.235 N 
ATOM      9  HH  ARG D 557     -28.822  -2.775 -17.292  1.00 35.49     0.174 HD
ATOM     10  HH  ARG D 557     -28.002  -3.925 -16.835  1.00 35.49     0.174 HD
ATOM     11  HH  ARG D 557     -25.952  -2.268 -14.935  1.00 35.49     0.174 HD
ATOM     12  HH  ARG D 557     -26.277  -3.635 -15.419  1.00 35.49     0.174 HD
ATOM     13  HE  ARG D 557     -27.109  -0.580 -15.464  1.00 35.49     0.178 HD
ENDBRANCH   4   5
ENDBRANCH   3   4
ENDBRANCH   2   3
ENDBRANCH   1   2
END_RES ARG D 557
BEGIN_RES GLU D 570
REMARK  3 active torsions:
REMARK  status: ('A' for Active; 'I' for Inactive)
REMARK    5  A    between atoms: CA   and  CB  
REMARK    6  A    between atoms: CB   and  CG  
REMARK    7  A    between atoms: CG   and  CD  
ROOT
ATOM     14  CA  GLU D 570     -18.033  -6.348 -13.375  1.00 32.92     0.160 C 
ENDROOT
BRANCH  14  15
ATOM     15  CB  GLU D 570     -19.500  -6.345 -13.794  1.00 32.92     0.043 C 
BRANCH  15  16
ATOM     16  CG  GLU D 570     -19.800  -6.136 -15.234  1.00 32.92     0.100 C 
BRANCH  16  17
ATOM     17  CD  GLU D 570     -21.267  -5.889 -15.500  1.00 32.92     0.185 C 
ATOM     18  OE1 GLU D 570     -22.108  -6.688 -15.045  1.00 32.92    -0.647 OA
ATOM     19  OE2 GLU D 570     -21.577  -4.895 -16.186  1.00 32.92    -0.647 OA
ENDBRANCH  16  17
ENDBRANCH  15  16
ENDBRANCH  14  15
END_RES GLU D 570
ENDMDL
MODEL 2
REMARK VINA RESULT:     -10.1      1.460      2.219
REMARK  5 active torsions:
REMARK  status: ('A' for Active; 'I' for Inactive)
REMARK    1  A    between atoms: C_4  and  N_7 
REMARK    2  A    between atoms: N_9  and  C_11 
REMARK    3  A    between atoms: C_14  and  N_17 
REMARK    4  A    between atoms: N_19  and  C_21 
REMARK    5  A    between atoms: C_22  and  O_31 
ROOT
HETATM    1  C   UNL     1     -21.743  -4.156  -9.163  1.00  0.00     0.048 A 
HETATM    2  C   UNL     1     -22.643  -4.165  -8.080  1.00  0.00     0.033 A 
HETATM    3  C   UNL     1     -22.291  -4.757  -6.844  1.00  0.00     0.033 A 
HETATM    4  C   UNL     1     -21.037  -5.347  -6.654  1.00  0.00     0.048 A 
HETATM    5  C   UNL     1     -20.150  -5.342  -7.743  1.00  0.00     0.033 A 
HETATM    6  C   UNL     1     -20.500  -4.750  -8.972  1.00  0.00     0.033 A 
ENDROOT
BRANCH   4   7
HETATM    7  N   UNL     1     -20.633  -5.994  -5.460  1.00  0.00    -0.300 N 
HETATM    8  N   UNL     1     -21.048  -7.173  -5.332  1.00  0.00    -0.297 N 
ATOM      9  HN  UNL     1     -21.484  -7.724  -6.071  1.00  0.00     0.187 HD
ATOM     10  HN  UNL     1     -20.050  -5.538  -4.758  1.00  0.00     0.187 HD
BRANCH   8  11
HETATM   11  C   UNL     1     -20.816  -7.627  -4.000  1.00  0.00     0.092 C 
HETATM   12  C   UNL     1     -21.525  -7.052  -2.922  1.00  0.00     0.094 C 
HETATM   13  C   UNL     1     -21.348  -7.485  -1.609  1.00  0.00     0.040 C 
HETATM   14  C   UNL     1     -20.561  -8.597  -1.364  1.00  0.00     0.015 C 
HETATM   15  C   UNL     1     -19.834  -9.188  -2.402  1.00  0.00    -0.024 C 
HETATM   16  C   UNL     1     -19.036 -10.306  -2.142  1.00  0.00     0.012 C 
HETATM   17  C   UNL     1     -19.844  -8.611  -3.692  1.00  0.00     0.005 C 
HETATM   18  C   UNL     1     -17.994 -10.627  -3.002  1.00  0.00     0.001 C 
HETATM   19  C   UNL     1     -17.861  -9.951  -4.207  1.00  0.00     0.001 C 
HETATM   20  C   UNL     1     -18.836  -9.027  -4.593  1.00  0.00     0.014 C 
BRANCH  12  21
HETATM   21  O   UNL     1     -22.414  -6.028  -3.102  1.00  0.00    -0.358 OA
HETATM   22  H   UNL     1     -21.887  -5.240  -3.320  1.00  0.00     0.217 HD
ENDBRANCH  12  21
ENDBRANCH   8  11
ENDBRANCH   4   7
BRANCH   1  23
HETATM   23  N   UNL     1     -22.074  -3.662 -10.456  1.00  0.00    -0.300 N 
HETATM   24  N   UNL     1     -23.296  -3.803 -10.751  1.00  0.00    -0.300 N 
ATOM     25  HN  UNL     1     -23.995  -4.171 -10.107  1.00  0.00     0.187 HD
ATOM     26  HN  UNL     1     -21.392  -3.236 -11.083  1.00  0.00     0.187 HD
BRANCH  24  27
HETATM   27  C   UNL     1     -23.586  -3.393 -12.073  1.00  0.00     0.048 A 
HETATM   28  C   UNL     1     -24.852  -2.973 -12.513  1.00  0.00     0.031 A 
HETATM   29  C   UNL     1     -25.043  -2.489 -13.814  1.00  0.00     0.002 A 
HETATM   30  C   UNL     1     -23.972  -2.418 -14.702  1.00  0.00     0.000 A 
HETATM   31  C   UNL     1     -22.710  -2.830 -14.286  1.00  0.00     0.002 A 
HETATM   32  C   UNL     1     -22.523  -3.311 -12.979  1.00  0.00     0.031 A 
ENDBRANCH  24  27
ENDBRANCH   1  23
TORSDOF 5
BEGIN_RES ARG D 557
REMARK  4 active torsions:
REMARK  status: ('A' for Active; 'I' for Inactive)
REMARK    1  A    between atoms: CA   and  CB  
REMARK    2  A    between atoms: CB   and  CG  
REMARK    3  A    between atoms: CG   and  CD  
REMARK    4  A    between atoms: CD   and  NE  
REMARK       I    between atoms: NE   and  CZ  
REMARK       I    between atoms: CZ   and  NH1 
REMARK       I    between atoms: CZ   and  NH2 
ROOT
ATOM      1  CA  ARG D 557     -26.217   2.705 -17.014  1.00 35.49     0.159 C 
ENDROOT
BRANCH   1   2
ATOM      2  CB  ARG D 557     -26.789   1.319 -17.183  1.00 35.49     0.034 C 
BRANCH   2   3
ATOM      3  CG  ARG D 557     -28.230   1.227 -17.446  1.00 35.49     0.027 C 
BRANCH   3   4
ATOM      4  CD  ARG D 557     -28.917   0.309 -16.508  1.00 35.49     0.116 C 
BRANCH   4   5
ATOM      5  NE  ARG D 557     -29.322  -0.916 -17.147  1.00 35.49    -0.212 N 
ATOM      6  CZ  ARG D 557     -28.704  -2.072 -17.051  1.00 35.49     0.666 C 
ATOM      7  NH1 ARG D 557     -27.600  -2.230 -16.345  1.00 35.49    -0.235 N 
ATOM      8  NH2 ARG D 557     -29.225  -3.084 -17.682  1.00 35.49    -0.235 N 
ATOM      9  HH  ARG D 557     -27.241  -1.578 -15.921  1.00 35.49     0.174 HD
ATOM     10  HH  ARG D 557     -27.243  -3.008 -16.317  1.00 35.49     0.174 HD
ATOM     11  HH  ARG D 557     -29.943  -2.954 -18.124  1.00 35.49     0.174 HD
ATOM     12  HH  ARG D 557     -28.857  -3.847 -17.641  1.00 35.49     0.174 HD
ATOM     13  HE  ARG D 557     -29.983  -0.888 -17.680  1.00 35.49     0.178 HD
ENDBRANCH   4   5
ENDBRANCH   3   4
ENDBRANCH   2   3
ENDBRANCH   1   2
END_RES ARG D 557
BEGIN_RES GLU D 570
REMARK  3 active torsions:
REMARK  status: ('A' for Active; 'I' for Inactive)
REMARK    5  A    between atoms: CA   and  CB  
REMARK    6  A    between atoms: CB   and  CG  
REMARK    7  A    between atoms: CG   and  CD  
ROOT
ATOM     14  CA  GLU D 570     -18.033  -6.348 -13.375  1.00 32.92     0.160 C 
ENDROOT
BRANCH  14  15
ATOM     15  CB  GLU D 570     -19.500  -6.345 -13.794  1.00 32.92     0.043 C 
BRANCH  15  16
ATOM     16  CG  GLU D 570     -19.799  -6.163 -15.238  1.00 32.92     0.100 C 
BRANCH  16  17
ATOM     17  CD  GLU D 570     -21.266  -5.923 -15.510  1.00 32.92     0.185 C 
ATOM     18  OE1 GLU D 570     -22.112  -6.404 -14.732  1.00 32.92    -0.647 OA
ATOM     19  OE2 GLU D 570     -21.572  -5.262 -16.522  1.00 32.92    -0.647 OA
ENDBRANCH  16  17
ENDBRANCH  15  16
ENDBRANCH  14  15
END_RES GLU D 570
ENDMDL
MODEL 3
REMARK VINA RESULT:      -9.8      2.033      3.165
REMARK  5 active torsions:
REMARK  status: ('A' for Active; 'I' for Inactive)
REMARK    1  A    between atoms: C_4  and  N_7 
REMARK    2  A    between atoms: N_9  and  C_11 
REMARK    3  A    between atoms: C_14  and  N_17 
REMARK    4  A    between atoms: N_19  and  C_21 
REMARK    5  A    between atoms: C_22  and  O_31 
ROOT
HETATM    1  C   UNL     1     -21.796  -4.036  -9.267  1.00  0.00     0.048 A 
HETATM    2  C   UNL     1     -22.552  -4.171  -8.086  1.00  0.00     0.033 A 
HETATM    3  C   UNL     1     -22.046  -4.879  -6.972  1.00  0.00     0.033 A 
HETATM    4  C   UNL     1     -20.776  -5.464  -7.002  1.00  0.00     0.048 A 
HETATM    5  C   UNL     1     -20.033  -5.334  -8.187  1.00  0.00     0.033 A 
HETATM    6  C   UNL     1     -20.537  -4.626  -9.295  1.00  0.00     0.033 A 
ENDROOT
BRANCH   4   7
HETATM    7  N   UNL     1     -20.222  -6.223  -5.941  1.00  0.00    -0.300 N 
HETATM    8  N   UNL     1     -20.280  -7.469  -6.096  1.00  0.00    -0.297 N 
ATOM      9  HN  UNL     1     -20.527  -7.940  -6.966  1.00  0.00     0.187 HD
ATOM     10  HN  UNL     1     -19.807  -5.792  -5.115  1.00  0.00     0.187 HD
BRANCH   8  11
HETATM   11  C   UNL     1     -19.950  -8.126  -4.873  1.00  0.00     0.092 C 
HETATM   12  C   UNL     1     -19.009  -9.178  -4.866  1.00  0.00     0.094 C 
HETATM   13  C   UNL     1     -18.639  -9.828  -3.690  1.00  0.00     0.040 C 
HETATM   14  C   UNL     1     -19.099  -9.345  -2.477  1.00  0.00     0.015 C 
HETATM   15  C   UNL     1     -20.041  -8.312  -2.442  1.00  0.00    -0.024 C 
HETATM   16  C   UNL     1     -20.505  -7.837  -1.212  1.00  0.00     0.012 C 
HETATM   17  C   UNL     1     -20.580  -7.803  -3.646  1.00  0.00     0.005 C 
HETATM   18  C   UNL     1     -21.718  -7.163  -1.144  1.00  0.00     0.001 C 
HETATM   19  C   UNL     1     -22.374  -6.804  -2.313  1.00  0.00     0.001 C 
HETATM   20  C   UNL     1     -21.760  -7.029  -3.549  1.00  0.00     0.014 C 
BRANCH  12  21
HETATM   21  O   UNL     1     -18.417  -9.631  -6.013  1.00  0.00    -0.358 OA
HETATM   22  H   UNL     1     -18.118 -10.538  -5.831  1.00  0.00     0.217 HD
ENDBRANCH  12  21
ENDBRANCH   8  11
ENDBRANCH   4   7
BRANCH   1  23
HETATM   23  N   UNL     1     -22.289  -3.419 -10.450  1.00  0.00    -0.300 N 
HETATM   24  N   UNL     1     -23.030  -4.175 -11.142  1.00  0.00    -0.300 N 
ATOM     25  HN  UNL     1     -23.308  -5.114 -10.853  1.00  0.00     0.187 HD
ATOM     26  HN  UNL     1     -22.066  -2.460 -10.715  1.00  0.00     0.187 HD
BRANCH  24  27
HETATM   27  C   UNL     1     -23.433  -3.577 -12.358  1.00  0.00     0.048 A 
HETATM   28  C   UNL     1     -24.685  -2.975 -12.569  1.00  0.00     0.031 A 
HETATM   29  C   UNL     1     -24.978  -2.317 -13.771  1.00  0.00     0.002 A 
HETATM   30  C   UNL     1     -24.027  -2.250 -14.787  1.00  0.00     0.000 A 
HETATM   31  C   UNL     1     -22.782  -2.841 -14.597  1.00  0.00     0.002 A 
HETATM   32  C   UNL     1     -22.491  -3.497 -13.389  1.00  0.00     0.031 A 
ENDBRANCH  24  27
ENDBRANCH   1  23
TORSDOF 5
BEGIN_RES ARG D 557
REMARK  4 active torsions:
REMARK  status: ('A' for Active; 'I' for Inactive)
REMARK    1  A    between atoms: CA   and  CB  
REMARK    2  A    between atoms: CB   and  CG  
REMARK    3  A    between atoms: CG   and  CD  
REMARK    4  A    between atoms: CD   and  NE  
REMARK       I    between atoms: NE   and  CZ  
REMARK       I    between atoms: CZ   and  NH1 
REMARK       I    between atoms: CZ   and  NH2 
ROOT
ATOM      1  CA  ARG D 557     -26.217   2.705 -17.014  1.00 35.49     0.159 C 
ENDROOT
BRANCH   1   2
ATOM      2  CB  ARG D 557     -26.789   1.319 -17.183  1.00 35.49     0.034 C 
BRANCH   2   3
ATOM      3  CG  ARG D 557     -28.236   1.225 -17.413  1.00 35.49     0.027 C 
BRANCH   3   4
ATOM      4  CD  ARG D 557     -28.896   0.285 -16.478  1.00 35.49     0.116 C 
BRANCH   4   5
ATOM      5  NE  ARG D 557     -29.285  -0.940 -17.125  1.00 35.49    -0.212 N 
ATOM      6  CZ  ARG D 557     -28.655  -2.090 -17.034  1.00 35.49     0.666 C 
ATOM      7  NH1 ARG D 557     -27.552  -2.240 -16.325  1.00 35.49    -0.235 N 
ATOM      8  NH2 ARG D 557     -29.163  -3.104 -17.672  1.00 35.49    -0.235 N 
ATOM      9  HH  ARG D 557     -27.201  -1.587 -15.896  1.00 35.49     0.174 HD
ATOM     10  HH  ARG D 557     -27.186  -3.014 -16.301  1.00 35.49     0.174 HD
ATOM     11  HH  ARG D 557     -29.880  -2.980 -18.116  1.00 35.49     0.174 HD
ATOM     12  HH  ARG D 557     -28.786  -3.863 -17.635  1.00 35.49     0.174 HD
ATOM     13  HE  ARG D 557     -29.945  -0.917 -17.661  1.00 35.49     0.178 HD
ENDBRANCH   4   5
ENDBRANCH   3   4
ENDBRANCH   2   3
ENDBRANCH   1   2
END_RES ARG D 557
BEGIN_RES GLU D 570
REMARK  3 active torsions:
REMARK  status: ('A' for Active; 'I' for Inactive)
REMARK    5  A    between atoms: CA   and  CB  
REMARK    6  A    between atoms: CB   and  CG  
REMARK    7  A    between atoms: CG   and  CD  
ROOT
ATOM     14  CA  GLU D 570     -18.033  -6.348 -13.375  1.00 32.92     0.160 C 
ENDROOT
BRANCH  14  15
ATOM     15  CB  GLU D 570     -19.500  -6.345 -13.794  1.00 32.92     0.043 C 
BRANCH  15  16
ATOM     16  CG  GLU D 570     -20.097  -7.642 -14.207  1.00 32.92     0.100 C 
BRANCH  16  17
ATOM     17  CD  GLU D 570     -20.932  -7.533 -15.461  1.00 32.92     0.185 C 
ATOM     18  OE1 GLU D 570     -20.865  -8.440 -16.313  1.00 32.92    -0.647 OA
ATOM     19  OE2 GLU D 570     -21.649  -6.523 -15.600  1.00 32.92    -0.647 OA
ENDBRANCH  16  17
ENDBRANCH  15  16
ENDBRANCH  14  15
END_RES GLU D 570
ENDMDL
MODEL 4
REMARK VINA RESULT:      -9.7      2.052      8.801
REMARK  5 active torsions:
REMARK  status: ('A' for Active; 'I' for Inactive)
REMARK    1  A    between atoms: C_4  and  N_7 
REMARK    2  A    between atoms: N_9  and  C_11 
REMARK    3  A    between atoms: C_14  and  N_17 
REMARK    4  A    between atoms: N_19  and  C_21 
REMARK    5  A    between atoms: C_22  and  O_31 
ROOT
HETATM    1  C   UNL     1     -21.638  -8.117  -3.152  1.00  0.00     0.048 A 
HETATM    2  C   UNL     1     -21.459  -6.722  -3.078  1.00  0.00     0.033 A 
HETATM    3  C   UNL     1     -21.202  -5.956  -4.239  1.00  0.00     0.033 A 
HETATM    4  C   UNL     1     -21.122  -6.557  -5.500  1.00  0.00     0.048 A 
HETATM    5  C   UNL     1     -21.290  -7.950  -5.562  1.00  0.00     0.033 A 
HETATM    6  C   UNL     1     -21.549  -8.710  -4.406  1.00  0.00     0.033 A 
ENDROOT
BRANCH   4   7
HETATM    7  N   UNL     1     -20.825  -5.860  -6.698  1.00  0.00    -0.300 N 
HETATM    8  N   UNL     1     -21.573  -4.879  -6.937  1.00  0.00    -0.297 N 
ATOM      9  HN  UNL     1     -22.229  -4.468  -6.274  1.00  0.00     0.187 HD
ATOM     10  HN  UNL     1     -20.064  -6.135  -7.318  1.00  0.00     0.187 HD
BRANCH   8  11
HETATM   11  C   UNL     1     -21.366  -4.427  -8.275  1.00  0.00     0.092 C 
HETATM   12  C   UNL     1     -20.055  -4.255  -8.770  1.00  0.00     0.094 C 
HETATM   13  C   UNL     1     -19.809  -3.841 -10.078  1.00  0.00     0.040 C 
HETATM   14  C   UNL     1     -20.869  -3.725 -10.960  1.00  0.00     0.015 C 
HETATM   15  C   UNL     1     -22.183  -3.876 -10.507  1.00  0.00    -0.024 C 
HETATM   16  C   UNL     1     -23.247  -3.749 -11.404  1.00  0.00     0.012 C 
HETATM   17  C   UNL     1     -22.440  -4.079  -9.131  1.00  0.00     0.005 C 
HETATM   18  C   UNL     1     -24.519  -3.451 -10.933  1.00  0.00     0.001 C 
HETATM   19  C   UNL     1     -24.768  -3.461  -9.567  1.00  0.00     0.001 C 
HETATM   20  C   UNL     1     -23.766  -3.873  -8.684  1.00  0.00     0.014 C 
BRANCH  12  21
HETATM   21  O   UNL     1     -18.951  -4.470  -7.991  1.00  0.00    -0.358 OA
HETATM   22  H   UNL     1     -19.111  -5.297  -7.506  1.00  0.00     0.217 HD
ENDBRANCH  12  21
ENDBRANCH   8  11
ENDBRANCH   4   7
BRANCH   1  23
HETATM   23  N   UNL     1     -21.804  -8.950  -2.010  1.00  0.00    -0.300 N 
HETATM   24  N   UNL     1     -21.976 -10.169  -2.297  1.00  0.00    -0.300 N 
ATOM     25  HN  UNL     1     -21.934 -10.539  -3.247  1.00  0.00     0.187 HD
ATOM     26  HN  UNL     1     -21.787  -8.598  -1.054  1.00  0.00     0.187 HD
BRANCH  24  27
HETATM   27  C   UNL     1     -22.233 -10.965  -1.157  1.00  0.00     0.048 A 
HETATM   28  C   UNL     1     -23.514 -11.365  -0.741  1.00  0.00     0.031 A 
HETATM   29  C   UNL     1     -23.684 -12.234   0.344  1.00  0.00     0.002 A 
HETATM   30  C   UNL     1     -22.578 -12.719   1.038  1.00  0.00     0.000 A 
HETATM   31  C   UNL     1     -21.301 -12.334   0.642  1.00  0.00     0.002 A 
HETATM   32  C   UNL     1     -21.135 -11.465  -0.449  1.00  0.00     0.031 A 
ENDBRANCH  24  27
ENDBRANCH   1  23
TORSDOF 5
BEGIN_RES ARG D 557
REMARK  4 active torsions:
REMARK  status: ('A' for Active; 'I' for Inactive)
REMARK    1  A    between atoms: CA   and  CB  
REMARK    2  A    between atoms: CB   and  CG  
REMARK    3  A    between atoms: CG   and  CD  
REMARK    4  A    between atoms: CD   and  NE  
REMARK       I    between atoms: NE   and  CZ  
REMARK       I    between atoms: CZ   and  NH1 
REMARK       I    between atoms: CZ   and  NH2 
ROOT
ATOM      1  CA  ARG D 557     -26.217   2.705 -17.014  1.00 35.49     0.159 C 
ENDROOT
BRANCH   1   2
ATOM      2  CB  ARG D 557     -26.789   1.319 -17.183  1.00 35.49     0.034 C 
BRANCH   2   3
ATOM      3  CG  ARG D 557     -28.224   1.160 -16.920  1.00 35.49     0.027 C 
BRANCH   3   4
ATOM      4  CD  ARG D 557     -28.610  -0.258 -16.735  1.00 35.49     0.116 C 
BRANCH   4   5
ATOM      5  NE  ARG D 557     -27.607  -1.005 -16.024  1.00 35.49    -0.212 N 
ATOM      6  CZ  ARG D 557     -27.424  -2.304 -16.093  1.00 35.49     0.666 C 
ATOM      7  NH1 ARG D 557     -28.180  -3.088 -16.839  1.00 35.49    -0.235 N 
ATOM      8  NH2 ARG D 557     -26.449  -2.811 -15.395  1.00 35.49    -0.235 N 
ATOM      9  HH  ARG D 557     -28.825  -2.776 -17.308  1.00 35.49     0.174 HD
ATOM     10  HH  ARG D 557     -28.012  -3.928 -16.847  1.00 35.49     0.174 HD
ATOM     11  HH  ARG D 557     -25.973  -2.280 -14.928  1.00 35.49     0.174 HD
ATOM     12  HH  ARG D 557     -26.298  -3.645 -15.417  1.00 35.49     0.174 HD
ATOM     13  HE  ARG D 557     -27.121  -0.588 -15.464  1.00 35.49     0.178 HD
ENDBRANCH   4   5
ENDBRANCH   3   4
ENDBRANCH   2   3
ENDBRANCH   1   2
END_RES ARG D 557
BEGIN_RES GLU D 570
REMARK  3 active torsions:
REMARK  status: ('A' for Active; 'I' for Inactive)
REMARK    5  A    between atoms: CA   and  CB  
REMARK    6  A    between atoms: CB   and  CG  
REMARK    7  A    between atoms: CG   and  CD  
ROOT
ATOM     14  CA  GLU D 570     -18.033  -6.348 -13.375  1.00 32.92     0.160 C 
ENDROOT
BRANCH  14  15
ATOM     15  CB  GLU D 570     -19.500  -6.345 -13.794  1.00 32.92     0.043 C 
BRANCH  15  16
ATOM     16  CG  GLU D 570     -19.811  -5.966 -15.197  1.00 32.92     0.100 C 
BRANCH  16  17
ATOM     17  CD  GLU D 570     -21.197  -5.386 -15.357  1.00 32.92     0.185 C 
ATOM     18  OE1 GLU D 570     -21.728  -5.390 -16.484  1.00 32.92    -0.647 OA
ATOM     19  OE2 GLU D 570     -21.750  -4.906 -14.348  1.00 32.92    -0.647 OA
ENDBRANCH  16  17
ENDBRANCH  15  16
ENDBRANCH  14  15
END_RES GLU D 570
ENDMDL
MODEL 5
REMARK VINA RESULT:      -9.7      1.386      2.288
REMARK  5 active torsions:
REMARK  status: ('A' for Active; 'I' for Inactive)
REMARK    1  A    between atoms: C_4  and  N_7 
REMARK    2  A    between atoms: N_9  and  C_11 
REMARK    3  A    between atoms: C_14  and  N_17 
REMARK    4  A    between atoms: N_19  and  C_21 
REMARK    5  A    between atoms: C_22  and  O_31 
ROOT
HETATM    1  C   UNL     1     -21.179  -5.366  -7.160  1.00  0.00     0.048 A 
HETATM    2  C   UNL     1     -22.127  -5.538  -6.133  1.00  0.00     0.033 A 
HETATM    3  C   UNL     1     -21.883  -6.420  -5.055  1.00  0.00     0.033 A 
HETATM    4  C   UNL     1     -20.692  -7.147  -4.968  1.00  0.00     0.048 A 
HETATM    5  C   UNL     1     -19.756  -6.978  -6.002  1.00  0.00     0.033 A 
HETATM    6  C   UNL     1     -19.999  -6.097  -7.074  1.00  0.00     0.033 A 
ENDROOT
BRANCH   4   7
HETATM    7  N   UNL     1     -20.398  -8.079  -3.942  1.00  0.00    -0.300 N 
HETATM    8  N   UNL     1     -21.347  -8.842  -3.633  1.00  0.00    -0.297 N 
ATOM      9  HN  UNL     1     -22.211  -8.946  -4.165  1.00  0.00     0.187 HD
ATOM     10  HN  UNL     1     -19.486  -8.127  -3.488  1.00  0.00     0.187 HD
BRANCH   8  11
HETATM   11  C   UNL     1     -21.037  -9.540  -2.428  1.00  0.00     0.092 C 
HETATM   12  C   UNL     1     -20.391 -10.795  -2.482  1.00  0.00     0.094 C 
HETATM   13  C   UNL     1     -20.047 -11.497  -1.329  1.00  0.00     0.040 C 
HETATM   14  C   UNL     1     -20.216 -10.893  -0.094  1.00  0.00     0.015 C 
HETATM   15  C   UNL     1     -20.860  -9.656   0.003  1.00  0.00    -0.024 C 
HETATM   16  C   UNL     1     -21.032  -9.059   1.254  1.00  0.00     0.012 C 
HETATM   17  C   UNL     1     -21.406  -9.048  -1.151  1.00  0.00     0.005 C 
HETATM   18  C   UNL     1     -22.022  -8.101   1.434  1.00  0.00     0.001 C 
HETATM   19  C   UNL     1     -22.713  -7.609   0.336  1.00  0.00     0.001 C 
HETATM   20  C   UNL     1     -22.336  -8.002  -0.952  1.00  0.00     0.014 C 
BRANCH  12  21
HETATM   21  O   UNL     1     -20.082 -11.401  -3.669  1.00  0.00    -0.358 OA
HETATM   22  H   UNL     1     -20.392 -12.320  -3.599  1.00  0.00     0.217 HD
ENDBRANCH  12  21
ENDBRANCH   8  11
ENDBRANCH   4   7
BRANCH   1  23
HETATM   23  N   UNL     1     -21.407  -4.568  -8.315  1.00  0.00    -0.300 N 
HETATM   24  N   UNL     1     -22.576  -4.682  -8.783  1.00  0.00    -0.300 N 
ATOM     25  HN  UNL     1     -23.311  -5.237  -8.343  1.00  0.00     0.187 HD
ATOM     26  HN  UNL     1     -20.697  -3.963  -8.726  1.00  0.00     0.187 HD
BRANCH  24  27
HETATM   27  C   UNL     1     -22.755  -3.955  -9.983  1.00  0.00     0.048 A 
HETATM   28  C   UNL     1     -21.704  -3.464 -10.777  1.00  0.00     0.031 A 
HETATM   29  C   UNL     1     -21.956  -2.837 -12.003  1.00  0.00     0.002 A 
HETATM   30  C   UNL     1     -23.263  -2.685 -12.461  1.00  0.00     0.000 A 
HETATM   31  C   UNL     1     -24.317  -3.163 -11.690  1.00  0.00     0.002 A 
HETATM   32  C   UNL     1     -24.059  -3.795 -10.461  1.00  0.00     0.031 A 
ENDBRANCH  24  27
ENDBRANCH   1  23
TORSDOF 5
BEGIN_RES ARG D 557
REMARK  4 active torsions:
REMARK  status: ('A' for Active; 'I' for Inactive)
REMARK    1  A    between atoms: CA   and  CB  
REMARK    2  A    between atoms: CB   and  CG  
REMARK    3  A    between atoms: CG   and  CD  
REMARK    4  A    between atoms: CD   and  NE  
REMARK       I    between atoms: NE   and  CZ  
REMARK       I    between atoms: CZ   and  NH1 
REMARK       I    between atoms: CZ   and  NH2 
ROOT
ATOM      1  CA  ARG D 557     -26.217   2.705 -17.014  1.00 35.49     0.159 C 
ENDROOT
BRANCH   1   2
ATOM      2  CB  ARG D 557     -26.789   1.319 -17.183  1.00 35.49     0.034 C 
BRANCH   2   3
ATOM      3  CG  ARG D 557     -28.215   1.151 -16.879  1.00 35.49     0.027 C 
BRANCH   3   4
ATOM      4  CD  ARG D 557     -28.600  -0.273 -16.747  1.00 35.49     0.116 C 
BRANCH   4   5
ATOM      5  NE  ARG D 557     -27.602  -1.043 -16.053  1.00 35.49    -0.212 N 
ATOM      6  CZ  ARG D 557     -27.456  -2.347 -16.118  1.00 35.49     0.666 C 
ATOM      7  NH1 ARG D 557     -28.250  -3.114 -16.843  1.00 35.49    -0.235 N 
ATOM      8  NH2 ARG D 557     -26.481  -2.877 -15.438  1.00 35.49    -0.235 N 
ATOM      9  HH  ARG D 557     -28.896  -2.787 -17.300  1.00 35.49     0.174 HD
ATOM     10  HH  ARG D 557     -28.105  -3.959 -16.849  1.00 35.49     0.174 HD
ATOM     11  HH  ARG D 557     -25.980  -2.356 -14.985  1.00 35.49     0.174 HD
ATOM     12  HH  ARG D 557     -26.353  -3.715 -15.458  1.00 35.49     0.174 HD
ATOM     13  HE  ARG D 557     -27.093  -0.637 -15.506  1.00 35.49     0.178 HD
ENDBRANCH   4   5
ENDBRANCH   3   4
ENDBRANCH   2   3
ENDBRANCH   1   2
END_RES ARG D 557
BEGIN_RES GLU D 570
REMARK  3 active torsions:
REMARK  status: ('A' for Active; 'I' for Inactive)
REMARK    5  A    between atoms: CA   and  CB  
REMARK    6  A    between atoms: CB   and  CG  
REMARK    7  A    between atoms: CG   and  CD  
ROOT
ATOM     14  CA  GLU D 570     -18.033  -6.348 -13.375  1.00 32.92     0.160 C 
ENDROOT
BRANCH  14  15
ATOM     15  CB  GLU D 570     -19.500  -6.345 -13.794  1.00 32.92     0.043 C 
BRANCH  15  16
ATOM     16  CG  GLU D 570     -19.809  -5.986 -15.202  1.00 32.92     0.100 C 
BRANCH  16  17
ATOM     17  CD  GLU D 570     -21.205  -5.434 -15.377  1.00 32.92     0.185 C 
ATOM     18  OE1 GLU D 570     -21.549  -5.004 -16.494  1.00 32.92    -0.647 OA
ATOM     19  OE2 GLU D 570     -21.955  -5.416 -14.382  1.00 32.92    -0.647 OA
ENDBRANCH  16  17
ENDBRANCH  15  16
ENDBRANCH  14  15
END_RES GLU D 570
ENDMDL
MODEL 6
REMARK VINA RESULT:      -8.9      2.048      2.947
REMARK  5 active torsions:
REMARK  status: ('A' for Active; 'I' for Inactive)
REMARK    1  A    between atoms: C_4  and  N_7 
REMARK    2  A    between atoms: N_9  and  C_11 
REMARK    3  A    between atoms: C_14  and  N_17 
REMARK    4  A    between atoms: N_19  and  C_21 
REMARK    5  A    between atoms: C_22  and  O_31 
ROOT
HETATM    1  C   UNL     1     -21.476  -5.884  -6.183  1.00  0.00     0.048 A 
HETATM    2  C   UNL     1     -22.291  -5.994  -5.039  1.00  0.00     0.033 A 
HETATM    3  C   UNL     1     -21.951  -6.871  -3.983  1.00  0.00     0.033 A 
HETATM    4  C   UNL     1     -20.794  -7.655  -4.036  1.00  0.00     0.048 A 
HETATM    5  C   UNL     1     -19.993  -7.547  -5.186  1.00  0.00     0.033 A 
HETATM    6  C   UNL     1     -20.331  -6.670  -6.235  1.00  0.00     0.033 A 
ENDROOT
BRANCH   4   7
HETATM    7  N   UNL     1     -20.414  -8.585  -3.037  1.00  0.00    -0.300 N 
HETATM    8  N   UNL     1     -20.634  -9.788  -3.325  1.00  0.00    -0.297 N 
ATOM      9  HN  UNL     1     -20.890 -10.132  -4.250  1.00  0.00     0.187 HD
ATOM     10  HN  UNL     1     -19.994  -8.301  -2.152  1.00  0.00     0.187 HD
BRANCH   8  11
HETATM   11  C   UNL     1     -20.471 -10.602  -2.165  1.00  0.00     0.092 C 
HETATM   12  C   UNL     1     -19.179 -10.999  -1.753  1.00  0.00     0.094 C 
HETATM   13  C   UNL     1     -18.975 -11.771  -0.611  1.00  0.00     0.040 C 
HETATM   14  C   UNL     1     -20.047 -12.046   0.221  1.00  0.00     0.015 C 
HETATM   15  C   UNL     1     -21.342 -11.680  -0.156  1.00  0.00    -0.024 C 
HETATM   16  C   UNL     1     -22.419 -11.968   0.687  1.00  0.00     0.012 C 
HETATM   17  C   UNL     1     -21.573 -11.091  -1.421  1.00  0.00     0.005 C 
HETATM   18  C   UNL     1     -23.707 -12.031   0.170  1.00  0.00     0.001 C 
HETATM   19  C   UNL     1     -23.944 -11.631  -1.138  1.00  0.00     0.001 C 
HETATM   20  C   UNL     1     -22.908 -11.069  -1.889  1.00  0.00     0.014 C 
BRANCH  12  21
HETATM   21  O   UNL     1     -18.057 -10.663  -2.459  1.00  0.00    -0.358 OA
HETATM   22  H   UNL     1     -18.251 -10.853  -3.393  1.00  0.00     0.217 HD
ENDBRANCH  12  21
ENDBRANCH   8  11
ENDBRANCH   4   7
BRANCH   1  23
HETATM   23  N   UNL     1     -21.815  -5.092  -7.316  1.00  0.00    -0.300 N 
HETATM   24  N   UNL     1     -21.279  -5.492  -8.389  1.00  0.00    -0.300 N 
ATOM     25  HN  UNL     1     -20.713  -6.338  -8.458  1.00  0.00     0.187 HD
ATOM     26  HN  UNL     1     -22.430  -4.280  -7.267  1.00  0.00     0.187 HD
BRANCH  24  27
HETATM   27  C   UNL     1     -21.551  -4.640  -9.483  1.00  0.00     0.048 A 
HETATM   28  C   UNL     1     -22.828  -4.158  -9.816  1.00  0.00     0.031 A 
HETATM   29  C   UNL     1     -23.007  -3.239 -10.858  1.00  0.00     0.002 A 
HETATM   30  C   UNL     1     -21.913  -2.783 -11.590  1.00  0.00     0.000 A 
HETATM   31  C   UNL     1     -20.640  -3.248 -11.277  1.00  0.00     0.002 A 
HETATM   32  C   UNL     1     -20.465  -4.168 -10.229  1.00  0.00     0.031 A 
ENDBRANCH  24  27
ENDBRANCH   1  23
TORSDOF 5
BEGIN_RES ARG D 557
REMARK  4 active torsions:
REMARK  status: ('A' for Active; 'I' for Inactive)
REMARK    1  A    between atoms: CA   and  CB  
REMARK    2  A    between atoms: CB   and  CG  
REMARK    3  A    between atoms: CG   and  CD  
REMARK    4  A    between atoms: CD   and  NE  
REMARK       I    between atoms: NE   and  CZ  
REMARK       I    between atoms: CZ   and  NH1 
REMARK       I    between atoms: CZ   and  NH2 
ROOT
ATOM      1  CA  ARG D 557     -26.217   2.705 -17.014  1.00 35.49     0.159 C 
ENDROOT
BRANCH   1   2
ATOM      2  CB  ARG D 557     -26.789   1.319 -17.183  1.00 35.49     0.034 C 
BRANCH   2   3
ATOM      3  CG  ARG D 557     -28.238   1.224 -17.397  1.00 35.49     0.027 C 
BRANCH   3   4
ATOM      4  CD  ARG D 557     -28.883   0.266 -16.471  1.00 35.49     0.116 C 
BRANCH   4   5
ATOM      5  NE  ARG D 557     -29.257  -0.958 -17.130  1.00 35.49    -0.212 N 
ATOM      6  CZ  ARG D 557     -28.627  -2.107 -17.031  1.00 35.49     0.666 C 
ATOM      7  NH1 ARG D 557     -27.538  -2.258 -16.300  1.00 35.49    -0.235 N 
ATOM      8  NH2 ARG D 557     -29.120  -3.120 -17.683  1.00 35.49    -0.235 N 
ATOM      9  HH  ARG D 557     -27.198  -1.606 -15.861  1.00 35.49     0.174 HD
ATOM     10  HH  ARG D 557     -27.171  -3.032 -16.271  1.00 35.49     0.174 HD
ATOM     11  HH  ARG D 557     -29.828  -2.995 -18.140  1.00 35.49     0.174 HD
ATOM     12  HH  ARG D 557     -28.743  -3.879 -17.640  1.00 35.49     0.174 HD
ATOM     13  HE  ARG D 557     -29.906  -0.934 -17.679  1.00 35.49     0.178 HD
ENDBRANCH   4   5
ENDBRANCH   3   4
ENDBRANCH   2   3
ENDBRANCH   1   2
END_RES ARG D 557
BEGIN_RES GLU D 570
REMARK  3 active torsions:
REMARK  status: ('A' for Active; 'I' for Inactive)
REMARK    5  A    between atoms: CA   and  CB  
REMARK    6  A    between atoms: CB   and  CG  
REMARK    7  A    between atoms: CG   and  CD  
ROOT
ATOM     14  CA  GLU D 570     -18.033  -6.348 -13.375  1.00 32.92     0.160 C 
ENDROOT
BRANCH  14  15
ATOM     15  CB  GLU D 570     -19.500  -6.345 -13.794  1.00 32.92     0.043 C 
BRANCH  15  16
ATOM     16  CG  GLU D 570     -20.092  -7.639 -14.223  1.00 32.92     0.100 C 
BRANCH  16  17
ATOM     17  CD  GLU D 570     -20.709  -7.576 -15.600  1.00 32.92     0.185 C 
ATOM     18  OE1 GLU D 570     -20.837  -8.629 -16.254  1.00 32.92    -0.647 OA
ATOM     19  OE2 GLU D 570     -21.054  -6.461 -16.037  1.00 32.92    -0.647 OA
ENDBRANCH  16  17
ENDBRANCH  15  16
ENDBRANCH  14  15
END_RES GLU D 570
ENDMDL
MODEL 7
REMARK VINA RESULT:      -8.9      1.661      2.528
REMARK  5 active torsions:
REMARK  status: ('A' for Active; 'I' for Inactive)
REMARK    1  A    between atoms: C_4  and  N_7 
REMARK    2  A    between atoms: N_9  and  C_11 
REMARK    3  A    between atoms: C_14  and  N_17 
REMARK    4  A    between atoms: N_19  and  C_21 
REMARK    5  A    between atoms: C_22  and  O_31 
ROOT
HETATM    1  C   UNL     1     -21.377  -5.641  -6.663  1.00  0.00     0.048 A 
HETATM    2  C   UNL     1     -22.375  -5.932  -5.713  1.00  0.00     0.033 A 
HETATM    3  C   UNL     1     -22.178  -6.930  -4.730  1.00  0.00     0.033 A 
HETATM    4  C   UNL     1     -20.986  -7.657  -4.664  1.00  0.00     0.048 A 
HETATM    5  C   UNL     1     -20.000  -7.368  -5.623  1.00  0.00     0.033 A 
HETATM    6  C   UNL     1     -20.196  -6.373  -6.599  1.00  0.00     0.033 A 
ENDROOT
BRANCH   4   7
HETATM    7  N   UNL     1     -20.736  -8.698  -3.736  1.00  0.00    -0.300 N 
HETATM    8  N   UNL     1     -19.911  -8.413  -2.832  1.00  0.00    -0.297 N 
ATOM      9  HN  UNL     1     -19.563  -7.476  -2.631  1.00  0.00     0.187 HD
ATOM     10  HN  UNL     1     -21.190  -9.610  -3.797  1.00  0.00     0.187 HD
BRANCH   8  11
HETATM   11  C   UNL     1     -19.534  -9.596  -2.129  1.00  0.00     0.092 C 
HETATM   12  C   UNL     1     -20.449 -10.222  -1.254  1.00  0.00     0.094 C 
HETATM   13  C   UNL     1     -20.129 -11.393  -0.569  1.00  0.00     0.040 C 
HETATM   14  C   UNL     1     -18.938 -12.039  -0.853  1.00  0.00     0.015 C 
HETATM   15  C   UNL     1     -18.001 -11.446  -1.705  1.00  0.00    -0.024 C 
HETATM   16  C   UNL     1     -16.798 -12.103  -1.978  1.00  0.00     0.012 C 
HETATM   17  C   UNL     1     -18.235 -10.153  -2.226  1.00  0.00     0.005 C 
HETATM   18  C   UNL     1     -15.701 -11.380  -2.429  1.00  0.00     0.001 C 
HETATM   19  C   UNL     1     -15.853 -10.045  -2.779  1.00  0.00     0.001 C 
HETATM   20  C   UNL     1     -17.126  -9.469  -2.777  1.00  0.00     0.014 C 
BRANCH  12  21
HETATM   21  O   UNL     1     -21.694  -9.708  -1.016  1.00  0.00    -0.358 OA
HETATM   22  H   UNL     1     -21.560  -8.814  -0.660  1.00  0.00     0.217 HD
ENDBRANCH  12  21
ENDBRANCH   8  11
ENDBRANCH   4   7
BRANCH   1  23
HETATM   23  N   UNL     1     -21.554  -4.718  -7.732  1.00  0.00    -0.300 N 
HETATM   24  N   UNL     1     -22.269  -5.167  -8.673  1.00  0.00    -0.300 N 
ATOM     25  HN  UNL     1     -22.733  -6.075  -8.647  1.00  0.00     0.187 HD
ATOM     26  HN  UNL     1     -21.143  -3.785  -7.738  1.00  0.00     0.187 HD
BRANCH  24  27
HETATM   27  C   UNL     1     -22.355  -4.273  -9.764  1.00  0.00     0.048 A 
HETATM   28  C   UNL     1     -21.252  -3.826 -10.513  1.00  0.00     0.031 A 
HETATM   29  C   UNL     1     -21.424  -3.016 -11.642  1.00  0.00     0.002 A 
HETATM   30  C   UNL     1     -22.702  -2.633 -12.046  1.00  0.00     0.000 A 
HETATM   31  C   UNL     1     -23.806  -3.064 -11.318  1.00  0.00     0.002 A 
HETATM   32  C   UNL     1     -23.629  -3.880 -10.188  1.00  0.00     0.031 A 
ENDBRANCH  24  27
ENDBRANCH   1  23
TORSDOF 5
BEGIN_RES ARG D 557
REMARK  4 active torsions:
REMARK  status: ('A' for Active; 'I' for Inactive)
REMARK    1  A    between atoms: CA   and  CB  
REMARK    2  A    between atoms: CB   and  CG  
REMARK    3  A    between atoms: CG   and  CD  
REMARK    4  A    between atoms: CD   and  NE  
REMARK       I    between atoms: NE   and  CZ  
REMARK       I    between atoms: CZ   and  NH1 
REMARK       I    between atoms: CZ   and  NH2 
ROOT
ATOM      1  CA  ARG D 557     -26.217   2.705 -17.014  1.00 35.49     0.159 C 
ENDROOT
BRANCH   1   2
ATOM      2  CB  ARG D 557     -26.789   1.319 -17.183  1.00 35.49     0.034 C 
BRANCH   2   3
ATOM      3  CG  ARG D 557     -28.230   1.227 -17.449  1.00 35.49     0.027 C 
BRANCH   3   4
ATOM      4  CD  ARG D 557     -28.918   0.308 -16.514  1.00 35.49     0.116 C 
BRANCH   4   5
ATOM      5  NE  ARG D 557     -28.149  -0.881 -16.257  1.00 35.49    -0.212 N 
ATOM      6  CZ  ARG D 557     -28.404  -2.079 -16.734  1.00 35.49     0.666 C 
ATOM      7  NH1 ARG D 557     -29.440  -2.326 -17.515  1.00 35.49    -0.235 N 
ATOM      8  NH2 ARG D 557     -27.586  -3.040 -16.414  1.00 35.49    -0.235 N 
ATOM      9  HH  ARG D 557     -29.990  -1.708 -17.740  1.00 35.49     0.174 HD
ATOM     10  HH  ARG D 557     -29.555  -3.126 -17.798  1.00 35.49     0.174 HD
ATOM     11  HH  ARG D 557     -26.922  -2.850 -15.914  1.00 35.49     0.174 HD
ATOM     12  HH  ARG D 557     -27.716  -3.825 -16.706  1.00 35.49     0.174 HD
ATOM     13  HE  ARG D 557     -27.505  -0.829 -15.705  1.00 35.49     0.178 HD
ENDBRANCH   4   5
ENDBRANCH   3   4
ENDBRANCH   2   3
ENDBRANCH   1   2
END_RES ARG D 557
BEGIN_RES GLU D 570
REMARK  3 active torsions:
REMARK  status: ('A' for Active; 'I' for Inactive)
REMARK    5  A    between atoms: CA   and  CB  
REMARK    6  A    between atoms: CB   and  CG  
REMARK    7  A    between atoms: CG   and  CD  
ROOT
ATOM     14  CA  GLU D 570     -18.033  -6.348 -13.375  1.00 32.92     0.160 C 
ENDROOT
BRANCH  14  15
ATOM     15  CB  GLU D 570     -19.500  -6.345 -13.794  1.00 32.92     0.043 C 
BRANCH  15  16
ATOM     16  CG  GLU D 570     -19.806  -6.034 -15.214  1.00 32.92     0.100 C 
BRANCH  16  17
ATOM     17  CD  GLU D 570     -21.189  -5.458 -15.407  1.00 32.92     0.185 C 
ATOM     18  OE1 GLU D 570     -21.494  -4.974 -16.514  1.00 32.92    -0.647 OA
ATOM     19  OE2 GLU D 570     -21.970  -5.474 -14.435  1.00 32.92    -0.647 OA
ENDBRANCH  16  17
ENDBRANCH  15  16
ENDBRANCH  14  15
END_RES GLU D 570
ENDMDL
MODEL 8
REMARK VINA RESULT:      -8.7     14.012     16.335
REMARK  5 active torsions:
REMARK  status: ('A' for Active; 'I' for Inactive)
REMARK    1  A    between atoms: C_4  and  N_7 
REMARK    2  A    between atoms: N_9  and  C_11 
REMARK    3  A    between atoms: C_14  and  N_17 
REMARK    4  A    between atoms: N_19  and  C_21 
REMARK    5  A    between atoms: C_22  and  O_31 
ROOT
HETATM    1  C   UNL     1     -18.747   9.617   2.756  1.00  0.00     0.048 A 
HETATM    2  C   UNL     1     -19.196  10.713   1.993  1.00  0.00     0.033 A 
HETATM    3  C   UNL     1     -20.525  10.774   1.516  1.00  0.00     0.033 A 
HETATM    4  C   UNL     1     -21.442   9.754   1.790  1.00  0.00     0.048 A 
HETATM    5  C   UNL     1     -20.983   8.660   2.543  1.00  0.00     0.033 A 
HETATM    6  C   UNL     1     -19.659   8.601   3.020  1.00  0.00     0.033 A 
ENDROOT
BRANCH   4   7
HETATM    7  N   UNL     1     -22.775   9.728   1.310  1.00  0.00    -0.300 N 
HETATM    8  N   UNL     1     -23.413   8.680   1.582  1.00  0.00    -0.297 N 
ATOM      9  HN  UNL     1     -23.109   7.963   2.239  1.00  0.00     0.187 HD
ATOM     10  HN  UNL     1     -23.185  10.500   0.785  1.00  0.00     0.187 HD
BRANCH   8  11
HETATM   11  C   UNL     1     -24.627   8.644   0.832  1.00  0.00     0.092 C 
HETATM   12  C   UNL     1     -25.787   9.276   1.332  1.00  0.00     0.094 C 
HETATM   13  C   UNL     1     -26.985   9.287   0.619  1.00  0.00     0.040 C 
HETATM   14  C   UNL     1     -27.009   8.786  -0.671  1.00  0.00     0.015 C 
HETATM   15  C   UNL     1     -25.884   8.144  -1.198  1.00  0.00    -0.024 C 
HETATM   16  C   UNL     1     -25.921   7.635  -2.499  1.00  0.00     0.012 C 
HETATM   17  C   UNL     1     -24.741   7.939  -0.392  1.00  0.00     0.005 C 
HETATM   18  C   UNL     1     -25.032   6.637  -2.878  1.00  0.00     0.001 C 
HETATM   19  C   UNL     1     -23.997   6.277  -2.027  1.00  0.00     0.001 C 
HETATM   20  C   UNL     1     -23.792   6.993  -0.844  1.00  0.00     0.014 C 
BRANCH  12  21
HETATM   21  O   UNL     1     -25.807   9.899   2.549  1.00  0.00    -0.358 OA
HETATM   22  H   UNL     1     -26.686  10.305   2.638  1.00  0.00     0.217 HD
ENDBRANCH  12  21
ENDBRANCH   8  11
ENDBRANCH   4   7
BRANCH   1  23
HETATM   23  N   UNL     1     -17.399   9.454   3.182  1.00  0.00    -0.300 N 
HETATM   24  N   UNL     1     -17.293   9.036   4.370  1.00  0.00    -0.300 N 
ATOM     25  HN  UNL     1     -18.089   8.774   4.952  1.00  0.00     0.187 HD
ATOM     26  HN  UNL     1     -16.597   9.655   2.586  1.00  0.00     0.187 HD
BRANCH  24  27
HETATM   27  C   UNL     1     -15.949   8.971   4.805  1.00  0.00     0.048 A 
HETATM   28  C   UNL     1     -14.835   9.034   3.951  1.00  0.00     0.031 A 
HETATM   29  C   UNL     1     -13.531   9.060   4.463  1.00  0.00     0.002 A 
HETATM   30  C   UNL     1     -13.314   9.021   5.839  1.00  0.00     0.000 A 
HETATM   31  C   UNL     1     -14.404   8.957   6.701  1.00  0.00     0.002 A 
HETATM   32  C   UNL     1     -15.710   8.935   6.183  1.00  0.00     0.031 A 
ENDBRANCH  24  27
ENDBRANCH   1  23
TORSDOF 5
BEGIN_RES ARG D 557
REMARK  4 active torsions:
REMARK  status: ('A' for Active; 'I' for Inactive)
REMARK    1  A    between atoms: CA   and  CB  
REMARK    2  A    between atoms: CB   and  CG  
REMARK    3  A    between atoms: CG   and  CD  
REMARK    4  A    between atoms: CD   and  NE  
REMARK       I    between atoms: NE   and  CZ  
REMARK       I    between atoms: CZ   and  NH1 
REMARK       I    between atoms: CZ   and  NH2 
ROOT
ATOM      1  CA  ARG D 557     -26.217   2.705 -17.014  1.00 35.49     0.159 C 
ENDROOT
BRANCH   1   2
ATOM      2  CB  ARG D 557     -26.789   1.319 -17.183  1.00 35.49     0.034 C 
BRANCH   2   3
ATOM      3  CG  ARG D 557     -25.868   0.195 -16.979  1.00 35.49     0.027 C 
BRANCH   3   4
ATOM      4  CD  ARG D 557     -26.289  -0.685 -15.864  1.00 35.49     0.116 C 
BRANCH   4   5
ATOM      5  NE  ARG D 557     -25.228  -0.907 -14.918  1.00 35.49    -0.212 N 
ATOM      6  CZ  ARG D 557     -24.924  -2.058 -14.361  1.00 35.49     0.666 C 
ATOM      7  NH1 ARG D 557     -25.596  -3.167 -14.612  1.00 35.49    -0.235 N 
ATOM      8  NH2 ARG D 557     -23.914  -2.080 -13.540  1.00 35.49    -0.235 N 
ATOM      9  HH  ARG D 557     -26.262  -3.176 -15.150  1.00 35.49     0.174 HD
ATOM     10  HH  ARG D 557     -25.350  -3.889 -14.221  1.00 35.49     0.174 HD
ATOM     11  HH  ARG D 557     -23.494  -1.350 -13.403  1.00 35.49     0.174 HD
ATOM     12  HH  ARG D 557     -23.686  -2.805 -13.164  1.00 35.49     0.174 HD
ATOM     13  HE  ARG D 557     -24.789  -0.232 -14.644  1.00 35.49     0.178 HD
ENDBRANCH   4   5
ENDBRANCH   3   4
ENDBRANCH   2   3
ENDBRANCH   1   2
END_RES ARG D 557
BEGIN_RES GLU D 570
REMARK  3 active torsions:
REMARK  status: ('A' for Active; 'I' for Inactive)
REMARK    5  A    between atoms: CA   and  CB  
REMARK    6  A    between atoms: CB   and  CG  
REMARK    7  A    between atoms: CG   and  CD  
ROOT
ATOM     14  CA  GLU D 570     -18.033  -6.348 -13.375  1.00 32.92     0.160 C 
ENDROOT
BRANCH  14  15
ATOM     15  CB  GLU D 570     -19.500  -6.345 -13.794  1.00 32.92     0.043 C 
BRANCH  15  16
ATOM     16  CG  GLU D 570     -20.448  -5.558 -12.963  1.00 32.92     0.100 C 
BRANCH  16  17
ATOM     17  CD  GLU D 570     -21.695  -5.155 -13.714  1.00 32.92     0.185 C 
ATOM     18  OE1 GLU D 570     -22.721  -4.862 -13.071  1.00 32.92    -0.647 OA
ATOM     19  OE2 GLU D 570     -21.651  -5.147 -14.960  1.00 32.92    -0.647 OA
ENDBRANCH  16  17
ENDBRANCH  15  16
ENDBRANCH  14  15
END_RES GLU D 570
ENDMDL
MODEL 9
REMARK VINA RESULT:      -8.7      2.491      8.884
REMARK  5 active torsions:
REMARK  status: ('A' for Active; 'I' for Inactive)
REMARK    1  A    between atoms: C_4  and  N_7 
REMARK    2  A    between atoms: N_9  and  C_11 
REMARK    3  A    between atoms: C_14  and  N_17 
REMARK    4  A    between atoms: N_19  and  C_21 
REMARK    5  A    between atoms: C_22  and  O_31 
ROOT
HETATM    1  C   UNL     1     -19.774  -8.728  -3.345  1.00  0.00     0.048 A 
HETATM    2  C   UNL     1     -20.810  -7.792  -3.161  1.00  0.00     0.033 A 
HETATM    3  C   UNL     1     -21.362  -7.089  -4.257  1.00  0.00     0.033 A 
HETATM    4  C   UNL     1     -20.902  -7.302  -5.560  1.00  0.00     0.048 A 
HETATM    5  C   UNL     1     -19.860  -8.229  -5.733  1.00  0.00     0.033 A 
HETATM    6  C   UNL     1     -19.314  -8.931  -4.642  1.00  0.00     0.033 A 
ENDROOT
BRANCH   4   7
HETATM    7  N   UNL     1     -21.377  -6.604  -6.699  1.00  0.00    -0.300 N 
HETATM    8  N   UNL     1     -21.290  -5.353  -6.625  1.00  0.00    -0.297 N 
ATOM      9  HN  UNL     1     -20.767  -4.843  -5.914  1.00  0.00     0.187 HD
ATOM     10  HN  UNL     1     -21.760  -7.081  -7.515  1.00  0.00     0.187 HD
BRANCH   8  11
HETATM   11  C   UNL     1     -22.032  -4.752  -7.686  1.00  0.00     0.092 C 
HETATM   12  C   UNL     1     -23.406  -4.473  -7.519  1.00  0.00     0.094 C 
HETATM   13  C   UNL     1     -24.160  -3.863  -8.520  1.00  0.00     0.040 C 
HETATM   14  C   UNL     1     -23.523  -3.393  -9.655  1.00  0.00     0.015 C 
HETATM   15  C   UNL     1     -22.167  -3.658  -9.863  1.00  0.00    -0.024 C 
HETATM   16  C   UNL     1     -21.535  -3.185 -11.016  1.00  0.00     0.012 C 
HETATM   17  C   UNL     1     -21.455  -4.468  -8.948  1.00  0.00     0.005 C 
HETATM   18  C   UNL     1     -20.364  -3.787 -11.460  1.00  0.00     0.001 C 
HETATM   19  C   UNL     1     -19.729  -4.730 -10.664  1.00  0.00     0.001 C 
HETATM   20  C   UNL     1     -20.212  -4.989  -9.378  1.00  0.00     0.014 C 
BRANCH  12  21
HETATM   21  O   UNL     1     -24.079  -4.799  -6.374  1.00  0.00    -0.358 OA
HETATM   22  H   UNL     1     -23.834  -4.133  -5.710  1.00  0.00     0.217 HD
ENDBRANCH  12  21
ENDBRANCH   8  11
ENDBRANCH   4   7
BRANCH   1  23
HETATM   23  N   UNL     1     -19.116  -9.394  -2.273  1.00  0.00    -0.300 N 
HETATM   24  N   UNL     1     -18.341 -10.318  -2.654  1.00  0.00    -0.300 N 
ATOM     25  HN  UNL     1     -18.149 -10.528  -3.634  1.00  0.00     0.187 HD
ATOM     26  HN  UNL     1     -19.256  -9.150  -1.293  1.00  0.00     0.187 HD
BRANCH  24  27
HETATM   27  C   UNL     1     -17.771 -11.028  -1.573  1.00  0.00     0.048 A 
HETATM   28  C   UNL     1     -18.511 -11.666  -0.563  1.00  0.00     0.031 A 
HETATM   29  C   UNL     1     -17.879 -12.433   0.424  1.00  0.00     0.002 A 
HETATM   30  C   UNL     1     -16.493 -12.577   0.423  1.00  0.00     0.000 A 
HETATM   31  C   UNL     1     -15.742 -11.953  -0.568  1.00  0.00     0.002 A 
HETATM   32  C   UNL     1     -16.381 -11.187  -1.557  1.00  0.00     0.031 A 
ENDBRANCH  24  27
ENDBRANCH   1  23
TORSDOF 5
BEGIN_RES ARG D 557
REMARK  4 active torsions:
REMARK  status: ('A' for Active; 'I' for Inactive)
REMARK    1  A    between atoms: CA   and  CB  
REMARK    2  A    between atoms: CB   and  CG  
REMARK    3  A    between atoms: CG   and  CD  
REMARK    4  A    between atoms: CD   and  NE  
REMARK       I    between atoms: NE   and  CZ  
REMARK       I    between atoms: CZ   and  NH1 
REMARK       I    between atoms: CZ   and  NH2 
ROOT
ATOM      1  CA  ARG D 557     -26.217   2.705 -17.014  1.00 35.49     0.159 C 
ENDROOT
BRANCH   1   2
ATOM      2  CB  ARG D 557     -26.789   1.319 -17.183  1.00 35.49     0.034 C 
BRANCH   2   3
ATOM      3  CG  ARG D 557     -25.837   0.202 -17.146  1.00 35.49     0.027 C 
BRANCH   3   4
ATOM      4  CD  ARG D 557     -24.741   0.427 -16.175  1.00 35.49     0.116 C 
BRANCH   4   5
ATOM      5  NE  ARG D 557     -24.850  -0.432 -15.026  1.00 35.49    -0.212 N 
ATOM      6  CZ  ARG D 557     -24.023  -1.404 -14.712  1.00 35.49     0.666 C 
ATOM      7  NH1 ARG D 557     -22.976  -1.712 -15.456  1.00 35.49    -0.235 N 
ATOM      8  NH2 ARG D 557     -24.264  -2.069 -13.620  1.00 35.49    -0.235 N 
ATOM      9  HH  ARG D 557     -22.797  -1.286 -16.178  1.00 35.49     0.174 HD
ATOM     10  HH  ARG D 557     -22.470  -2.354 -15.200  1.00 35.49     0.174 HD
ATOM     11  HH  ARG D 557     -24.943  -1.843 -13.155  1.00 35.49     0.174 HD
ATOM     12  HH  ARG D 557     -23.750  -2.700 -13.383  1.00 35.49     0.174 HD
ATOM     13  HE  ARG D 557     -25.536  -0.352 -14.530  1.00 35.49     0.178 HD
ENDBRANCH   4   5
ENDBRANCH   3   4
ENDBRANCH   2   3
ENDBRANCH   1   2
END_RES ARG D 557
BEGIN_RES GLU D 570
REMARK  3 active torsions:
REMARK  status: ('A' for Active; 'I' for Inactive)
REMARK    5  A    between atoms: CA   and  CB  
REMARK    6  A    between atoms: CB   and  CG  
REMARK    7  A    between atoms: CG   and  CD  
ROOT
ATOM     14  CA  GLU D 570     -18.033  -6.348 -13.375  1.00 32.92     0.160 C 
ENDROOT
BRANCH  14  15
ATOM     15  CB  GLU D 570     -19.500  -6.345 -13.794  1.00 32.92     0.043 C 
BRANCH  15  16
ATOM     16  CG  GLU D 570     -19.837  -5.729 -15.104  1.00 32.92     0.100 C 
BRANCH  16  17
ATOM     17  CD  GLU D 570     -21.256  -5.216 -15.166  1.00 32.92     0.185 C 
ATOM     18  OE1 GLU D 570     -22.050  -5.520 -14.256  1.00 32.92    -0.647 OA
ATOM     19  OE2 GLU D 570     -21.582  -4.516 -16.145  1.00 32.92    -0.647 OA
ENDBRANCH  16  17
ENDBRANCH  15  16
ENDBRANCH  14  15
END_RES GLU D 570
ENDMDL
