MODEL 1
REMARK VINA RESULT:     -10.5      0.000      0.000
REMARK  0 active torsions:
REMARK  status: ('A' for Active; 'I' for Inactive)
ROOT
HETATM    1  C   UNL     1     -21.014 -11.035  -1.907  1.00  0.00     0.268 C 
HETATM    2  C   UNL     1     -20.507 -10.652  -3.338  1.00  0.00     0.268 C 
HETATM    3  C   UNL     1     -20.094  -9.166  -3.372  1.00  0.00     0.291 C 
HETATM    4  C   UNL     1     -21.226  -8.261  -2.915  1.00  0.00     0.356 C 
HETATM    5  C   UNL     1     -21.708  -8.649  -1.523  1.00  0.00     0.356 C 
HETATM    6  C   UNL     1     -22.170 -10.098  -1.503  1.00  0.00     0.291 C 
HETATM    7  C   UNL     1     -22.738 -10.443  -0.133  1.00  0.00     0.359 C 
HETATM    8  C   UNL     1     -23.230 -11.880  -0.097  1.00  0.00     0.381 C 
HETATM    9  C   UNL     1     -22.071 -12.804  -0.389  1.00  0.00     0.381 C 
HETATM   10  C   UNL     1     -21.468 -12.493  -1.756  1.00  0.00     0.356 C 
HETATM   11  F   UNL     1     -22.362 -12.772  -2.734  1.00  0.00    -0.195 F 
HETATM   12  F   UNL     1     -20.412 -13.323  -1.947  1.00  0.00    -0.195 F 
HETATM   13  F   UNL     1     -21.114 -12.671   0.568  1.00  0.00    -0.192 F 
HETATM   14  F   UNL     1     -22.474 -14.103  -0.341  1.00  0.00    -0.192 F 
HETATM   15  F   UNL     1     -23.774 -12.164   1.114  1.00  0.00    -0.192 F 
HETATM   16  F   UNL     1     -24.218 -12.061  -1.010  1.00  0.00    -0.192 F 
HETATM   17  F   UNL     1     -21.794 -10.247   0.818  1.00  0.00    -0.195 F 
HETATM   18  F   UNL     1     -23.766  -9.606   0.169  1.00  0.00    -0.195 F 
HETATM   19  F   UNL     1     -23.167 -10.253  -2.422  1.00  0.00    -0.225 F 
HETATM   20  F   UNL     1     -20.706  -8.474  -0.625  1.00  0.00    -0.195 F 
HETATM   21  F   UNL     1     -22.709  -7.821  -1.139  1.00  0.00    -0.195 F 
HETATM   22  F   UNL     1     -20.820  -6.966  -2.910  1.00  0.00    -0.195 F 
HETATM   23  F   UNL     1     -22.256  -8.334  -3.792  1.00  0.00    -0.195 F 
HETATM   24  C   UNL     1     -19.636  -8.756  -4.767  1.00  0.00     0.359 C 
HETATM   25  C   UNL     1     -18.435  -9.579  -5.198  1.00  0.00     0.381 C 
HETATM   26  C   UNL     1     -18.812 -11.041  -5.220  1.00  0.00     0.381 C 
HETATM   27  C   UNL     1     -19.334 -11.498  -3.861  1.00  0.00     0.356 C 
HETATM   28  F   UNL     1     -18.338 -11.471  -2.943  1.00  0.00    -0.195 F 
HETATM   29  F   UNL     1     -19.720 -12.793  -3.976  1.00  0.00    -0.195 F 
HETATM   30  F   UNL     1     -17.745 -11.800  -5.589  1.00  0.00    -0.192 F 
HETATM   31  F   UNL     1     -19.769 -11.257  -6.165  1.00  0.00    -0.192 F 
HETATM   32  F   UNL     1     -17.399  -9.371  -4.347  1.00  0.00    -0.192 F 
HETATM   33  F   UNL     1     -18.003  -9.180  -6.424  1.00  0.00    -0.192 F 
HETATM   34  F   UNL     1     -19.318  -7.438  -4.790  1.00  0.00    -0.195 F 
HETATM   35  F   UNL     1     -20.653  -8.917  -5.649  1.00  0.00    -0.195 F 
HETATM   36  F   UNL     1     -19.048  -9.012  -2.509  1.00  0.00    -0.225 F 
HETATM   37  F   UNL     1     -21.550 -10.806  -4.201  1.00  0.00    -0.228 F 
HETATM   38  F   UNL     1     -19.992 -10.830  -1.031  1.00  0.00    -0.228 F 
ENDROOT
TORSDOF 0
BEGIN_RES ARG D 557
REMARK  4 active torsions:
REMARK  status: ('A' for Active; 'I' for Inactive)
REMARK    1  A    between atoms: CA   and  CB  
REMARK    2  A    between atoms: CB   and  CG  
REMARK    3  A    between atoms: CG   and  CD  
REMARK    4  A    between atoms: CD   and  NE  
REMARK       I    between atoms: NE   and  CZ  
REMARK       I    between atoms: CZ   and  NH1 
REMARK       I    between atoms: CZ   and  NH2 
ROOT
ATOM      1  CA  ARG D 557     -26.217   2.705 -17.014  1.00 35.49     0.159 C 
ENDROOT
BRANCH   1   2
ATOM      2  CB  ARG D 557     -26.789   1.319 -17.183  1.00 35.49     0.034 C 
BRANCH   2   3
ATOM      3  CG  ARG D 557     -25.837   0.202 -17.145  1.00 35.49     0.027 C 
BRANCH   3   4
ATOM      4  CD  ARG D 557     -24.753   0.418 -16.160  1.00 35.49     0.116 C 
BRANCH   4   5
ATOM      5  NE  ARG D 557     -24.888  -0.435 -15.009  1.00 35.49    -0.212 N 
ATOM      6  CZ  ARG D 557     -24.064  -1.400 -14.667  1.00 35.49     0.666 C 
ATOM      7  NH1 ARG D 557     -22.996  -1.706 -15.380  1.00 35.49    -0.235 N 
ATOM      8  NH2 ARG D 557     -24.331  -2.059 -13.577  1.00 35.49    -0.235 N 
ATOM      9  HH  ARG D 557     -22.800  -1.284 -16.100  1.00 35.49     0.174 HD
ATOM     10  HH  ARG D 557     -22.493  -2.344 -15.107  1.00 35.49     0.174 HD
ATOM     11  HH  ARG D 557     -25.023  -1.834 -13.133  1.00 35.49     0.174 HD
ATOM     12  HH  ARG D 557     -23.820  -2.686 -13.322  1.00 35.49     0.174 HD
ATOM     13  HE  ARG D 557     -25.588  -0.355 -14.533  1.00 35.49     0.178 HD
ENDBRANCH   4   5
ENDBRANCH   3   4
ENDBRANCH   2   3
ENDBRANCH   1   2
END_RES ARG D 557
BEGIN_RES GLU D 570
REMARK  3 active torsions:
REMARK  status: ('A' for Active; 'I' for Inactive)
REMARK    5  A    between atoms: CA   and  CB  
REMARK    6  A    between atoms: CB   and  CG  
REMARK    7  A    between atoms: CG   and  CD  
ROOT
ATOM     14  CA  GLU D 570     -18.033  -6.348 -13.375  1.00 32.92     0.160 C 
ENDROOT
BRANCH  14  15
ATOM     15  CB  GLU D 570     -19.500  -6.345 -13.794  1.00 32.92     0.043 C 
BRANCH  15  16
ATOM     16  CG  GLU D 570     -20.444  -5.539 -12.977  1.00 32.92     0.100 C 
BRANCH  16  17
ATOM     17  CD  GLU D 570     -21.726  -5.215 -13.706  1.00 32.92     0.185 C 
ATOM     18  OE1 GLU D 570     -22.286  -4.123 -13.490  1.00 32.92    -0.647 OA
ATOM     19  OE2 GLU D 570     -22.185  -6.069 -14.490  1.00 32.92    -0.647 OA
ENDBRANCH  16  17
ENDBRANCH  15  16
ENDBRANCH  14  15
END_RES GLU D 570
ENDMDL
MODEL 2
REMARK VINA RESULT:     -10.2      1.138      4.926
REMARK  0 active torsions:
REMARK  status: ('A' for Active; 'I' for Inactive)
ROOT
HETATM    1  C   UNL     1     -19.655 -10.775  -3.334  1.00  0.00     0.268 C 
HETATM    2  C   UNL     1     -20.255 -10.177  -2.018  1.00  0.00     0.268 C 
HETATM    3  C   UNL     1     -21.317  -9.111  -2.359  1.00  0.00     0.291 C 
HETATM    4  C   UNL     1     -20.752  -8.028  -3.262  1.00  0.00     0.356 C 
HETATM    5  C   UNL     1     -20.171  -8.628  -4.536  1.00  0.00     0.356 C 
HETATM    6  C   UNL     1     -19.082  -9.637  -4.202  1.00  0.00     0.291 C 
HETATM    7  C   UNL     1     -18.444 -10.155  -5.483  1.00  0.00     0.359 C 
HETATM    8  C   UNL     1     -17.336 -11.147  -5.174  1.00  0.00     0.381 C 
HETATM    9  C   UNL     1     -17.919 -12.315  -4.414  1.00  0.00     0.381 C 
HETATM   10  C   UNL     1     -18.571 -11.841  -3.119  1.00  0.00     0.356 C 
HETATM   11  F   UNL     1     -17.633 -11.342  -2.280  1.00  0.00    -0.195 F 
HETATM   12  F   UNL     1     -19.110 -12.921  -2.501  1.00  0.00    -0.195 F 
HETATM   13  F   UNL     1     -18.843 -12.955  -5.179  1.00  0.00    -0.192 F 
HETATM   14  F   UNL     1     -16.954 -13.235  -4.141  1.00  0.00    -0.192 F 
HETATM   15  F   UNL     1     -16.744 -11.570  -6.321  1.00  0.00    -0.192 F 
HETATM   16  F   UNL     1     -16.361 -10.548  -4.442  1.00  0.00    -0.192 F 
HETATM   17  F   UNL     1     -19.386 -10.736  -6.263  1.00  0.00    -0.195 F 
HETATM   18  F   UNL     1     -17.936  -9.120  -6.203  1.00  0.00    -0.195 F 
HETATM   19  F   UNL     1     -18.113  -9.011  -3.474  1.00  0.00    -0.225 F 
HETATM   20  F   UNL     1     -21.154  -9.232  -5.250  1.00  0.00    -0.195 F 
HETATM   21  F   UNL     1     -19.683  -7.640  -5.324  1.00  0.00    -0.195 F 
HETATM   22  F   UNL     1     -21.719  -7.132  -3.583  1.00  0.00    -0.195 F 
HETATM   23  F   UNL     1     -19.792  -7.334  -2.604  1.00  0.00    -0.195 F 
HETATM   24  C   UNL     1     -21.888  -8.483  -1.093  1.00  0.00     0.359 C 
HETATM   25  C   UNL     1     -22.553  -9.536  -0.225  1.00  0.00     0.381 C 
HETATM   26  C   UNL     1     -21.533 -10.579   0.167  1.00  0.00     0.381 C 
HETATM   27  C   UNL     1     -20.883 -11.206  -1.063  1.00  0.00     0.356 C 
HETATM   28  F   UNL     1     -21.792 -11.938  -1.752  1.00  0.00    -0.195 F 
HETATM   29  F   UNL     1     -19.932 -12.073  -0.635  1.00  0.00    -0.195 F 
HETATM   30  F   UNL     1     -22.111 -11.543   0.932  1.00  0.00    -0.192 F 
HETATM   31  F   UNL     1     -20.570 -10.011   0.944  1.00  0.00    -0.192 F 
HETATM   32  F   UNL     1     -23.582 -10.112  -0.900  1.00  0.00    -0.192 F 
HETATM   33  F   UNL     1     -23.099  -8.964   0.880  1.00  0.00    -0.192 F 
HETATM   34  F   UNL     1     -22.788  -7.519  -1.410  1.00  0.00    -0.195 F 
HETATM   35  F   UNL     1     -20.899  -7.866  -0.401  1.00  0.00    -0.195 F 
HETATM   36  F   UNL     1     -22.329  -9.741  -3.024  1.00  0.00    -0.225 F 
HETATM   37  F   UNL     1     -19.246  -9.550  -1.351  1.00  0.00    -0.228 F 
HETATM   38  F   UNL     1     -20.669 -11.355  -4.033  1.00  0.00    -0.228 F 
ENDROOT
TORSDOF 0
BEGIN_RES ARG D 557
REMARK  4 active torsions:
REMARK  status: ('A' for Active; 'I' for Inactive)
REMARK    1  A    between atoms: CA   and  CB  
REMARK    2  A    between atoms: CB   and  CG  
REMARK    3  A    between atoms: CG   and  CD  
REMARK    4  A    between atoms: CD   and  NE  
REMARK       I    between atoms: NE   and  CZ  
REMARK       I    between atoms: CZ   and  NH1 
REMARK       I    between atoms: CZ   and  NH2 
ROOT
ATOM      1  CA  ARG D 557     -26.217   2.705 -17.014  1.00 35.49     0.159 C 
ENDROOT
BRANCH   1   2
ATOM      2  CB  ARG D 557     -26.789   1.319 -17.183  1.00 35.49     0.034 C 
BRANCH   2   3
ATOM      3  CG  ARG D 557     -25.838   0.201 -17.134  1.00 35.49     0.027 C 
BRANCH   3   4
ATOM      4  CD  ARG D 557     -24.755   0.425 -16.150  1.00 35.49     0.116 C 
BRANCH   4   5
ATOM      5  NE  ARG D 557     -24.883  -0.428 -14.998  1.00 35.49    -0.212 N 
ATOM      6  CZ  ARG D 557     -24.061  -1.397 -14.664  1.00 35.49     0.666 C 
ATOM      7  NH1 ARG D 557     -23.000  -1.707 -15.387  1.00 35.49    -0.235 N 
ATOM      8  NH2 ARG D 557     -24.320  -2.056 -13.573  1.00 35.49    -0.235 N 
ATOM      9  HH  ARG D 557     -22.809  -1.286 -16.108  1.00 35.49     0.174 HD
ATOM     10  HH  ARG D 557     -22.498  -2.348 -15.119  1.00 35.49     0.174 HD
ATOM     11  HH  ARG D 557     -25.008  -1.829 -13.122  1.00 35.49     0.174 HD
ATOM     12  HH  ARG D 557     -23.810  -2.686 -13.323  1.00 35.49     0.174 HD
ATOM     13  HE  ARG D 557     -25.579  -0.346 -14.515  1.00 35.49     0.178 HD
ENDBRANCH   4   5
ENDBRANCH   3   4
ENDBRANCH   2   3
ENDBRANCH   1   2
END_RES ARG D 557
BEGIN_RES GLU D 570
REMARK  3 active torsions:
REMARK  status: ('A' for Active; 'I' for Inactive)
REMARK    5  A    between atoms: CA   and  CB  
REMARK    6  A    between atoms: CB   and  CG  
REMARK    7  A    between atoms: CG   and  CD  
ROOT
ATOM     14  CA  GLU D 570     -18.033  -6.348 -13.375  1.00 32.92     0.160 C 
ENDROOT
BRANCH  14  15
ATOM     15  CB  GLU D 570     -19.500  -6.345 -13.794  1.00 32.92     0.043 C 
BRANCH  15  16
ATOM     16  CG  GLU D 570     -20.446  -5.552 -12.967  1.00 32.92     0.100 C 
BRANCH  16  17
ATOM     17  CD  GLU D 570     -21.737  -5.237 -13.687  1.00 32.92     0.185 C 
ATOM     18  OE1 GLU D 570     -22.251  -4.112 -13.542  1.00 32.92    -0.647 OA
ATOM     19  OE2 GLU D 570     -22.247  -6.131 -14.391  1.00 32.92    -0.647 OA
ENDBRANCH  16  17
ENDBRANCH  15  16
ENDBRANCH  14  15
END_RES GLU D 570
ENDMDL
MODEL 3
REMARK VINA RESULT:      -9.9      1.799      5.212
REMARK  0 active torsions:
REMARK  status: ('A' for Active; 'I' for Inactive)
ROOT
HETATM    1  C   UNL     1     -19.635 -10.825  -3.356  1.00  0.00     0.268 C 
HETATM    2  C   UNL     1     -20.238 -10.225  -2.042  1.00  0.00     0.268 C 
HETATM    3  C   UNL     1     -21.295  -9.155  -2.387  1.00  0.00     0.291 C 
HETATM    4  C   UNL     1     -20.723  -8.074  -3.288  1.00  0.00     0.356 C 
HETATM    5  C   UNL     1     -20.139  -8.675  -4.560  1.00  0.00     0.356 C 
HETATM    6  C   UNL     1     -19.055  -9.688  -4.222  1.00  0.00     0.291 C 
HETATM    7  C   UNL     1     -18.413 -10.208  -5.501  1.00  0.00     0.359 C 
HETATM    8  C   UNL     1     -17.310 -11.204  -5.187  1.00  0.00     0.381 C 
HETATM    9  C   UNL     1     -17.900 -12.370  -4.430  1.00  0.00     0.381 C 
HETATM   10  C   UNL     1     -18.556 -11.894  -3.138  1.00  0.00     0.356 C 
HETATM   11  F   UNL     1     -17.619 -11.399  -2.295  1.00  0.00    -0.195 F 
HETATM   12  F   UNL     1     -19.101 -12.973  -2.522  1.00  0.00    -0.195 F 
HETATM   13  F   UNL     1     -18.824 -13.007  -5.198  1.00  0.00    -0.192 F 
HETATM   14  F   UNL     1     -16.939 -13.293  -4.153  1.00  0.00    -0.192 F 
HETATM   15  F   UNL     1     -16.716 -11.628  -6.332  1.00  0.00    -0.192 F 
HETATM   16  F   UNL     1     -16.336 -10.608  -4.451  1.00  0.00    -0.192 F 
HETATM   17  F   UNL     1     -19.355 -10.785  -6.285  1.00  0.00    -0.195 F 
HETATM   18  F   UNL     1     -17.899  -9.174  -6.218  1.00  0.00    -0.195 F 
HETATM   19  F   UNL     1     -18.086  -9.066  -3.489  1.00  0.00    -0.225 F 
HETATM   20  F   UNL     1     -21.121  -9.276  -5.277  1.00  0.00    -0.195 F 
HETATM   21  F   UNL     1     -19.645  -7.688  -5.345  1.00  0.00    -0.195 F 
HETATM   22  F   UNL     1     -21.686  -7.174  -3.612  1.00  0.00    -0.195 F 
HETATM   23  F   UNL     1     -19.763  -7.383  -2.625  1.00  0.00    -0.195 F 
HETATM   24  C   UNL     1     -21.869  -8.525  -1.123  1.00  0.00     0.359 C 
HETATM   25  C   UNL     1     -22.541  -9.577  -0.258  1.00  0.00     0.381 C 
HETATM   26  C   UNL     1     -21.526 -10.623   0.137  1.00  0.00     0.381 C 
HETATM   27  C   UNL     1     -20.874 -11.252  -1.090  1.00  0.00     0.356 C 
HETATM   28  F   UNL     1     -21.782 -11.980  -1.783  1.00  0.00    -0.195 F 
HETATM   29  F   UNL     1     -19.927 -12.122  -0.659  1.00  0.00    -0.195 F 
HETATM   30  F   UNL     1     -22.111 -11.585   0.900  1.00  0.00    -0.192 F 
HETATM   31  F   UNL     1     -20.564 -10.059   0.919  1.00  0.00    -0.192 F 
HETATM   32  F   UNL     1     -23.569 -10.148  -0.937  1.00  0.00    -0.192 F 
HETATM   33  F   UNL     1     -23.089  -9.003   0.845  1.00  0.00    -0.192 F 
HETATM   34  F   UNL     1     -22.764  -7.558  -1.443  1.00  0.00    -0.195 F 
HETATM   35  F   UNL     1     -20.880  -7.912  -0.427  1.00  0.00    -0.195 F 
HETATM   36  F   UNL     1     -22.307  -9.781  -3.057  1.00  0.00    -0.225 F 
HETATM   37  F   UNL     1     -19.230  -9.601  -1.371  1.00  0.00    -0.228 F 
HETATM   38  F   UNL     1     -20.648 -11.401  -4.059  1.00  0.00    -0.228 F 
ENDROOT
TORSDOF 0
BEGIN_RES ARG D 557
REMARK  4 active torsions:
REMARK  status: ('A' for Active; 'I' for Inactive)
REMARK    1  A    between atoms: CA   and  CB  
REMARK    2  A    between atoms: CB   and  CG  
REMARK    3  A    between atoms: CG   and  CD  
REMARK    4  A    between atoms: CD   and  NE  
REMARK       I    between atoms: NE   and  CZ  
REMARK       I    between atoms: CZ   and  NH1 
REMARK       I    between atoms: CZ   and  NH2 
ROOT
ATOM      1  CA  ARG D 557     -26.217   2.705 -17.014  1.00 35.49     0.159 C 
ENDROOT
BRANCH   1   2
ATOM      2  CB  ARG D 557     -26.789   1.319 -17.183  1.00 35.49     0.034 C 
BRANCH   2   3
ATOM      3  CG  ARG D 557     -28.232   1.226 -17.438  1.00 35.49     0.027 C 
BRANCH   3   4
ATOM      4  CD  ARG D 557     -28.912   0.302 -16.502  1.00 35.49     0.116 C 
BRANCH   4   5
ATOM      5  NE  ARG D 557     -29.293  -0.931 -17.139  1.00 35.49    -0.212 N 
ATOM      6  CZ  ARG D 557     -28.662  -2.078 -17.032  1.00 35.49     0.666 C 
ATOM      7  NH1 ARG D 557     -27.563  -2.219 -16.314  1.00 35.49    -0.235 N 
ATOM      8  NH2 ARG D 557     -29.162  -3.101 -17.663  1.00 35.49    -0.235 N 
ATOM      9  HH  ARG D 557     -27.217  -1.560 -15.889  1.00 35.49     0.174 HD
ATOM     10  HH  ARG D 557     -27.195  -2.992 -16.279  1.00 35.49     0.174 HD
ATOM     11  HH  ARG D 557     -29.877  -2.982 -18.113  1.00 35.49     0.174 HD
ATOM     12  HH  ARG D 557     -28.785  -3.858 -17.615  1.00 35.49     0.174 HD
ATOM     13  HE  ARG D 557     -29.950  -0.915 -17.680  1.00 35.49     0.178 HD
ENDBRANCH   4   5
ENDBRANCH   3   4
ENDBRANCH   2   3
ENDBRANCH   1   2
END_RES ARG D 557
BEGIN_RES GLU D 570
REMARK  3 active torsions:
REMARK  status: ('A' for Active; 'I' for Inactive)
REMARK    5  A    between atoms: CA   and  CB  
REMARK    6  A    between atoms: CB   and  CG  
REMARK    7  A    between atoms: CG   and  CD  
ROOT
ATOM     14  CA  GLU D 570     -18.033  -6.348 -13.375  1.00 32.92     0.160 C 
ENDROOT
BRANCH  14  15
ATOM     15  CB  GLU D 570     -19.500  -6.345 -13.794  1.00 32.92     0.043 C 
BRANCH  15  16
ATOM     16  CG  GLU D 570     -20.441  -5.526 -12.987  1.00 32.92     0.100 C 
BRANCH  16  17
ATOM     17  CD  GLU D 570     -21.740  -5.242 -13.704  1.00 32.92     0.185 C 
ATOM     18  OE1 GLU D 570     -22.318  -4.157 -13.502  1.00 32.92    -0.647 OA
ATOM     19  OE2 GLU D 570     -22.193  -6.122 -14.462  1.00 32.92    -0.647 OA
ENDBRANCH  16  17
ENDBRANCH  15  16
ENDBRANCH  14  15
END_RES GLU D 570
ENDMDL
MODEL 4
REMARK VINA RESULT:      -9.6      1.665      2.998
REMARK  0 active torsions:
REMARK  status: ('A' for Active; 'I' for Inactive)
ROOT
HETATM    1  C   UNL     1     -21.427 -11.556  -2.543  1.00  0.00     0.268 C 
HETATM    2  C   UNL     1     -21.690 -11.939  -4.037  1.00  0.00     0.268 C 
HETATM    3  C   UNL     1     -20.437 -11.642  -4.887  1.00  0.00     0.291 C 
HETATM    4  C   UNL     1     -19.997 -10.194  -4.747  1.00  0.00     0.356 C 
HETATM    5  C   UNL     1     -19.748  -9.838  -3.286  1.00  0.00     0.356 C 
HETATM    6  C   UNL     1     -21.001 -10.076  -2.458  1.00  0.00     0.291 C 
HETATM    7  C   UNL     1     -20.768  -9.625  -1.022  1.00  0.00     0.359 C 
HETATM    8  C   UNL     1     -22.016  -9.830  -0.181  1.00  0.00     0.381 C 
HETATM    9  C   UNL     1     -22.372 -11.298  -0.178  1.00  0.00     0.381 C 
HETATM   10  C   UNL     1     -22.614 -11.794  -1.599  1.00  0.00     0.356 C 
HETATM   11  F   UNL     1     -23.710 -11.195  -2.122  1.00  0.00    -0.195 F 
HETATM   12  F   UNL     1     -22.889 -13.121  -1.539  1.00  0.00    -0.195 F 
HETATM   13  F   UNL     1     -21.369 -12.020   0.389  1.00  0.00    -0.192 F 
HETATM   14  F   UNL     1     -23.474 -11.519   0.588  1.00  0.00    -0.192 F 
HETATM   15  F   UNL     1     -21.812  -9.385   1.086  1.00  0.00    -0.192 F 
HETATM   16  F   UNL     1     -23.044  -9.097  -0.681  1.00  0.00    -0.192 F 
HETATM   17  F   UNL     1     -19.727 -10.308  -0.490  1.00  0.00    -0.195 F 
HETATM   18  F   UNL     1     -20.417  -8.312  -0.998  1.00  0.00    -0.195 F 
HETATM   19  F   UNL     1     -22.017  -9.325  -2.974  1.00  0.00    -0.225 F 
HETATM   20  F   UNL     1     -18.726 -10.587  -2.799  1.00  0.00    -0.195 F 
HETATM   21  F   UNL     1     -19.349  -8.547  -3.193  1.00  0.00    -0.195 F 
HETATM   22  F   UNL     1     -18.868  -9.975  -5.466  1.00  0.00    -0.195 F 
HETATM   23  F   UNL     1     -20.944  -9.373  -5.262  1.00  0.00    -0.195 F 
HETATM   24  C   UNL     1     -20.682 -11.968  -6.356  1.00  0.00     0.359 C 
HETATM   25  C   UNL     1     -21.019 -13.438  -6.529  1.00  0.00     0.381 C 
HETATM   26  C   UNL     1     -22.269 -13.760  -5.744  1.00  0.00     0.381 C 
HETATM   27  C   UNL     1     -22.104 -13.402  -4.270  1.00  0.00     0.356 C 
HETATM   28  F   UNL     1     -21.184 -14.210  -3.691  1.00  0.00    -0.195 F 
HETATM   29  F   UNL     1     -23.283 -13.648  -3.647  1.00  0.00    -0.195 F 
HETATM   30  F   UNL     1     -22.581 -15.078  -5.872  1.00  0.00    -0.192 F 
HETATM   31  F   UNL     1     -23.326 -13.074  -6.259  1.00  0.00    -0.192 F 
HETATM   32  F   UNL     1     -19.983 -14.205  -6.104  1.00  0.00    -0.192 F 
HETATM   33  F   UNL     1     -21.193 -13.732  -7.844  1.00  0.00    -0.192 F 
HETATM   34  F   UNL     1     -19.587 -11.660  -7.095  1.00  0.00    -0.195 F 
HETATM   35  F   UNL     1     -21.690 -11.198  -6.834  1.00  0.00    -0.195 F 
HETATM   36  F   UNL     1     -19.432 -12.442  -4.427  1.00  0.00    -0.225 F 
HETATM   37  F   UNL     1     -22.694 -11.142  -4.498  1.00  0.00    -0.228 F 
HETATM   38  F   UNL     1     -20.386 -12.309  -2.092  1.00  0.00    -0.228 F 
ENDROOT
TORSDOF 0
BEGIN_RES ARG D 557
REMARK  4 active torsions:
REMARK  status: ('A' for Active; 'I' for Inactive)
REMARK    1  A    between atoms: CA   and  CB  
REMARK    2  A    between atoms: CB   and  CG  
REMARK    3  A    between atoms: CG   and  CD  
REMARK    4  A    between atoms: CD   and  NE  
REMARK       I    between atoms: NE   and  CZ  
REMARK       I    between atoms: CZ   and  NH1 
REMARK       I    between atoms: CZ   and  NH2 
ROOT
ATOM      1  CA  ARG D 557     -26.217   2.705 -17.014  1.00 35.49     0.159 C 
ENDROOT
BRANCH   1   2
ATOM      2  CB  ARG D 557     -26.789   1.319 -17.183  1.00 35.49     0.034 C 
BRANCH   2   3
ATOM      3  CG  ARG D 557     -25.837   0.202 -17.145  1.00 35.49     0.027 C 
BRANCH   3   4
ATOM      4  CD  ARG D 557     -24.756   0.416 -16.156  1.00 35.49     0.116 C 
BRANCH   4   5
ATOM      5  NE  ARG D 557     -24.897  -0.438 -15.006  1.00 35.49    -0.212 N 
ATOM      6  CZ  ARG D 557     -24.079  -1.409 -14.665  1.00 35.49     0.666 C 
ATOM      7  NH1 ARG D 557     -23.011  -1.719 -15.377  1.00 35.49    -0.235 N 
ATOM      8  NH2 ARG D 557     -24.350  -2.068 -13.576  1.00 35.49    -0.235 N 
ATOM      9  HH  ARG D 557     -22.812  -1.297 -16.096  1.00 35.49     0.174 HD
ATOM     10  HH  ARG D 557     -22.512  -2.360 -15.104  1.00 35.49     0.174 HD
ATOM     11  HH  ARG D 557     -25.042  -1.840 -13.132  1.00 35.49     0.174 HD
ATOM     12  HH  ARG D 557     -23.843  -2.698 -13.322  1.00 35.49     0.174 HD
ATOM     13  HE  ARG D 557     -25.597  -0.356 -14.530  1.00 35.49     0.178 HD
ENDBRANCH   4   5
ENDBRANCH   3   4
ENDBRANCH   2   3
ENDBRANCH   1   2
END_RES ARG D 557
BEGIN_RES GLU D 570
REMARK  3 active torsions:
REMARK  status: ('A' for Active; 'I' for Inactive)
REMARK    5  A    between atoms: CA   and  CB  
REMARK    6  A    between atoms: CB   and  CG  
REMARK    7  A    between atoms: CG   and  CD  
ROOT
ATOM     14  CA  GLU D 570     -18.033  -6.348 -13.375  1.00 32.92     0.160 C 
ENDROOT
BRANCH  14  15
ATOM     15  CB  GLU D 570     -19.500  -6.345 -13.794  1.00 32.92     0.043 C 
BRANCH  15  16
ATOM     16  CG  GLU D 570     -20.444  -5.540 -12.976  1.00 32.92     0.100 C 
BRANCH  16  17
ATOM     17  CD  GLU D 570     -21.734  -5.231 -13.699  1.00 32.92     0.185 C 
ATOM     18  OE1 GLU D 570     -22.282  -4.127 -13.514  1.00 32.92    -0.647 OA
ATOM     19  OE2 GLU D 570     -22.211  -6.109 -14.445  1.00 32.92    -0.647 OA
ENDBRANCH  16  17
ENDBRANCH  15  16
ENDBRANCH  14  15
END_RES GLU D 570
ENDMDL
MODEL 5
REMARK VINA RESULT:      -9.6      1.417      2.201
REMARK  0 active torsions:
REMARK  status: ('A' for Active; 'I' for Inactive)
ROOT
HETATM    1  C   UNL     1     -19.252 -10.986  -2.239  1.00  0.00     0.268 C 
HETATM    2  C   UNL     1     -18.414 -11.214  -3.541  1.00  0.00     0.268 C 
HETATM    3  C   UNL     1     -18.418  -9.934  -4.403  1.00  0.00     0.291 C 
HETATM    4  C   UNL     1     -19.833  -9.476  -4.717  1.00  0.00     0.356 C 
HETATM    5  C   UNL     1     -20.634  -9.261  -3.439  1.00  0.00     0.356 C 
HETATM    6  C   UNL     1     -20.679 -10.540  -2.616  1.00  0.00     0.291 C 
HETATM    7  C   UNL     1     -21.562 -10.340  -1.393  1.00  0.00     0.359 C 
HETATM    8  C   UNL     1     -21.643 -11.613  -0.568  1.00  0.00     0.381 C 
HETATM    9  C   UNL     1     -20.254 -11.991  -0.109  1.00  0.00     0.381 C 
HETATM   10  C   UNL     1     -19.332 -12.202  -1.305  1.00  0.00     0.356 C 
HETATM   11  F   UNL     1     -19.740 -13.274  -2.025  1.00  0.00    -0.195 F 
HETATM   12  F   UNL     1     -18.095 -12.498  -0.835  1.00  0.00    -0.195 F 
HETATM   13  F   UNL     1     -19.745 -11.014   0.689  1.00  0.00    -0.192 F 
HETATM   14  F   UNL     1     -20.295 -13.117   0.654  1.00  0.00    -0.192 F 
HETATM   15  F   UNL     1     -22.467 -11.437   0.496  1.00  0.00    -0.192 F 
HETATM   16  F   UNL     1     -22.184 -12.616  -1.306  1.00  0.00    -0.192 F 
HETATM   17  F   UNL     1     -21.078  -9.324  -0.639  1.00  0.00    -0.195 F 
HETATM   18  F   UNL     1     -22.813  -9.970  -1.776  1.00  0.00    -0.195 F 
HETATM   19  F   UNL     1     -21.232 -11.531  -3.375  1.00  0.00    -0.225 F 
HETATM   20  F   UNL     1     -20.074  -8.265  -2.708  1.00  0.00    -0.195 F 
HETATM   21  F   UNL     1     -21.885  -8.847  -3.749  1.00  0.00    -0.195 F 
HETATM   22  F   UNL     1     -19.805  -8.325  -5.434  1.00  0.00    -0.195 F 
HETATM   23  F   UNL     1     -20.452 -10.396  -5.495  1.00  0.00    -0.195 F 
HETATM   24  C   UNL     1     -17.643 -10.143  -5.698  1.00  0.00     0.359 C 
HETATM   25  C   UNL     1     -16.196 -10.497  -5.405  1.00  0.00     0.381 C 
HETATM   26  C   UNL     1     -16.147 -11.773  -4.597  1.00  0.00     0.381 C 
HETATM   27  C   UNL     1     -16.955 -11.643  -3.309  1.00  0.00     0.356 C 
HETATM   28  F   UNL     1     -16.369 -10.751  -2.475  1.00  0.00    -0.195 F 
HETATM   29  F   UNL     1     -16.927 -12.842  -2.677  1.00  0.00    -0.195 F 
HETATM   30  F   UNL     1     -14.859 -12.101  -4.308  1.00  0.00    -0.192 F 
HETATM   31  F   UNL     1     -16.640 -12.805  -5.336  1.00  0.00    -0.192 F 
HETATM   32  F   UNL     1     -15.598  -9.485  -4.726  1.00  0.00    -0.192 F 
HETATM   33  F   UNL     1     -15.499 -10.640  -6.562  1.00  0.00    -0.192 F 
HETATM   34  F   UNL     1     -17.693  -9.024  -6.463  1.00  0.00    -0.195 F 
HETATM   35  F   UNL     1     -18.225 -11.127  -6.427  1.00  0.00    -0.195 F 
HETATM   36  F   UNL     1     -17.800  -8.953  -3.682  1.00  0.00    -0.225 F 
HETATM   37  F   UNL     1     -19.028 -12.193  -4.262  1.00  0.00    -0.228 F 
HETATM   38  F   UNL     1     -18.675  -9.969  -1.541  1.00  0.00    -0.228 F 
ENDROOT
TORSDOF 0
BEGIN_RES ARG D 557
REMARK  4 active torsions:
REMARK  status: ('A' for Active; 'I' for Inactive)
REMARK    1  A    between atoms: CA   and  CB  
REMARK    2  A    between atoms: CB   and  CG  
REMARK    3  A    between atoms: CG   and  CD  
REMARK    4  A    between atoms: CD   and  NE  
REMARK       I    between atoms: NE   and  CZ  
REMARK       I    between atoms: CZ   and  NH1 
REMARK       I    between atoms: CZ   and  NH2 
ROOT
ATOM      1  CA  ARG D 557     -26.217   2.705 -17.014  1.00 35.49     0.159 C 
ENDROOT
BRANCH   1   2
ATOM      2  CB  ARG D 557     -26.789   1.319 -17.183  1.00 35.49     0.034 C 
BRANCH   2   3
ATOM      3  CG  ARG D 557     -25.836   0.203 -17.151  1.00 35.49     0.027 C 
BRANCH   3   4
ATOM      4  CD  ARG D 557     -24.756   0.411 -16.160  1.00 35.49     0.116 C 
BRANCH   4   5
ATOM      5  NE  ARG D 557     -24.902  -0.443 -15.011  1.00 35.49    -0.212 N 
ATOM      6  CZ  ARG D 557     -24.083  -1.410 -14.663  1.00 35.49     0.666 C 
ATOM      7  NH1 ARG D 557     -23.009  -1.717 -15.368  1.00 35.49    -0.235 N 
ATOM      8  NH2 ARG D 557     -24.360  -2.070 -13.576  1.00 35.49    -0.235 N 
ATOM      9  HH  ARG D 557     -22.807  -1.295 -16.085  1.00 35.49     0.174 HD
ATOM     10  HH  ARG D 557     -22.510  -2.356 -15.091  1.00 35.49     0.174 HD
ATOM     11  HH  ARG D 557     -25.055  -1.844 -13.138  1.00 35.49     0.174 HD
ATOM     12  HH  ARG D 557     -23.852  -2.698 -13.318  1.00 35.49     0.174 HD
ATOM     13  HE  ARG D 557     -25.606  -0.362 -14.540  1.00 35.49     0.178 HD
ENDBRANCH   4   5
ENDBRANCH   3   4
ENDBRANCH   2   3
ENDBRANCH   1   2
END_RES ARG D 557
BEGIN_RES GLU D 570
REMARK  3 active torsions:
REMARK  status: ('A' for Active; 'I' for Inactive)
REMARK    5  A    between atoms: CA   and  CB  
REMARK    6  A    between atoms: CB   and  CG  
REMARK    7  A    between atoms: CG   and  CD  
ROOT
ATOM     14  CA  GLU D 570     -18.033  -6.348 -13.375  1.00 32.92     0.160 C 
ENDROOT
BRANCH  14  15
ATOM     15  CB  GLU D 570     -19.500  -6.345 -13.794  1.00 32.92     0.043 C 
BRANCH  15  16
ATOM     16  CG  GLU D 570     -20.442  -5.531 -12.983  1.00 32.92     0.100 C 
BRANCH  16  17
ATOM     17  CD  GLU D 570     -21.716  -5.194 -13.722  1.00 32.92     0.185 C 
ATOM     18  OE1 GLU D 570     -22.305  -4.128 -13.458  1.00 32.92    -0.647 OA
ATOM     19  OE2 GLU D 570     -22.139  -6.013 -14.561  1.00 32.92    -0.647 OA
ENDBRANCH  16  17
ENDBRANCH  15  16
ENDBRANCH  14  15
END_RES GLU D 570
ENDMDL
MODEL 6
REMARK VINA RESULT:      -9.6      1.151      5.129
REMARK  0 active torsions:
REMARK  status: ('A' for Active; 'I' for Inactive)
ROOT
HETATM    1  C   UNL     1     -20.555 -10.796  -3.415  1.00  0.00     0.268 C 
HETATM    2  C   UNL     1     -21.034 -11.211  -1.983  1.00  0.00     0.268 C 
HETATM    3  C   UNL     1     -22.153 -10.263  -1.506  1.00  0.00     0.291 C 
HETATM    4  C   UNL     1     -21.713  -8.810  -1.552  1.00  0.00     0.356 C 
HETATM    5  C   UNL     1     -21.248  -8.424  -2.951  1.00  0.00     0.356 C 
HETATM    6  C   UNL     1     -20.105  -9.321  -3.399  1.00  0.00     0.291 C 
HETATM    7  C   UNL     1     -19.586  -8.863  -4.756  1.00  0.00     0.359 C 
HETATM    8  C   UNL     1     -18.426  -9.730  -5.213  1.00  0.00     0.381 C 
HETATM    9  C   UNL     1     -18.897 -11.161  -5.331  1.00  0.00     0.381 C 
HETATM   10  C   UNL     1     -19.426 -11.662  -3.991  1.00  0.00     0.356 C 
HETATM   11  F   UNL     1     -18.421 -11.724  -3.086  1.00  0.00    -0.195 F 
HETATM   12  F   UNL     1     -19.870 -12.933  -4.165  1.00  0.00    -0.195 F 
HETATM   13  F   UNL     1     -19.877 -11.254  -6.269  1.00  0.00    -0.192 F 
HETATM   14  F   UNL     1     -17.885 -11.961  -5.762  1.00  0.00    -0.192 F 
HETATM   15  F   UNL     1     -17.944  -9.286  -6.402  1.00  0.00    -0.192 F 
HETATM   16  F   UNL     1     -17.399  -9.643  -4.330  1.00  0.00    -0.192 F 
HETATM   17  F   UNL     1     -20.588  -8.902  -5.667  1.00  0.00    -0.195 F 
HETATM   18  F   UNL     1     -19.183  -7.567  -4.686  1.00  0.00    -0.195 F 
HETATM   19  F   UNL     1     -19.083  -9.212  -2.501  1.00  0.00    -0.225 F 
HETATM   20  F   UNL     1     -22.283  -8.527  -3.823  1.00  0.00    -0.195 F 
HETATM   21  F   UNL     1     -20.871  -7.123  -2.963  1.00  0.00    -0.195 F 
HETATM   22  F   UNL     1     -22.732  -7.998  -1.172  1.00  0.00    -0.195 F 
HETATM   23  F   UNL     1     -20.710  -8.605  -0.664  1.00  0.00    -0.195 F 
HETATM   24  C   UNL     1     -22.610 -10.621  -0.096  1.00  0.00     0.359 C 
HETATM   25  C   UNL     1     -23.154 -12.038  -0.053  1.00  0.00     0.381 C 
HETATM   26  C   UNL     1     -22.071 -13.003  -0.473  1.00  0.00     0.381 C 
HETATM   27  C   UNL     1     -21.534 -12.660  -1.860  1.00  0.00     0.356 C 
HETATM   28  F   UNL     1     -22.487 -12.871  -2.798  1.00  0.00    -0.195 F 
HETATM   29  F   UNL     1     -20.520 -13.518  -2.138  1.00  0.00    -0.195 F 
HETATM   30  F   UNL     1     -22.542 -14.279  -0.458  1.00  0.00    -0.192 F 
HETATM   31  F   UNL     1     -21.049 -12.970   0.426  1.00  0.00    -0.192 F 
HETATM   32  F   UNL     1     -24.230 -12.147  -0.874  1.00  0.00    -0.192 F 
HETATM   33  F   UNL     1     -23.599 -12.336   1.196  1.00  0.00    -0.192 F 
HETATM   34  F   UNL     1     -23.562  -9.753   0.325  1.00  0.00    -0.195 F 
HETATM   35  F   UNL     1     -21.572 -10.494   0.767  1.00  0.00    -0.195 F 
HETATM   36  F   UNL     1     -23.211 -10.418  -2.355  1.00  0.00    -0.225 F 
HETATM   37  F   UNL     1     -19.980 -11.059  -1.134  1.00  0.00    -0.228 F 
HETATM   38  F   UNL     1     -21.619 -10.892  -4.258  1.00  0.00    -0.228 F 
ENDROOT
TORSDOF 0
BEGIN_RES ARG D 557
REMARK  4 active torsions:
REMARK  status: ('A' for Active; 'I' for Inactive)
REMARK    1  A    between atoms: CA   and  CB  
REMARK    2  A    between atoms: CB   and  CG  
REMARK    3  A    between atoms: CG   and  CD  
REMARK    4  A    between atoms: CD   and  NE  
REMARK       I    between atoms: NE   and  CZ  
REMARK       I    between atoms: CZ   and  NH1 
REMARK       I    between atoms: CZ   and  NH2 
ROOT
ATOM      1  CA  ARG D 557     -26.217   2.705 -17.014  1.00 35.49     0.159 C 
ENDROOT
BRANCH   1   2
ATOM      2  CB  ARG D 557     -26.789   1.319 -17.183  1.00 35.49     0.034 C 
BRANCH   2   3
ATOM      3  CG  ARG D 557     -28.230   1.166 -16.950  1.00 35.49     0.027 C 
BRANCH   3   4
ATOM      4  CD  ARG D 557     -28.614  -0.240 -16.690  1.00 35.49     0.116 C 
BRANCH   4   5
ATOM      5  NE  ARG D 557     -27.579  -0.966 -16.002  1.00 35.49    -0.212 N 
ATOM      6  CZ  ARG D 557     -27.379  -2.263 -16.064  1.00 35.49     0.666 C 
ATOM      7  NH1 ARG D 557     -28.146  -3.065 -16.780  1.00 35.49    -0.235 N 
ATOM      8  NH2 ARG D 557     -26.378  -2.750 -15.390  1.00 35.49    -0.235 N 
ATOM      9  HH  ARG D 557     -28.809  -2.767 -17.233  1.00 35.49     0.174 HD
ATOM     10  HH  ARG D 557     -27.966  -3.903 -16.785  1.00 35.49     0.174 HD
ATOM     11  HH  ARG D 557     -25.895  -2.207 -14.942  1.00 35.49     0.174 HD
ATOM     12  HH  ARG D 557     -26.215  -3.582 -15.409  1.00 35.49     0.174 HD
ATOM     13  HE  ARG D 557     -27.083  -0.537 -15.460  1.00 35.49     0.178 HD
ENDBRANCH   4   5
ENDBRANCH   3   4
ENDBRANCH   2   3
ENDBRANCH   1   2
END_RES ARG D 557
BEGIN_RES GLU D 570
REMARK  3 active torsions:
REMARK  status: ('A' for Active; 'I' for Inactive)
REMARK    5  A    between atoms: CA   and  CB  
REMARK    6  A    between atoms: CB   and  CG  
REMARK    7  A    between atoms: CG   and  CD  
ROOT
ATOM     14  CA  GLU D 570     -18.033  -6.348 -13.375  1.00 32.92     0.160 C 
ENDROOT
BRANCH  14  15
ATOM     15  CB  GLU D 570     -19.500  -6.345 -13.794  1.00 32.92     0.043 C 
BRANCH  15  16
ATOM     16  CG  GLU D 570     -20.441  -5.528 -12.985  1.00 32.92     0.100 C 
BRANCH  16  17
ATOM     17  CD  GLU D 570     -21.731  -5.224 -13.711  1.00 32.92     0.185 C 
ATOM     18  OE1 GLU D 570     -22.163  -6.041 -14.546  1.00 32.92    -0.647 OA
ATOM     19  OE2 GLU D 570     -22.306  -4.148 -13.454  1.00 32.92    -0.647 OA
ENDBRANCH  16  17
ENDBRANCH  15  16
ENDBRANCH  14  15
END_RES GLU D 570
ENDMDL
MODEL 7
REMARK VINA RESULT:      -9.5      1.249      3.412
REMARK  0 active torsions:
REMARK  status: ('A' for Active; 'I' for Inactive)
ROOT
HETATM    1  C   UNL     1     -20.844 -10.542  -2.529  1.00  0.00     0.268 C 
HETATM    2  C   UNL     1     -19.509 -11.009  -3.200  1.00  0.00     0.268 C 
HETATM    3  C   UNL     1     -19.811 -11.726  -4.532  1.00  0.00     0.291 C 
HETATM    4  C   UNL     1     -20.777 -12.882  -4.338  1.00  0.00     0.356 C 
HETATM    5  C   UNL     1     -22.069 -12.411  -3.682  1.00  0.00     0.356 C 
HETATM    6  C   UNL     1     -21.777 -11.756  -2.341  1.00  0.00     0.291 C 
HETATM    7  C   UNL     1     -23.082 -11.378  -1.653  1.00  0.00     0.359 C 
HETATM    8  C   UNL     1     -22.816 -10.743  -0.299  1.00  0.00     0.381 C 
HETATM    9  C   UNL     1     -21.990  -9.493  -0.495  1.00  0.00     0.381 C 
HETATM   10  C   UNL     1     -20.670  -9.825  -1.183  1.00  0.00     0.356 C 
HETATM   11  F   UNL     1     -19.905 -10.598  -0.376  1.00  0.00    -0.195 F 
HETATM   12  F   UNL     1     -19.990  -8.666  -1.367  1.00  0.00    -0.195 F 
HETATM   13  F   UNL     1     -22.678  -8.592  -1.245  1.00  0.00    -0.192 F 
HETATM   14  F   UNL     1     -21.754  -8.887   0.700  1.00  0.00    -0.192 F 
HETATM   15  F   UNL     1     -23.987 -10.450   0.324  1.00  0.00    -0.192 F 
HETATM   16  F   UNL     1     -22.164 -11.618   0.509  1.00  0.00    -0.192 F 
HETATM   17  F   UNL     1     -23.785 -10.528  -2.439  1.00  0.00    -0.195 F 
HETATM   18  F   UNL     1     -23.859 -12.481  -1.490  1.00  0.00    -0.195 F 
HETATM   19  F   UNL     1     -21.128 -12.654  -1.545  1.00  0.00    -0.225 F 
HETATM   20  F   UNL     1     -22.702 -11.530  -4.496  1.00  0.00    -0.195 F 
HETATM   21  F   UNL     1     -22.912 -13.461  -3.530  1.00  0.00    -0.195 F 
HETATM   22  F   UNL     1     -21.060 -13.464  -5.531  1.00  0.00    -0.195 F 
HETATM   23  F   UNL     1     -20.199 -13.841  -3.574  1.00  0.00    -0.195 F 
HETATM   24  C   UNL     1     -18.529 -12.227  -5.187  1.00  0.00     0.359 C 
HETATM   25  C   UNL     1     -17.593 -11.070  -5.487  1.00  0.00     0.381 C 
HETATM   26  C   UNL     1     -17.238 -10.366  -4.199  1.00  0.00     0.381 C 
HETATM   27  C   UNL     1     -18.490  -9.889  -3.467  1.00  0.00     0.356 C 
HETATM   28  F   UNL     1     -19.100  -8.907  -4.173  1.00  0.00    -0.195 F 
HETATM   29  F   UNL     1     -18.100  -9.336  -2.291  1.00  0.00    -0.195 F 
HETATM   30  F   UNL     1     -16.413  -9.314  -4.446  1.00  0.00    -0.192 F 
HETATM   31  F   UNL     1     -16.539 -11.209  -3.390  1.00  0.00    -0.192 F 
HETATM   32  F   UNL     1     -18.185 -10.206  -6.351  1.00  0.00    -0.192 F 
HETATM   33  F   UNL     1     -16.471 -11.517  -6.110  1.00  0.00    -0.192 F 
HETATM   34  F   UNL     1     -18.814 -12.893  -6.334  1.00  0.00    -0.195 F 
HETATM   35  F   UNL     1     -17.918 -13.122  -4.371  1.00  0.00    -0.195 F 
HETATM   36  F   UNL     1     -20.394 -10.815  -5.365  1.00  0.00    -0.225 F 
HETATM   37  F   UNL     1     -18.924 -11.917  -2.370  1.00  0.00    -0.228 F 
HETATM   38  F   UNL     1     -21.462  -9.677  -3.378  1.00  0.00    -0.228 F 
ENDROOT
TORSDOF 0
BEGIN_RES ARG D 557
REMARK  4 active torsions:
REMARK  status: ('A' for Active; 'I' for Inactive)
REMARK    1  A    between atoms: CA   and  CB  
REMARK    2  A    between atoms: CB   and  CG  
REMARK    3  A    between atoms: CG   and  CD  
REMARK    4  A    between atoms: CD   and  NE  
REMARK       I    between atoms: NE   and  CZ  
REMARK       I    between atoms: CZ   and  NH1 
REMARK       I    between atoms: CZ   and  NH2 
ROOT
ATOM      1  CA  ARG D 557     -26.217   2.705 -17.014  1.00 35.49     0.159 C 
ENDROOT
BRANCH   1   2
ATOM      2  CB  ARG D 557     -26.789   1.319 -17.183  1.00 35.49     0.034 C 
BRANCH   2   3
ATOM      3  CG  ARG D 557     -25.837   0.202 -17.148  1.00 35.49     0.027 C 
BRANCH   3   4
ATOM      4  CD  ARG D 557     -24.762   0.409 -16.151  1.00 35.49     0.116 C 
BRANCH   4   5
ATOM      5  NE  ARG D 557     -24.911  -0.451 -15.006  1.00 35.49    -0.212 N 
ATOM      6  CZ  ARG D 557     -24.092  -1.418 -14.659  1.00 35.49     0.666 C 
ATOM      7  NH1 ARG D 557     -23.014  -1.719 -15.360  1.00 35.49    -0.235 N 
ATOM      8  NH2 ARG D 557     -24.372  -2.084 -13.577  1.00 35.49    -0.235 N 
ATOM      9  HH  ARG D 557     -22.809  -1.293 -16.074  1.00 35.49     0.174 HD
ATOM     10  HH  ARG D 557     -22.514  -2.358 -15.084  1.00 35.49     0.174 HD
ATOM     11  HH  ARG D 557     -25.071  -1.862 -13.141  1.00 35.49     0.174 HD
ATOM     12  HH  ARG D 557     -23.865  -2.712 -13.319  1.00 35.49     0.174 HD
ATOM     13  HE  ARG D 557     -25.618  -0.375 -14.539  1.00 35.49     0.178 HD
ENDBRANCH   4   5
ENDBRANCH   3   4
ENDBRANCH   2   3
ENDBRANCH   1   2
END_RES ARG D 557
BEGIN_RES GLU D 570
REMARK  3 active torsions:
REMARK  status: ('A' for Active; 'I' for Inactive)
REMARK    5  A    between atoms: CA   and  CB  
REMARK    6  A    between atoms: CB   and  CG  
REMARK    7  A    between atoms: CG   and  CD  
ROOT
ATOM     14  CA  GLU D 570     -18.033  -6.348 -13.375  1.00 32.92     0.160 C 
ENDROOT
BRANCH  14  15
ATOM     15  CB  GLU D 570     -19.500  -6.345 -13.794  1.00 32.92     0.043 C 
BRANCH  15  16
ATOM     16  CG  GLU D 570     -20.440  -5.524 -12.988  1.00 32.92     0.100 C 
BRANCH  16  17
ATOM     17  CD  GLU D 570     -21.700  -5.161 -13.740  1.00 32.92     0.185 C 
ATOM     18  OE1 GLU D 570     -22.080  -5.895 -14.672  1.00 32.92    -0.647 OA
ATOM     19  OE2 GLU D 570     -22.302  -4.123 -13.405  1.00 32.92    -0.647 OA
ENDBRANCH  16  17
ENDBRANCH  15  16
ENDBRANCH  14  15
END_RES GLU D 570
ENDMDL
MODEL 8
REMARK VINA RESULT:      -9.4      2.272      5.160
REMARK  0 active torsions:
REMARK  status: ('A' for Active; 'I' for Inactive)
ROOT
HETATM    1  C   UNL     1     -21.754 -11.895  -4.034  1.00  0.00     0.268 C 
HETATM    2  C   UNL     1     -21.480 -11.497  -2.545  1.00  0.00     0.268 C 
HETATM    3  C   UNL     1     -21.101 -10.005  -2.458  1.00  0.00     0.291 C 
HETATM    4  C   UNL     1     -19.920  -9.675  -3.354  1.00  0.00     0.356 C 
HETATM    5  C   UNL     1     -20.202 -10.070  -4.798  1.00  0.00     0.356 C 
HETATM    6  C   UNL     1     -20.519 -11.555  -4.892  1.00  0.00     0.291 C 
HETATM    7  C   UNL     1     -20.703 -11.955  -6.350  1.00  0.00     0.359 C 
HETATM    8  C   UNL     1     -20.997 -13.440  -6.471  1.00  0.00     0.381 C 
HETATM    9  C   UNL     1     -22.268 -13.754  -5.716  1.00  0.00     0.381 C 
HETATM   10  C   UNL     1     -22.128 -13.368  -4.248  1.00  0.00     0.356 C 
HETATM   11  F   UNL     1     -21.194 -14.144  -3.648  1.00  0.00    -0.195 F 
HETATM   12  F   UNL     1     -23.307 -13.634  -3.630  1.00  0.00    -0.195 F 
HETATM   13  F   UNL     1     -23.314 -13.080  -6.264  1.00  0.00    -0.192 F 
HETATM   14  F   UNL     1     -22.572 -15.076  -5.825  1.00  0.00    -0.192 F 
HETATM   15  F   UNL     1     -21.116 -13.795  -7.776  1.00  0.00    -0.192 F 
HETATM   16  F   UNL     1     -19.962 -14.165  -5.973  1.00  0.00    -0.192 F 
HETATM   17  F   UNL     1     -21.708 -11.233  -6.900  1.00  0.00    -0.195 F 
HETATM   18  F   UNL     1     -19.583 -11.656  -7.060  1.00  0.00    -0.195 F 
HETATM   19  F   UNL     1     -19.464 -12.262  -4.394  1.00  0.00    -0.225 F 
HETATM   20  F   UNL     1     -21.245  -9.346  -5.276  1.00  0.00    -0.195 F 
HETATM   21  F   UNL     1     -19.136  -9.757  -5.573  1.00  0.00    -0.195 F 
HETATM   22  F   UNL     1     -19.639  -8.349  -3.293  1.00  0.00    -0.195 F 
HETATM   23  F   UNL     1     -18.813 -10.320  -2.911  1.00  0.00    -0.195 F 
HETATM   24  C   UNL     1     -20.789  -9.602  -1.021  1.00  0.00     0.359 C 
HETATM   25  C   UNL     1     -21.997  -9.824  -0.128  1.00  0.00     0.381 C 
HETATM   26  C   UNL     1     -22.374 -11.286  -0.152  1.00  0.00     0.381 C 
HETATM   27  C   UNL     1     -22.645 -11.764  -1.576  1.00  0.00     0.356 C 
HETATM   28  F   UNL     1     -23.760 -11.170  -2.066  1.00  0.00    -0.195 F 
HETATM   29  F   UNL     1     -22.904 -13.094  -1.527  1.00  0.00    -0.195 F 
HETATM   30  F   UNL     1     -23.466 -11.506   0.629  1.00  0.00    -0.192 F 
HETATM   31  F   UNL     1     -21.371 -12.031   0.389  1.00  0.00    -0.192 F 
HETATM   32  F   UNL     1     -23.036  -9.060  -0.554  1.00  0.00    -0.192 F 
HETATM   33  F   UNL     1     -21.727  -9.423   1.142  1.00  0.00    -0.192 F 
HETATM   34  F   UNL     1     -20.415  -8.299  -0.967  1.00  0.00    -0.195 F 
HETATM   35  F   UNL     1     -19.733 -10.318  -0.564  1.00  0.00    -0.195 F 
HETATM   36  F   UNL     1     -22.178  -9.283  -2.885  1.00  0.00    -0.225 F 
HETATM   37  F   UNL     1     -20.407 -12.218  -2.115  1.00  0.00    -0.228 F 
HETATM   38  F   UNL     1     -22.791 -11.138  -4.487  1.00  0.00    -0.228 F 
ENDROOT
TORSDOF 0
BEGIN_RES ARG D 557
REMARK  4 active torsions:
REMARK  status: ('A' for Active; 'I' for Inactive)
REMARK    1  A    between atoms: CA   and  CB  
REMARK    2  A    between atoms: CB   and  CG  
REMARK    3  A    between atoms: CG   and  CD  
REMARK    4  A    between atoms: CD   and  NE  
REMARK       I    between atoms: NE   and  CZ  
REMARK       I    between atoms: CZ   and  NH1 
REMARK       I    between atoms: CZ   and  NH2 
ROOT
ATOM      1  CA  ARG D 557     -26.217   2.705 -17.014  1.00 35.49     0.159 C 
ENDROOT
BRANCH   1   2
ATOM      2  CB  ARG D 557     -26.789   1.319 -17.183  1.00 35.49     0.034 C 
BRANCH   2   3
ATOM      3  CG  ARG D 557     -28.236   1.225 -17.413  1.00 35.49     0.027 C 
BRANCH   3   4
ATOM      4  CD  ARG D 557     -28.896   0.288 -16.476  1.00 35.49     0.116 C 
BRANCH   4   5
ATOM      5  NE  ARG D 557     -29.294  -0.935 -17.122  1.00 35.49    -0.212 N 
ATOM      6  CZ  ARG D 557     -28.669  -2.088 -17.036  1.00 35.49     0.666 C 
ATOM      7  NH1 ARG D 557     -27.562  -2.243 -16.333  1.00 35.49    -0.235 N 
ATOM      8  NH2 ARG D 557     -29.185  -3.099 -17.672  1.00 35.49    -0.235 N 
ATOM      9  HH  ARG D 557     -27.207  -1.592 -15.905  1.00 35.49     0.174 HD
ATOM     10  HH  ARG D 557     -27.200  -3.020 -16.312  1.00 35.49     0.174 HD
ATOM     11  HH  ARG D 557     -29.904  -2.971 -18.112  1.00 35.49     0.174 HD
ATOM     12  HH  ARG D 557     -28.812  -3.860 -17.637  1.00 35.49     0.174 HD
ATOM     13  HE  ARG D 557     -29.957  -0.908 -17.654  1.00 35.49     0.178 HD
ENDBRANCH   4   5
ENDBRANCH   3   4
ENDBRANCH   2   3
ENDBRANCH   1   2
END_RES ARG D 557
BEGIN_RES GLU D 570
REMARK  3 active torsions:
REMARK  status: ('A' for Active; 'I' for Inactive)
REMARK    5  A    between atoms: CA   and  CB  
REMARK    6  A    between atoms: CB   and  CG  
REMARK    7  A    between atoms: CG   and  CD  
ROOT
ATOM     14  CA  GLU D 570     -18.033  -6.348 -13.375  1.00 32.92     0.160 C 
ENDROOT
BRANCH  14  15
ATOM     15  CB  GLU D 570     -19.500  -6.345 -13.794  1.00 32.92     0.043 C 
BRANCH  15  16
ATOM     16  CG  GLU D 570     -19.806  -6.030 -15.213  1.00 32.92     0.100 C 
BRANCH  16  17
ATOM     17  CD  GLU D 570     -21.142  -5.348 -15.391  1.00 32.92     0.185 C 
ATOM     18  OE1 GLU D 570     -21.527  -5.060 -16.541  1.00 32.92    -0.647 OA
ATOM     19  OE2 GLU D 570     -21.804  -5.084 -14.368  1.00 32.92    -0.647 OA
ENDBRANCH  16  17
ENDBRANCH  15  16
ENDBRANCH  14  15
END_RES GLU D 570
ENDMDL
MODEL 9
REMARK VINA RESULT:      -9.2     14.858     18.189
REMARK  0 active torsions:
REMARK  status: ('A' for Active; 'I' for Inactive)
ROOT
HETATM    1  C   UNL     1     -25.085   9.547  -1.524  1.00  0.00     0.268 C 
HETATM    2  C   UNL     1     -25.094   9.122  -3.031  1.00  0.00     0.268 C 
HETATM    3  C   UNL     1     -25.140   7.585  -3.145  1.00  0.00     0.291 C 
HETATM    4  C   UNL     1     -23.998   6.933  -2.384  1.00  0.00     0.356 C 
HETATM    5  C   UNL     1     -24.003   7.359  -0.921  1.00  0.00     0.356 C 
HETATM    6  C   UNL     1     -23.899   8.872  -0.806  1.00  0.00     0.291 C 
HETATM    7  C   UNL     1     -23.808   9.276   0.659  1.00  0.00     0.359 C 
HETATM    8  C   UNL     1     -23.678  10.783   0.798  1.00  0.00     0.381 C 
HETATM    9  C   UNL     1     -24.894  11.441   0.188  1.00  0.00     0.381 C 
HETATM   10  C   UNL     1     -25.025  11.062  -1.284  1.00  0.00     0.356 C 
HETATM   11  F   UNL     1     -23.990  11.572  -1.991  1.00  0.00    -0.195 F 
HETATM   12  F   UNL     1     -26.150  11.646  -1.768  1.00  0.00    -0.195 F 
HETATM   13  F   UNL     1     -26.015  11.060   0.855  1.00  0.00    -0.192 F 
HETATM   14  F   UNL     1     -24.819  12.793   0.317  1.00  0.00    -0.192 F 
HETATM   15  F   UNL     1     -23.553  11.129   2.105  1.00  0.00    -0.192 F 
HETATM   16  F   UNL     1     -22.548  11.216   0.181  1.00  0.00    -0.192 F 
HETATM   17  F   UNL     1     -24.902   8.837   1.325  1.00  0.00    -0.195 F 
HETATM   18  F   UNL     1     -22.737   8.675   1.242  1.00  0.00    -0.195 F 
HETATM   19  F   UNL     1     -22.755   9.282  -1.426  1.00  0.00    -0.225 F 
HETATM   20  F   UNL     1     -25.142   6.930  -0.322  1.00  0.00    -0.195 F 
HETATM   21  F   UNL     1     -22.981   6.757  -0.267  1.00  0.00    -0.195 F 
HETATM   22  F   UNL     1     -24.091   5.582  -2.464  1.00  0.00    -0.195 F 
HETATM   23  F   UNL     1     -22.815   7.268  -2.953  1.00  0.00    -0.195 F 
HETATM   24  C   UNL     1     -25.107   7.143  -4.604  1.00  0.00     0.359 C 
HETATM   25  C   UNL     1     -26.302   7.698  -5.358  1.00  0.00     0.381 C 
HETATM   26  C   UNL     1     -26.270   9.207  -5.306  1.00  0.00     0.381 C 
HETATM   27  C   UNL     1     -26.245   9.710  -3.865  1.00  0.00     0.356 C 
HETATM   28  F   UNL     1     -27.416   9.426  -3.248  1.00  0.00    -0.195 F 
HETATM   29  F   UNL     1     -26.141  11.062  -3.897  1.00  0.00    -0.195 F 
HETATM   30  F   UNL     1     -27.342   9.727  -5.962  1.00  0.00    -0.192 F 
HETATM   31  F   UNL     1     -25.170   9.668  -5.963  1.00  0.00    -0.192 F 
HETATM   32  F   UNL     1     -27.454   7.231  -4.812  1.00  0.00    -0.192 F 
HETATM   33  F   UNL     1     -26.292   7.266  -6.646  1.00  0.00    -0.192 F 
HETATM   34  F   UNL     1     -25.104   5.789  -4.687  1.00  0.00    -0.195 F 
HETATM   35  F   UNL     1     -23.955   7.561  -5.183  1.00  0.00    -0.195 F 
HETATM   36  F   UNL     1     -26.316   7.168  -2.593  1.00  0.00    -0.225 F 
HETATM   37  F   UNL     1     -23.921   9.539  -3.585  1.00  0.00    -0.228 F 
HETATM   38  F   UNL     1     -26.230   9.085  -0.950  1.00  0.00    -0.228 F 
ENDROOT
TORSDOF 0
BEGIN_RES ARG D 557
REMARK  4 active torsions:
REMARK  status: ('A' for Active; 'I' for Inactive)
REMARK    1  A    between atoms: CA   and  CB  
REMARK    2  A    between atoms: CB   and  CG  
REMARK    3  A    between atoms: CG   and  CD  
REMARK    4  A    between atoms: CD   and  NE  
REMARK       I    between atoms: NE   and  CZ  
REMARK       I    between atoms: CZ   and  NH1 
REMARK       I    between atoms: CZ   and  NH2 
ROOT
ATOM      1  CA  ARG D 557     -26.217   2.705 -17.014  1.00 35.49     0.159 C 
ENDROOT
BRANCH   1   2
ATOM      2  CB  ARG D 557     -26.789   1.319 -17.183  1.00 35.49     0.034 C 
BRANCH   2   3
ATOM      3  CG  ARG D 557     -25.866   0.195 -16.986  1.00 35.49     0.027 C 
BRANCH   3   4
ATOM      4  CD  ARG D 557     -26.283  -0.689 -15.873  1.00 35.49     0.116 C 
BRANCH   4   5
ATOM      5  NE  ARG D 557     -25.222  -0.904 -14.925  1.00 35.49    -0.212 N 
ATOM      6  CZ  ARG D 557     -24.918  -2.051 -14.359  1.00 35.49     0.666 C 
ATOM      7  NH1 ARG D 557     -25.589  -3.162 -14.603  1.00 35.49    -0.235 N 
ATOM      8  NH2 ARG D 557     -23.909  -2.066 -13.538  1.00 35.49    -0.235 N 
ATOM      9  HH  ARG D 557     -26.255  -3.175 -15.141  1.00 35.49     0.174 HD
ATOM     10  HH  ARG D 557     -25.344  -3.881 -14.207  1.00 35.49     0.174 HD
ATOM     11  HH  ARG D 557     -23.489  -1.336 -13.406  1.00 35.49     0.174 HD
ATOM     12  HH  ARG D 557     -23.680  -2.788 -13.157  1.00 35.49     0.174 HD
ATOM     13  HE  ARG D 557     -24.784  -0.227 -14.655  1.00 35.49     0.178 HD
ENDBRANCH   4   5
ENDBRANCH   3   4
ENDBRANCH   2   3
ENDBRANCH   1   2
END_RES ARG D 557
BEGIN_RES GLU D 570
REMARK  3 active torsions:
REMARK  status: ('A' for Active; 'I' for Inactive)
REMARK    5  A    between atoms: CA   and  CB  
REMARK    6  A    between atoms: CB   and  CG  
REMARK    7  A    between atoms: CG   and  CD  
ROOT
ATOM     14  CA  GLU D 570     -18.033  -6.348 -13.375  1.00 32.92     0.160 C 
ENDROOT
BRANCH  14  15
ATOM     15  CB  GLU D 570     -19.500  -6.345 -13.794  1.00 32.92     0.043 C 
BRANCH  15  16
ATOM     16  CG  GLU D 570     -20.447  -5.556 -12.964  1.00 32.92     0.100 C 
BRANCH  16  17
ATOM     17  CD  GLU D 570     -21.689  -5.143 -13.720  1.00 32.92     0.185 C 
ATOM     18  OE1 GLU D 570     -22.721  -4.864 -13.080  1.00 32.92    -0.647 OA
ATOM     19  OE2 GLU D 570     -21.634  -5.115 -14.965  1.00 32.92    -0.647 OA
ENDBRANCH  16  17
ENDBRANCH  15  16
ENDBRANCH  14  15
END_RES GLU D 570
ENDMDL
