MODEL 1
REMARK VINA RESULT:      -4.7      0.000      0.000
REMARK  5 active torsions:
REMARK  status: ('A' for Active; 'I' for Inactive)
REMARK    1  A    between atoms: C_2  and  C_3 
REMARK    2  A    between atoms: C_3  and  S_4 
REMARK    3  A    between atoms: S_4  and  S_5 
REMARK    4  A    between atoms: S_5  and  C_7 
REMARK    5  A    between atoms: C_7  and  C_8 
ROOT
HETATM    1  S   UNL     1     -35.372  -1.844 -10.888  1.00  0.00     0.081 S 
HETATM    2  O   UNL     1     -36.220  -3.079 -10.978  1.00  0.00    -0.246 OA
ENDROOT
BRANCH   1   3
HETATM    3  S   UNL     1     -35.280  -1.362 -12.856  1.00  0.00    -0.062 SA
BRANCH   3   4
HETATM    4  C   UNL     1     -35.059   0.436 -12.770  1.00  0.00     0.114 C 
BRANCH   4   5
HETATM    5  C   UNL     1     -34.733   0.965 -14.136  1.00  0.00    -0.026 C 
HETATM    6  C   UNL     1     -35.565   0.925 -15.186  1.00  0.00     0.007 C 
ENDBRANCH   4   5
ENDBRANCH   3   4
ENDBRANCH   1   3
BRANCH   1   7
HETATM    7  C   UNL     1     -33.649  -2.347 -10.561  1.00  0.00     0.147 C 
BRANCH   7   8
HETATM    8  C   UNL     1     -33.440  -3.790 -10.920  1.00  0.00    -0.024 C 
HETATM    9  C   UNL     1     -32.699  -4.216 -11.954  1.00  0.00     0.008 C 
ENDBRANCH   7   8
ENDBRANCH   1   7
TORSDOF 5
ENDMDL
MODEL 2
REMARK VINA RESULT:      -4.5     11.728     12.652
REMARK  5 active torsions:
REMARK  status: ('A' for Active; 'I' for Inactive)
REMARK    1  A    between atoms: C_2  and  C_3 
REMARK    2  A    between atoms: C_3  and  S_4 
REMARK    3  A    between atoms: S_4  and  S_5 
REMARK    4  A    between atoms: S_5  and  C_7 
REMARK    5  A    between atoms: C_7  and  C_8 
ROOT
HETATM    1  S   UNL     1     -24.103  -3.237  -9.931  1.00  0.00     0.081 S 
HETATM    2  O   UNL     1     -25.599  -3.340 -10.000  1.00  0.00    -0.246 OA
ENDROOT
BRANCH   1   3
HETATM    3  S   UNL     1     -23.617  -4.409 -11.514  1.00  0.00    -0.062 SA
BRANCH   3   4
HETATM    4  C   UNL     1     -22.408  -3.363 -12.371  1.00  0.00     0.114 C 
BRANCH   4   5
HETATM    5  C   UNL     1     -21.216  -3.148 -11.485  1.00  0.00    -0.026 C 
HETATM    6  C   UNL     1     -20.330  -4.099 -11.158  1.00  0.00     0.007 C 
ENDBRANCH   4   5
ENDBRANCH   3   4
ENDBRANCH   1   3
BRANCH   1   7
HETATM    7  C   UNL     1     -23.516  -4.257  -8.537  1.00  0.00     0.147 C 
BRANCH   7   8
HETATM    8  C   UNL     1     -22.144  -3.826  -8.104  1.00  0.00    -0.024 C 
HETATM    9  C   UNL     1     -21.555  -4.203  -6.960  1.00  0.00     0.008 C 
ENDBRANCH   7   8
ENDBRANCH   1   7
TORSDOF 5
ENDMDL
MODEL 3
REMARK VINA RESULT:      -4.5      1.416      4.730
REMARK  5 active torsions:
REMARK  status: ('A' for Active; 'I' for Inactive)
REMARK    1  A    between atoms: C_2  and  C_3 
REMARK    2  A    between atoms: C_3  and  S_4 
REMARK    3  A    between atoms: S_4  and  S_5 
REMARK    4  A    between atoms: S_5  and  C_7 
REMARK    5  A    between atoms: C_7  and  C_8 
ROOT
HETATM    1  S   UNL     1     -36.262  -0.709 -11.849  1.00  0.00     0.081 S 
HETATM    2  O   UNL     1     -35.944   0.381 -10.868  1.00  0.00    -0.246 OA
ENDROOT
BRANCH   1   3
HETATM    3  S   UNL     1     -35.583  -2.307 -10.801  1.00  0.00    -0.062 SA
BRANCH   3   4
HETATM    4  C   UNL     1     -33.789  -2.116 -10.986  1.00  0.00     0.114 C 
BRANCH   4   5
HETATM    5  C   UNL     1     -33.177  -3.443 -11.323  1.00  0.00    -0.026 C 
HETATM    6  C   UNL     1     -33.660  -4.627 -10.921  1.00  0.00     0.007 C 
ENDBRANCH   4   5
ENDBRANCH   3   4
ENDBRANCH   1   3
BRANCH   1   7
HETATM    7  C   UNL     1     -35.050  -0.634 -13.211  1.00  0.00     0.147 C 
BRANCH   7   8
HETATM    8  C   UNL     1     -34.899   0.774 -13.710  1.00  0.00    -0.024 C 
HETATM    9  C   UNL     1     -35.271   1.193 -14.928  1.00  0.00     0.008 C 
ENDBRANCH   7   8
ENDBRANCH   1   7
TORSDOF 5
ENDMDL
MODEL 4
REMARK VINA RESULT:      -4.5     11.478     13.216
REMARK  5 active torsions:
REMARK  status: ('A' for Active; 'I' for Inactive)
REMARK    1  A    between atoms: C_2  and  C_3 
REMARK    2  A    between atoms: C_3  and  S_4 
REMARK    3  A    between atoms: S_4  and  S_5 
REMARK    4  A    between atoms: S_5  and  C_7 
REMARK    5  A    between atoms: C_7  and  C_8 
ROOT
HETATM    1  S   UNL     1     -24.037  -3.901 -10.750  1.00  0.00     0.081 S 
HETATM    2  O   UNL     1     -25.234  -3.124 -10.287  1.00  0.00    -0.246 OA
ENDROOT
BRANCH   1   3
HETATM    3  S   UNL     1     -22.946  -3.880  -9.041  1.00  0.00    -0.062 SA
BRANCH   3   4
HETATM    4  C   UNL     1     -21.281  -4.210  -9.678  1.00  0.00     0.114 C 
BRANCH   4   5
HETATM    5  C   UNL     1     -20.455  -4.860  -8.608  1.00  0.00    -0.026 C 
HETATM    6  C   UNL     1     -19.441  -4.266  -7.964  1.00  0.00     0.007 C 
ENDBRANCH   4   5
ENDBRANCH   3   4
ENDBRANCH   1   3
BRANCH   1   7
HETATM    7  C   UNL     1     -23.031  -2.827 -11.830  1.00  0.00     0.147 C 
BRANCH   7   8
HETATM    8  C   UNL     1     -23.694  -2.647 -13.165  1.00  0.00    -0.024 C 
HETATM    9  C   UNL     1     -23.066  -2.754 -14.345  1.00  0.00     0.008 C 
ENDBRANCH   7   8
ENDBRANCH   1   7
TORSDOF 5
ENDMDL
MODEL 5
REMARK VINA RESULT:      -4.4      3.286      4.180
REMARK  5 active torsions:
REMARK  status: ('A' for Active; 'I' for Inactive)
REMARK    1  A    between atoms: C_2  and  C_3 
REMARK    2  A    between atoms: C_3  and  S_4 
REMARK    3  A    between atoms: S_4  and  S_5 
REMARK    4  A    between atoms: S_5  and  C_7 
REMARK    5  A    between atoms: C_7  and  C_8 
ROOT
HETATM    1  S   UNL     1     -35.850  -1.002 -12.023  1.00  0.00     0.081 S 
HETATM    2  O   UNL     1     -34.830   0.095 -12.109  1.00  0.00    -0.246 OA
ENDROOT
BRANCH   1   3
HETATM    3  S   UNL     1     -37.248  -0.066 -10.891  1.00  0.00    -0.062 SA
BRANCH   3   4
HETATM    4  C   UNL     1     -36.676  -0.468  -9.218  1.00  0.00     0.114 C 
BRANCH   4   5
HETATM    5  C   UNL     1     -37.350   0.436  -8.228  1.00  0.00    -0.026 C 
HETATM    6  C   UNL     1     -36.845   0.764  -7.031  1.00  0.00     0.007 C 
ENDBRANCH   4   5
ENDBRANCH   3   4
ENDBRANCH   1   3
BRANCH   1   7
HETATM    7  C   UNL     1     -35.240  -2.271 -10.863  1.00  0.00     0.147 C 
BRANCH   7   8
HETATM    8  C   UNL     1     -33.740  -2.325 -10.875  1.00  0.00    -0.024 C 
HETATM    9  C   UNL     1     -33.021  -3.327 -11.402  1.00  0.00     0.008 C 
ENDBRANCH   7   8
ENDBRANCH   1   7
TORSDOF 5
ENDMDL
MODEL 6
REMARK VINA RESULT:      -4.4      3.036      4.761
REMARK  5 active torsions:
REMARK  status: ('A' for Active; 'I' for Inactive)
REMARK    1  A    between atoms: C_2  and  C_3 
REMARK    2  A    between atoms: C_3  and  S_4 
REMARK    3  A    between atoms: S_4  and  S_5 
REMARK    4  A    between atoms: S_5  and  C_7 
REMARK    5  A    between atoms: C_7  and  C_8 
ROOT
HETATM    1  S   UNL     1     -36.906  -0.094 -11.215  1.00  0.00     0.081 S 
HETATM    2  O   UNL     1     -38.075  -0.811 -11.824  1.00  0.00    -0.246 OA
ENDROOT
BRANCH   1   3
HETATM    3  S   UNL     1     -35.394  -1.083 -12.137  1.00  0.00    -0.062 SA
BRANCH   3   4
HETATM    4  C   UNL     1     -34.979  -2.335 -10.892  1.00  0.00     0.114 C 
BRANCH   4   5
HETATM    5  C   UNL     1     -33.497  -2.570 -10.895  1.00  0.00    -0.026 C 
HETATM    6  C   UNL     1     -32.890  -3.585 -11.525  1.00  0.00     0.007 C 
ENDBRANCH   4   5
ENDBRANCH   3   4
ENDBRANCH   1   3
BRANCH   1   7
HETATM    7  C   UNL     1     -36.710  -0.664  -9.493  1.00  0.00     0.147 C 
BRANCH   7   8
HETATM    8  C   UNL     1     -37.285   0.337  -8.533  1.00  0.00    -0.024 C 
HETATM    9  C   UNL     1     -36.645   0.808  -7.453  1.00  0.00     0.008 C 
ENDBRANCH   7   8
ENDBRANCH   1   7
TORSDOF 5
ENDMDL
MODEL 7
REMARK VINA RESULT:      -4.1      2.459      5.325
REMARK  5 active torsions:
REMARK  status: ('A' for Active; 'I' for Inactive)
REMARK    1  A    between atoms: C_2  and  C_3 
REMARK    2  A    between atoms: C_3  and  S_4 
REMARK    3  A    between atoms: S_4  and  S_5 
REMARK    4  A    between atoms: S_5  and  C_7 
REMARK    5  A    between atoms: C_7  and  C_8 
ROOT
HETATM    1  S   UNL     1     -34.761  -2.456 -11.030  1.00  0.00     0.081 S 
HETATM    2  O   UNL     1     -33.511  -1.794 -10.528  1.00  0.00    -0.246 OA
ENDROOT
BRANCH   1   3
HETATM    3  S   UNL     1     -33.955  -3.639 -12.466  1.00  0.00    -0.062 SA
BRANCH   3   4
HETATM    4  C   UNL     1     -33.287  -5.000 -11.470  1.00  0.00     0.114 C 
BRANCH   4   5
HETATM    5  C   UNL     1     -34.342  -5.492 -10.524  1.00  0.00    -0.026 C 
HETATM    6  C   UNL     1     -34.549  -6.780 -10.220  1.00  0.00     0.007 C 
ENDBRANCH   4   5
ENDBRANCH   3   4
ENDBRANCH   1   3
BRANCH   1   7
HETATM    7  C   UNL     1     -35.689  -1.251 -12.039  1.00  0.00     0.147 C 
BRANCH   7   8
HETATM    8  C   UNL     1     -36.472  -0.316 -11.163  1.00  0.00    -0.024 C 
HETATM    9  C   UNL     1     -36.970  -0.640  -9.960  1.00  0.00     0.008 C 
ENDBRANCH   7   8
ENDBRANCH   1   7
TORSDOF 5
ENDMDL
MODEL 8
REMARK VINA RESULT:      -4.1      3.937      4.755
REMARK  5 active torsions:
REMARK  status: ('A' for Active; 'I' for Inactive)
REMARK    1  A    between atoms: C_2  and  C_3 
REMARK    2  A    between atoms: C_3  and  S_4 
REMARK    3  A    between atoms: S_4  and  S_5 
REMARK    4  A    between atoms: S_5  and  C_7 
REMARK    5  A    between atoms: C_7  and  C_8 
ROOT
HETATM    1  S   UNL     1     -36.858   0.570  -9.619  1.00  0.00     0.081 S 
HETATM    2  O   UNL     1     -38.064   0.821 -10.476  1.00  0.00    -0.246 OA
ENDROOT
BRANCH   1   3
HETATM    3  S   UNL     1     -36.209  -1.159 -10.458  1.00  0.00    -0.062 SA
BRANCH   3   4
HETATM    4  C   UNL     1     -36.303  -0.753 -12.223  1.00  0.00     0.114 C 
BRANCH   4   5
HETATM    5  C   UNL     1     -35.234   0.242 -12.565  1.00  0.00    -0.026 C 
HETATM    6  C   UNL     1     -34.924   0.628 -13.810  1.00  0.00     0.007 C 
ENDBRANCH   4   5
ENDBRANCH   3   4
ENDBRANCH   1   3
BRANCH   1   7
HETATM    7  C   UNL     1     -37.419  -0.013  -7.984  1.00  0.00     0.147 C 
BRANCH   7   8
HETATM    8  C   UNL     1     -36.872   0.859  -6.892  1.00  0.00    -0.024 C 
HETATM    9  C   UNL     1     -37.075   0.654  -5.582  1.00  0.00     0.008 C 
ENDBRANCH   7   8
ENDBRANCH   1   7
TORSDOF 5
ENDMDL
MODEL 9
REMARK VINA RESULT:      -4.1      2.908      5.791
REMARK  5 active torsions:
REMARK  status: ('A' for Active; 'I' for Inactive)
REMARK    1  A    between atoms: C_2  and  C_3 
REMARK    2  A    between atoms: C_3  and  S_4 
REMARK    3  A    between atoms: S_4  and  S_5 
REMARK    4  A    between atoms: S_5  and  C_7 
REMARK    5  A    between atoms: C_7  and  C_8 
ROOT
HETATM    1  S   UNL     1     -33.998  -3.623 -12.699  1.00  0.00     0.081 S 
HETATM    2  O   UNL     1     -34.407  -3.649 -14.142  1.00  0.00    -0.246 OA
ENDROOT
BRANCH   1   3
HETATM    3  S   UNL     1     -34.786  -5.393 -12.100  1.00  0.00    -0.062 SA
BRANCH   3   4
HETATM    4  C   UNL     1     -34.305  -5.422 -10.352  1.00  0.00     0.114 C 
BRANCH   4   5
HETATM    5  C   UNL     1     -34.775  -6.702  -9.725  1.00  0.00    -0.026 C 
HETATM    6  C   UNL     1     -34.716  -7.904 -10.316  1.00  0.00     0.007 C 
ENDBRANCH   4   5
ENDBRANCH   3   4
ENDBRANCH   1   3
BRANCH   1   7
HETATM    7  C   UNL     1     -35.067  -2.438 -11.815  1.00  0.00     0.147 C 
BRANCH   7   8
HETATM    8  C   UNL     1     -34.804  -1.035 -12.281  1.00  0.00    -0.024 C 
HETATM    9  C   UNL     1     -35.703  -0.041 -12.244  1.00  0.00     0.008 C 
ENDBRANCH   7   8
ENDBRANCH   1   7
TORSDOF 5
ENDMDL
