MODEL 1
REMARK VINA RESULT:      -8.2      0.000      0.000
REMARK  16 active torsions:
REMARK  status: ('A' for Active; 'I' for Inactive)
REMARK    1  A    between atoms: C_2  and  C_3 
REMARK    2  A    between atoms: C_3  and  C_4 
REMARK    3  A    between atoms: C_4  and  C_5 
REMARK    4  A    between atoms: C_5  and  C_6 
REMARK    5  A    between atoms: C_7  and  C_8 
REMARK    6  A    between atoms: C_8  and  C_9 
REMARK    7  A    between atoms: C_10  and  C_11 
REMARK    8  A    between atoms: C_11  and  C_12 
REMARK    9  A    between atoms: C_13  and  C_14 
REMARK   10  A    between atoms: C_15  and  C_16 
REMARK   11  A    between atoms: C_16  and  O_17 
REMARK   12  A    between atoms: C_16  and  C_18 
REMARK   13  A    between atoms: C_18  and  C_19 
REMARK   14  A    between atoms: C_19  and  C_20 
REMARK   15  A    between atoms: C_20  and  C_21 
REMARK   16  A    between atoms: C_21  and  O_23 
ROOT
HETATM    1  C   UNL     1     -20.909  -5.648  -7.456  1.00  0.00    -0.023 C 
HETATM    2  C   UNL     1     -21.415  -4.457  -7.812  1.00  0.00    -0.004 C 
ENDROOT
BRANCH   2   3
HETATM    3  C   UNL     1     -22.127  -4.249  -9.048  1.00  0.00    -0.002 C 
HETATM    4  C   UNL     1     -23.461  -4.115  -9.107  1.00  0.00     0.004 C 
BRANCH   4   5
HETATM    5  C   UNL     1     -24.203  -3.841 -10.384  1.00  0.00     0.141 C 
BRANCH   5   6
HETATM    6  O   UNL     1     -25.398  -3.136 -10.068  1.00  0.00    -0.392 OA
HETATM    7  H   UNL     1     -26.135  -3.576 -10.523  1.00  0.00     0.210 HD
ENDBRANCH   5   6
BRANCH   5   8
HETATM    8  C   UNL     1     -23.383  -2.999 -11.372  1.00  0.00     0.036 C 
BRANCH   8   9
HETATM    9  C   UNL     1     -24.086  -2.829 -12.721  1.00  0.00     0.013 C 
BRANCH   9  10
HETATM   10  C   UNL     1     -23.096  -2.705 -13.875  1.00  0.00     0.110 C 
BRANCH  10  11
HETATM   11  C   UNL     1     -23.555  -1.672 -14.881  1.00  0.00     0.139 C 
HETATM   12  O   UNL     1     -24.626  -1.088 -14.857  1.00  0.00    -0.650 OA
BRANCH  11  13
HETATM   13  O   UNL     1     -22.636  -1.447 -15.847  1.00  0.00    -0.776 OA
HETATM   14  H   UNL     1     -21.745  -1.778 -15.626  1.00  0.00     0.167 HD
ENDBRANCH  11  13
ENDBRANCH  10  11
ENDBRANCH   9  10
ENDBRANCH   8   9
ENDBRANCH   5   8
ENDBRANCH   4   5
ENDBRANCH   2   3
BRANCH   1  15
HETATM   15  C   UNL     1     -20.190  -5.888  -6.163  1.00  0.00     0.054 C 
BRANCH  15  16
HETATM   16  C   UNL     1     -21.083  -5.646  -4.982  1.00  0.00    -0.027 C 
HETATM   17  C   UNL     1     -21.229  -6.509  -3.964  1.00  0.00    -0.027 C 
BRANCH  17  18
HETATM   18  C   UNL     1     -22.152  -6.286  -2.804  1.00  0.00     0.053 C 
BRANCH  18  19
HETATM   19  C   UNL     1     -21.664  -6.997  -1.578  1.00  0.00    -0.027 C 
HETATM   20  C   UNL     1     -22.441  -7.297  -0.525  1.00  0.00    -0.030 C 
BRANCH  20  21
HETATM   21  C   UNL     1     -21.942  -7.989   0.708  1.00  0.00     0.027 C 
BRANCH  21  22
HETATM   22  C   UNL     1     -21.957  -9.507   0.534  1.00  0.00     0.004 C 
BRANCH  22  23
HETATM   23  C   UNL     1     -22.968  -9.922  -0.535  1.00  0.00    -0.000 C 
BRANCH  23  24
HETATM   24  C   UNL     1     -23.874 -11.046  -0.037  1.00  0.00    -0.005 C 
HETATM   25  C   UNL     1     -24.061 -12.115  -1.103  1.00  0.00     0.005 C 
ENDBRANCH  23  24
ENDBRANCH  22  23
ENDBRANCH  21  22
ENDBRANCH  20  21
ENDBRANCH  18  19
ENDBRANCH  17  18
ENDBRANCH  15  16
ENDBRANCH   1  15
TORSDOF 16
ENDMDL
MODEL 2
REMARK VINA RESULT:      -8.1      1.622      2.019
REMARK  16 active torsions:
REMARK  status: ('A' for Active; 'I' for Inactive)
REMARK    1  A    between atoms: C_2  and  C_3 
REMARK    2  A    between atoms: C_3  and  C_4 
REMARK    3  A    between atoms: C_4  and  C_5 
REMARK    4  A    between atoms: C_5  and  C_6 
REMARK    5  A    between atoms: C_7  and  C_8 
REMARK    6  A    between atoms: C_8  and  C_9 
REMARK    7  A    between atoms: C_10  and  C_11 
REMARK    8  A    between atoms: C_11  and  C_12 
REMARK    9  A    between atoms: C_13  and  C_14 
REMARK   10  A    between atoms: C_15  and  C_16 
REMARK   11  A    between atoms: C_16  and  O_17 
REMARK   12  A    between atoms: C_16  and  C_18 
REMARK   13  A    between atoms: C_18  and  C_19 
REMARK   14  A    between atoms: C_19  and  C_20 
REMARK   15  A    between atoms: C_20  and  C_21 
REMARK   16  A    between atoms: C_21  and  O_23 
ROOT
HETATM    1  C   UNL     1     -20.893  -6.491  -6.364  1.00  0.00    -0.023 C 
HETATM    2  C   UNL     1     -20.182  -5.518  -6.956  1.00  0.00    -0.004 C 
ENDROOT
BRANCH   2   3
HETATM    3  C   UNL     1     -20.754  -4.609  -7.918  1.00  0.00    -0.002 C 
HETATM    4  C   UNL     1     -20.434  -4.634  -9.222  1.00  0.00     0.004 C 
BRANCH   4   5
HETATM    5  C   UNL     1     -21.069  -3.728 -10.239  1.00  0.00     0.141 C 
BRANCH   5   6
HETATM    6  O   UNL     1     -20.514  -4.028 -11.515  1.00  0.00    -0.392 OA
HETATM    7  H   UNL     1     -19.763  -3.431 -11.663  1.00  0.00     0.210 HD
ENDBRANCH   5   6
BRANCH   5   8
HETATM    8  C   UNL     1     -22.592  -3.901 -10.311  1.00  0.00     0.036 C 
BRANCH   8   9
HETATM    9  C   UNL     1     -23.065  -4.358 -11.693  1.00  0.00     0.013 C 
BRANCH   9  10
HETATM   10  C   UNL     1     -24.015  -3.354 -12.339  1.00  0.00     0.110 C 
BRANCH  10  11
HETATM   11  C   UNL     1     -23.425  -2.783 -13.609  1.00  0.00     0.139 C 
HETATM   12  O   UNL     1     -23.974  -1.982 -14.348  1.00  0.00    -0.650 OA
BRANCH  11  13
HETATM   13  O   UNL     1     -22.184  -3.259 -13.862  1.00  0.00    -0.776 OA
HETATM   14  H   UNL     1     -21.536  -3.058 -13.162  1.00  0.00     0.167 HD
ENDBRANCH  11  13
ENDBRANCH  10  11
ENDBRANCH   9  10
ENDBRANCH   8   9
ENDBRANCH   5   8
ENDBRANCH   4   5
ENDBRANCH   2   3
BRANCH   1  15
HETATM   15  C   UNL     1     -20.321  -7.428  -5.342  1.00  0.00     0.054 C 
BRANCH  15  16
HETATM   16  C   UNL     1     -21.068  -7.350  -4.044  1.00  0.00    -0.027 C 
HETATM   17  C   UNL     1     -21.412  -6.199  -3.446  1.00  0.00    -0.027 C 
BRANCH  17  18
HETATM   18  C   UNL     1     -22.123  -6.121  -2.128  1.00  0.00     0.053 C 
BRANCH  18  19
HETATM   19  C   UNL     1     -21.958  -7.389  -1.345  1.00  0.00    -0.027 C 
HETATM   20  C   UNL     1     -22.151  -7.483  -0.020  1.00  0.00    -0.030 C 
BRANCH  20  21
HETATM   21  C   UNL     1     -21.962  -8.749   0.760  1.00  0.00     0.027 C 
BRANCH  21  22
HETATM   22  C   UNL     1     -22.136  -9.979  -0.131  1.00  0.00     0.004 C 
BRANCH  22  23
HETATM   23  C   UNL     1     -23.601 -10.412  -0.179  1.00  0.00    -0.000 C 
BRANCH  23  24
HETATM   24  C   UNL     1     -23.873 -11.321  -1.375  1.00  0.00    -0.005 C 
HETATM   25  C   UNL     1     -22.892 -11.051  -2.505  1.00  0.00     0.005 C 
ENDBRANCH  23  24
ENDBRANCH  22  23
ENDBRANCH  21  22
ENDBRANCH  20  21
ENDBRANCH  18  19
ENDBRANCH  17  18
ENDBRANCH  15  16
ENDBRANCH   1  15
TORSDOF 16
ENDMDL
MODEL 3
REMARK VINA RESULT:      -8.0      2.148      3.072
REMARK  16 active torsions:
REMARK  status: ('A' for Active; 'I' for Inactive)
REMARK    1  A    between atoms: C_2  and  C_3 
REMARK    2  A    between atoms: C_3  and  C_4 
REMARK    3  A    between atoms: C_4  and  C_5 
REMARK    4  A    between atoms: C_5  and  C_6 
REMARK    5  A    between atoms: C_7  and  C_8 
REMARK    6  A    between atoms: C_8  and  C_9 
REMARK    7  A    between atoms: C_10  and  C_11 
REMARK    8  A    between atoms: C_11  and  C_12 
REMARK    9  A    between atoms: C_13  and  C_14 
REMARK   10  A    between atoms: C_15  and  C_16 
REMARK   11  A    between atoms: C_16  and  O_17 
REMARK   12  A    between atoms: C_16  and  C_18 
REMARK   13  A    between atoms: C_18  and  C_19 
REMARK   14  A    between atoms: C_19  and  C_20 
REMARK   15  A    between atoms: C_20  and  C_21 
REMARK   16  A    between atoms: C_21  and  O_23 
ROOT
HETATM    1  C   UNL     1     -21.095  -5.919  -6.878  1.00  0.00    -0.023 C 
HETATM    2  C   UNL     1     -19.939  -5.521  -7.432  1.00  0.00    -0.004 C 
ENDROOT
BRANCH   2   3
HETATM    3  C   UNL     1     -19.879  -4.578  -8.521  1.00  0.00    -0.002 C 
HETATM    4  C   UNL     1     -20.785  -4.551  -9.511  1.00  0.00     0.004 C 
BRANCH   4   5
HETATM    5  C   UNL     1     -20.761  -3.535 -10.617  1.00  0.00     0.141 C 
BRANCH   5   6
HETATM    6  O   UNL     1     -19.967  -4.047 -11.681  1.00  0.00    -0.392 OA
HETATM    7  H   UNL     1     -19.187  -3.478 -11.774  1.00  0.00     0.210 HD
ENDBRANCH   5   6
BRANCH   5   8
HETATM    8  C   UNL     1     -22.164  -3.221 -11.157  1.00  0.00     0.036 C 
BRANCH   8   9
HETATM    9  C   UNL     1     -22.939  -4.483 -11.544  1.00  0.00     0.013 C 
BRANCH   9  10
HETATM   10  C   UNL     1     -23.836  -4.977 -10.414  1.00  0.00     0.110 C 
BRANCH  10  11
HETATM   11  C   UNL     1     -24.575  -3.829  -9.761  1.00  0.00     0.139 C 
HETATM   12  O   UNL     1     -25.404  -3.119 -10.306  1.00  0.00    -0.650 OA
BRANCH  11  13
HETATM   13  O   UNL     1     -24.217  -3.653  -8.469  1.00  0.00    -0.776 OA
HETATM   14  H   UNL     1     -24.914  -3.249  -7.920  1.00  0.00     0.167 HD
ENDBRANCH  11  13
ENDBRANCH  10  11
ENDBRANCH   9  10
ENDBRANCH   8   9
ENDBRANCH   5   8
ENDBRANCH   4   5
ENDBRANCH   2   3
BRANCH   1  15
HETATM   15  C   UNL     1     -21.174  -6.878  -5.728  1.00  0.00     0.054 C 
BRANCH  15  16
HETATM   16  C   UNL     1     -21.739  -6.224  -4.502  1.00  0.00    -0.027 C 
HETATM   17  C   UNL     1     -21.602  -6.716  -3.261  1.00  0.00    -0.027 C 
BRANCH  17  18
HETATM   18  C   UNL     1     -22.201  -6.084  -2.040  1.00  0.00     0.053 C 
BRANCH  18  19
HETATM   19  C   UNL     1     -22.287  -7.064  -0.909  1.00  0.00    -0.027 C 
HETATM   20  C   UNL     1     -21.284  -7.878  -0.544  1.00  0.00    -0.030 C 
BRANCH  20  21
HETATM   21  C   UNL     1     -21.384  -8.872   0.575  1.00  0.00     0.027 C 
BRANCH  21  22
HETATM   22  C   UNL     1     -21.137 -10.295   0.074  1.00  0.00     0.004 C 
BRANCH  22  23
HETATM   23  C   UNL     1     -22.136 -10.666  -1.021  1.00  0.00    -0.000 C 
BRANCH  23  24
HETATM   24  C   UNL     1     -23.555 -10.770  -0.467  1.00  0.00    -0.005 C 
HETATM   25  C   UNL     1     -24.234 -12.050  -0.928  1.00  0.00     0.005 C 
ENDBRANCH  23  24
ENDBRANCH  22  23
ENDBRANCH  21  22
ENDBRANCH  20  21
ENDBRANCH  18  19
ENDBRANCH  17  18
ENDBRANCH  15  16
ENDBRANCH   1  15
TORSDOF 16
ENDMDL
MODEL 4
REMARK VINA RESULT:      -7.8      0.883      1.727
REMARK  16 active torsions:
REMARK  status: ('A' for Active; 'I' for Inactive)
REMARK    1  A    between atoms: C_2  and  C_3 
REMARK    2  A    between atoms: C_3  and  C_4 
REMARK    3  A    between atoms: C_4  and  C_5 
REMARK    4  A    between atoms: C_5  and  C_6 
REMARK    5  A    between atoms: C_7  and  C_8 
REMARK    6  A    between atoms: C_8  and  C_9 
REMARK    7  A    between atoms: C_10  and  C_11 
REMARK    8  A    between atoms: C_11  and  C_12 
REMARK    9  A    between atoms: C_13  and  C_14 
REMARK   10  A    between atoms: C_15  and  C_16 
REMARK   11  A    between atoms: C_16  and  O_17 
REMARK   12  A    between atoms: C_16  and  C_18 
REMARK   13  A    between atoms: C_18  and  C_19 
REMARK   14  A    between atoms: C_19  and  C_20 
REMARK   15  A    between atoms: C_20  and  C_21 
REMARK   16  A    between atoms: C_21  and  O_23 
ROOT
HETATM    1  C   UNL     1     -20.780  -4.641  -7.976  1.00  0.00    -0.023 C 
HETATM    2  C   UNL     1     -20.773  -4.293  -9.272  1.00  0.00    -0.004 C 
ENDROOT
BRANCH   2   3
HETATM    3  C   UNL     1     -21.977  -4.006 -10.010  1.00  0.00    -0.002 C 
HETATM    4  C   UNL     1     -23.178  -4.495  -9.663  1.00  0.00     0.004 C 
BRANCH   4   5
HETATM    5  C   UNL     1     -24.446  -4.153 -10.392  1.00  0.00     0.141 C 
BRANCH   5   6
HETATM    6  O   UNL     1     -25.419  -3.746  -9.437  1.00  0.00    -0.392 OA
HETATM    7  H   UNL     1     -26.294  -3.999  -9.773  1.00  0.00     0.210 HD
ENDBRANCH   5   6
BRANCH   5   8
HETATM    8  C   UNL     1     -24.252  -3.021 -11.411  1.00  0.00     0.036 C 
BRANCH   8   9
HETATM    9  C   UNL     1     -24.095  -3.540 -12.842  1.00  0.00     0.013 C 
BRANCH   9  10
HETATM   10  C   UNL     1     -22.840  -2.998 -13.518  1.00  0.00     0.110 C 
BRANCH  10  11
HETATM   11  C   UNL     1     -23.191  -2.077 -14.666  1.00  0.00     0.139 C 
HETATM   12  O   UNL     1     -22.542  -1.942 -15.690  1.00  0.00    -0.650 OA
BRANCH  11  13
HETATM   13  O   UNL     1     -24.335  -1.390 -14.445  1.00  0.00    -0.776 OA
HETATM   14  H   UNL     1     -24.780  -1.625 -13.609  1.00  0.00     0.167 HD
ENDBRANCH  11  13
ENDBRANCH  10  11
ENDBRANCH   9  10
ENDBRANCH   8   9
ENDBRANCH   5   8
ENDBRANCH   4   5
ENDBRANCH   2   3
BRANCH   1  15
HETATM   15  C   UNL     1     -19.536  -4.918  -7.187  1.00  0.00     0.054 C 
BRANCH  15  16
HETATM   16  C   UNL     1     -19.700  -6.118  -6.302  1.00  0.00    -0.027 C 
HETATM   17  C   UNL     1     -20.874  -6.515  -5.788  1.00  0.00    -0.027 C 
BRANCH  17  18
HETATM   18  C   UNL     1     -21.032  -7.691  -4.870  1.00  0.00     0.053 C 
BRANCH  18  19
HETATM   19  C   UNL     1     -20.994  -7.267  -3.433  1.00  0.00    -0.027 C 
HETATM   20  C   UNL     1     -22.067  -6.843  -2.747  1.00  0.00    -0.030 C 
BRANCH  20  21
HETATM   21  C   UNL     1     -22.018  -6.399  -1.316  1.00  0.00     0.027 C 
BRANCH  21  22
HETATM   22  C   UNL     1     -22.749  -7.386  -0.406  1.00  0.00     0.004 C 
BRANCH  22  23
HETATM   23  C   UNL     1     -21.936  -8.669  -0.232  1.00  0.00    -0.000 C 
BRANCH  23  24
HETATM   24  C   UNL     1     -22.625  -9.858  -0.896  1.00  0.00    -0.005 C 
HETATM   25  C   UNL     1     -23.749 -10.399  -0.027  1.00  0.00     0.005 C 
ENDBRANCH  23  24
ENDBRANCH  22  23
ENDBRANCH  21  22
ENDBRANCH  20  21
ENDBRANCH  18  19
ENDBRANCH  17  18
ENDBRANCH  15  16
ENDBRANCH   1  15
TORSDOF 16
ENDMDL
MODEL 5
REMARK VINA RESULT:      -7.6      1.637      3.368
REMARK  16 active torsions:
REMARK  status: ('A' for Active; 'I' for Inactive)
REMARK    1  A    between atoms: C_2  and  C_3 
REMARK    2  A    between atoms: C_3  and  C_4 
REMARK    3  A    between atoms: C_4  and  C_5 
REMARK    4  A    between atoms: C_5  and  C_6 
REMARK    5  A    between atoms: C_7  and  C_8 
REMARK    6  A    between atoms: C_8  and  C_9 
REMARK    7  A    between atoms: C_10  and  C_11 
REMARK    8  A    between atoms: C_11  and  C_12 
REMARK    9  A    between atoms: C_13  and  C_14 
REMARK   10  A    between atoms: C_15  and  C_16 
REMARK   11  A    between atoms: C_16  and  O_17 
REMARK   12  A    between atoms: C_16  and  C_18 
REMARK   13  A    between atoms: C_18  and  C_19 
REMARK   14  A    between atoms: C_19  and  C_20 
REMARK   15  A    between atoms: C_20  and  C_21 
REMARK   16  A    between atoms: C_21  and  O_23 
ROOT
HETATM    1  C   UNL     1     -21.700  -6.757  -4.155  1.00  0.00    -0.023 C 
HETATM    2  C   UNL     1     -21.403  -5.817  -5.066  1.00  0.00    -0.004 C 
ENDROOT
BRANCH   2   3
HETATM    3  C   UNL     1     -22.070  -5.727  -6.340  1.00  0.00    -0.002 C 
HETATM    4  C   UNL     1     -22.144  -4.587  -7.046  1.00  0.00     0.004 C 
BRANCH   4   5
HETATM    5  C   UNL     1     -22.787  -4.500  -8.400  1.00  0.00     0.141 C 
BRANCH   5   6
HETATM    6  O   UNL     1     -23.977  -3.727  -8.284  1.00  0.00    -0.392 OA
HETATM    7  H   UNL     1     -24.536  -4.137  -7.605  1.00  0.00     0.210 HD
ENDBRANCH   5   6
BRANCH   5   8
HETATM    8  C   UNL     1     -21.874  -3.844  -9.445  1.00  0.00     0.036 C 
BRANCH   8   9
HETATM    9  C   UNL     1     -22.290  -4.176 -10.879  1.00  0.00     0.013 C 
BRANCH   9  10
HETATM   10  C   UNL     1     -22.811  -2.952 -11.626  1.00  0.00     0.110 C 
BRANCH  10  11
HETATM   11  C   UNL     1     -24.271  -3.113 -11.987  1.00  0.00     0.139 C 
HETATM   12  O   UNL     1     -24.719  -3.172 -13.121  1.00  0.00    -0.650 OA
BRANCH  11  13
HETATM   13  O   UNL     1     -25.068  -3.186 -10.896  1.00  0.00    -0.776 OA
HETATM   14  H   UNL     1     -26.010  -3.023 -11.086  1.00  0.00     0.167 HD
ENDBRANCH  11  13
ENDBRANCH  10  11
ENDBRANCH   9  10
ENDBRANCH   8   9
ENDBRANCH   5   8
ENDBRANCH   4   5
ENDBRANCH   2   3
BRANCH   1  15
HETATM   15  C   UNL     1     -21.034  -6.848  -2.814  1.00  0.00     0.054 C 
BRANCH  15  16
HETATM   16  C   UNL     1     -21.882  -7.595  -1.827  1.00  0.00    -0.027 C 
HETATM   17  C   UNL     1     -22.353  -7.061  -0.690  1.00  0.00    -0.027 C 
BRANCH  17  18
HETATM   18  C   UNL     1     -23.166  -7.819   0.317  1.00  0.00     0.053 C 
BRANCH  18  19
HETATM   19  C   UNL     1     -22.870  -9.287   0.260  1.00  0.00    -0.027 C 
HETATM   20  C   UNL     1     -23.781 -10.225  -0.043  1.00  0.00    -0.030 C 
BRANCH  20  21
HETATM   21  C   UNL     1     -23.483 -11.695  -0.077  1.00  0.00     0.027 C 
BRANCH  21  22
HETATM   22  C   UNL     1     -22.737 -12.078  -1.354  1.00  0.00     0.004 C 
BRANCH  22  23
HETATM   23  C   UNL     1     -23.257 -11.279  -2.549  1.00  0.00    -0.000 C 
BRANCH  23  24
HETATM   24  C   UNL     1     -22.117 -10.851  -3.471  1.00  0.00    -0.005 C 
HETATM   25  C   UNL     1     -22.120 -11.659  -4.759  1.00  0.00     0.005 C 
ENDBRANCH  23  24
ENDBRANCH  22  23
ENDBRANCH  21  22
ENDBRANCH  20  21
ENDBRANCH  18  19
ENDBRANCH  17  18
ENDBRANCH  15  16
ENDBRANCH   1  15
TORSDOF 16
ENDMDL
MODEL 6
REMARK VINA RESULT:      -7.5      5.633     11.633
REMARK  16 active torsions:
REMARK  status: ('A' for Active; 'I' for Inactive)
REMARK    1  A    between atoms: C_2  and  C_3 
REMARK    2  A    between atoms: C_3  and  C_4 
REMARK    3  A    between atoms: C_4  and  C_5 
REMARK    4  A    between atoms: C_5  and  C_6 
REMARK    5  A    between atoms: C_7  and  C_8 
REMARK    6  A    between atoms: C_8  and  C_9 
REMARK    7  A    between atoms: C_10  and  C_11 
REMARK    8  A    between atoms: C_11  and  C_12 
REMARK    9  A    between atoms: C_13  and  C_14 
REMARK   10  A    between atoms: C_15  and  C_16 
REMARK   11  A    between atoms: C_16  and  O_17 
REMARK   12  A    between atoms: C_16  and  C_18 
REMARK   13  A    between atoms: C_18  and  C_19 
REMARK   14  A    between atoms: C_19  and  C_20 
REMARK   15  A    between atoms: C_20  and  C_21 
REMARK   16  A    between atoms: C_21  and  O_23 
ROOT
HETATM    1  C   UNL     1     -21.334  -7.338  -3.902  1.00  0.00    -0.023 C 
HETATM    2  C   UNL     1     -21.675  -6.262  -3.175  1.00  0.00    -0.004 C 
ENDROOT
BRANCH   2   3
HETATM    3  C   UNL     1     -22.113  -6.354  -1.804  1.00  0.00    -0.002 C 
HETATM    4  C   UNL     1     -21.909  -7.442  -1.046  1.00  0.00     0.004 C 
BRANCH   4   5
HETATM    5  C   UNL     1     -22.311  -7.523   0.399  1.00  0.00     0.141 C 
BRANCH   5   6
HETATM    6  O   UNL     1     -23.715  -7.749   0.464  1.00  0.00    -0.392 OA
HETATM    7  H   UNL     1     -23.876  -8.454   1.111  1.00  0.00     0.210 HD
ENDBRANCH   5   6
BRANCH   5   8
HETATM    8  C   UNL     1     -21.595  -8.658   1.147  1.00  0.00     0.036 C 
BRANCH   8   9
HETATM    9  C   UNL     1     -21.064  -9.738   0.202  1.00  0.00     0.013 C 
BRANCH   9  10
HETATM   10  C   UNL     1     -21.852 -11.040   0.315  1.00  0.00     0.110 C 
BRANCH  10  11
HETATM   11  C   UNL     1     -23.159 -10.955  -0.442  1.00  0.00     0.139 C 
HETATM   12  O   UNL     1     -24.250 -10.723   0.053  1.00  0.00    -0.650 OA
BRANCH  11  13
HETATM   13  O   UNL     1     -23.003 -11.169  -1.768  1.00  0.00    -0.776 OA
HETATM   14  H   UNL     1     -22.848 -10.356  -2.282  1.00  0.00     0.167 HD
ENDBRANCH  11  13
ENDBRANCH  10  11
ENDBRANCH   9  10
ENDBRANCH   8   9
ENDBRANCH   5   8
ENDBRANCH   4   5
ENDBRANCH   2   3
BRANCH   1  15
HETATM   15  C   UNL     1     -20.852  -7.259  -5.319  1.00  0.00     0.054 C 
BRANCH  15  16
HETATM   16  C   UNL     1     -21.404  -6.054  -6.023  1.00  0.00    -0.027 C 
HETATM   17  C   UNL     1     -20.698  -5.297  -6.877  1.00  0.00    -0.027 C 
BRANCH  17  18
HETATM   18  C   UNL     1     -21.236  -4.070  -7.550  1.00  0.00     0.053 C 
BRANCH  18  19
HETATM   19  C   UNL     1     -22.151  -4.428  -8.682  1.00  0.00    -0.027 C 
HETATM   20  C   UNL     1     -23.457  -4.120  -8.716  1.00  0.00    -0.030 C 
BRANCH  20  21
HETATM   21  C   UNL     1     -24.373  -4.500  -9.842  1.00  0.00     0.027 C 
BRANCH  21  22
HETATM   22  C   UNL     1     -24.373  -3.435 -10.938  1.00  0.00     0.004 C 
BRANCH  22  23
HETATM   23  C   UNL     1     -23.499  -3.867 -12.115  1.00  0.00    -0.000 C 
BRANCH  23  24
HETATM   24  C   UNL     1     -22.430  -2.822 -12.427  1.00  0.00    -0.005 C 
HETATM   25  C   UNL     1     -21.171  -3.063 -11.610  1.00  0.00     0.005 C 
ENDBRANCH  23  24
ENDBRANCH  22  23
ENDBRANCH  21  22
ENDBRANCH  20  21
ENDBRANCH  18  19
ENDBRANCH  17  18
ENDBRANCH  15  16
ENDBRANCH   1  15
TORSDOF 16
ENDMDL
MODEL 7
REMARK VINA RESULT:      -7.5      2.368      3.750
REMARK  16 active torsions:
REMARK  status: ('A' for Active; 'I' for Inactive)
REMARK    1  A    between atoms: C_2  and  C_3 
REMARK    2  A    between atoms: C_3  and  C_4 
REMARK    3  A    between atoms: C_4  and  C_5 
REMARK    4  A    between atoms: C_5  and  C_6 
REMARK    5  A    between atoms: C_7  and  C_8 
REMARK    6  A    between atoms: C_8  and  C_9 
REMARK    7  A    between atoms: C_10  and  C_11 
REMARK    8  A    between atoms: C_11  and  C_12 
REMARK    9  A    between atoms: C_13  and  C_14 
REMARK   10  A    between atoms: C_15  and  C_16 
REMARK   11  A    between atoms: C_16  and  O_17 
REMARK   12  A    between atoms: C_16  and  C_18 
REMARK   13  A    between atoms: C_18  and  C_19 
REMARK   14  A    between atoms: C_19  and  C_20 
REMARK   15  A    between atoms: C_20  and  C_21 
REMARK   16  A    between atoms: C_21  and  O_23 
ROOT
HETATM    1  C   UNL     1     -21.342  -5.175  -6.687  1.00  0.00    -0.023 C 
HETATM    2  C   UNL     1     -20.182  -4.667  -7.132  1.00  0.00    -0.004 C 
ENDROOT
BRANCH   2   3
HETATM    3  C   UNL     1     -20.084  -3.888  -8.341  1.00  0.00    -0.002 C 
HETATM    4  C   UNL     1     -20.671  -4.252  -9.492  1.00  0.00     0.004 C 
BRANCH   4   5
HETATM    5  C   UNL     1     -20.622  -3.417 -10.740  1.00  0.00     0.141 C 
BRANCH   5   6
HETATM    6  O   UNL     1     -19.906  -4.138 -11.736  1.00  0.00    -0.392 OA
HETATM    7  H   UNL     1     -20.325  -3.962 -12.593  1.00  0.00     0.210 HD
ENDBRANCH   5   6
BRANCH   5   8
HETATM    8  C   UNL     1     -22.019  -3.085 -11.281  1.00  0.00     0.036 C 
BRANCH   8   9
HETATM    9  C   UNL     1     -22.831  -4.339 -11.615  1.00  0.00     0.013 C 
BRANCH   9  10
HETATM   10  C   UNL     1     -23.587  -4.875 -10.403  1.00  0.00     0.110 C 
BRANCH  10  11
HETATM   11  C   UNL     1     -24.479  -3.812  -9.801  1.00  0.00     0.139 C 
HETATM   12  O   UNL     1     -25.382  -3.232 -10.382  1.00  0.00    -0.650 OA
BRANCH  11  13
HETATM   13  O   UNL     1     -24.172  -3.549  -8.510  1.00  0.00    -0.776 OA
HETATM   14  H   UNL     1     -24.925  -3.221  -7.986  1.00  0.00     0.167 HD
ENDBRANCH  11  13
ENDBRANCH  10  11
ENDBRANCH   9  10
ENDBRANCH   8   9
ENDBRANCH   5   8
ENDBRANCH   4   5
ENDBRANCH   2   3
BRANCH   1  15
HETATM   15  C   UNL     1     -21.466  -5.965  -5.419  1.00  0.00     0.054 C 
BRANCH  15  16
HETATM   16  C   UNL     1     -20.456  -7.073  -5.358  1.00  0.00    -0.027 C 
HETATM   17  C   UNL     1     -20.283  -7.870  -4.293  1.00  0.00    -0.027 C 
BRANCH  17  18
HETATM   18  C   UNL     1     -19.247  -8.951  -4.216  1.00  0.00     0.053 C 
BRANCH  18  19
HETATM   19  C   UNL     1     -19.417  -9.780  -2.978  1.00  0.00    -0.027 C 
HETATM   20  C   UNL     1     -20.543  -9.813  -2.247  1.00  0.00    -0.030 C 
BRANCH  20  21
HETATM   21  C   UNL     1     -20.699 -10.627  -0.997  1.00  0.00     0.027 C 
BRANCH  21  22
HETATM   22  C   UNL     1     -21.452  -9.847   0.080  1.00  0.00     0.004 C 
BRANCH  22  23
HETATM   23  C   UNL     1     -21.180  -8.348  -0.044  1.00  0.00    -0.000 C 
BRANCH  23  24
HETATM   24  C   UNL     1     -22.458  -7.574  -0.357  1.00  0.00    -0.005 C 
HETATM   25  C   UNL     1     -22.217  -6.525  -1.431  1.00  0.00     0.005 C 
ENDBRANCH  23  24
ENDBRANCH  22  23
ENDBRANCH  21  22
ENDBRANCH  20  21
ENDBRANCH  18  19
ENDBRANCH  17  18
ENDBRANCH  15  16
ENDBRANCH   1  15
TORSDOF 16
ENDMDL
MODEL 8
REMARK VINA RESULT:      -7.3      1.831      2.881
REMARK  16 active torsions:
REMARK  status: ('A' for Active; 'I' for Inactive)
REMARK    1  A    between atoms: C_2  and  C_3 
REMARK    2  A    between atoms: C_3  and  C_4 
REMARK    3  A    between atoms: C_4  and  C_5 
REMARK    4  A    between atoms: C_5  and  C_6 
REMARK    5  A    between atoms: C_7  and  C_8 
REMARK    6  A    between atoms: C_8  and  C_9 
REMARK    7  A    between atoms: C_10  and  C_11 
REMARK    8  A    between atoms: C_11  and  C_12 
REMARK    9  A    between atoms: C_13  and  C_14 
REMARK   10  A    between atoms: C_15  and  C_16 
REMARK   11  A    between atoms: C_16  and  O_17 
REMARK   12  A    between atoms: C_16  and  C_18 
REMARK   13  A    between atoms: C_18  and  C_19 
REMARK   14  A    between atoms: C_19  and  C_20 
REMARK   15  A    between atoms: C_20  and  C_21 
REMARK   16  A    between atoms: C_21  and  O_23 
ROOT
HETATM    1  C   UNL     1     -21.687  -6.205  -5.827  1.00  0.00    -0.023 C 
HETATM    2  C   UNL     1     -21.000  -5.420  -6.672  1.00  0.00    -0.004 C 
ENDROOT
BRANCH   2   3
HETATM    3  C   UNL     1     -21.397  -5.216  -8.043  1.00  0.00    -0.002 C 
HETATM    4  C   UNL     1     -21.495  -3.998  -8.600  1.00  0.00     0.004 C 
BRANCH   4   5
HETATM    5  C   UNL     1     -21.851  -3.781 -10.042  1.00  0.00     0.141 C 
BRANCH   5   6
HETATM    6  O   UNL     1     -20.975  -4.565 -10.845  1.00  0.00    -0.392 OA
HETATM    7  H   UNL     1     -20.592  -5.257 -10.283  1.00  0.00     0.210 HD
ENDBRANCH   5   6
BRANCH   5   8
HETATM    8  C   UNL     1     -23.299  -4.183 -10.358  1.00  0.00     0.036 C 
BRANCH   8   9
HETATM    9  C   UNL     1     -24.023  -3.141 -11.213  1.00  0.00     0.013 C 
BRANCH   9  10
HETATM   10  C   UNL     1     -24.270  -3.633 -12.636  1.00  0.00     0.110 C 
BRANCH  10  11
HETATM   11  C   UNL     1     -23.364  -2.929 -13.622  1.00  0.00     0.139 C 
HETATM   12  O   UNL     1     -23.715  -2.077 -14.422  1.00  0.00    -0.650 OA
BRANCH  11  13
HETATM   13  O   UNL     1     -22.081  -3.346 -13.534  1.00  0.00    -0.776 OA
HETATM   14  H   UNL     1     -21.509  -3.009 -14.248  1.00  0.00     0.167 HD
ENDBRANCH  11  13
ENDBRANCH  10  11
ENDBRANCH   9  10
ENDBRANCH   8   9
ENDBRANCH   5   8
ENDBRANCH   4   5
ENDBRANCH   2   3
BRANCH   1  15
HETATM   15  C   UNL     1     -21.304  -6.408  -4.392  1.00  0.00     0.054 C 
BRANCH  15  16
HETATM   16  C   UNL     1     -21.505  -7.832  -3.963  1.00  0.00    -0.027 C 
HETATM   17  C   UNL     1     -20.756  -8.857  -4.398  1.00  0.00    -0.027 C 
BRANCH  17  18
HETATM   18  C   UNL     1     -20.982 -10.285  -4.001  1.00  0.00     0.053 C 
BRANCH  18  19
HETATM   19  C   UNL     1     -21.788 -10.378  -2.741  1.00  0.00    -0.027 C 
HETATM   20  C   UNL     1     -22.916 -11.096  -2.624  1.00  0.00    -0.030 C 
BRANCH  20  21
HETATM   21  C   UNL     1     -23.730 -11.167  -1.366  1.00  0.00     0.027 C 
BRANCH  21  22
HETATM   22  C   UNL     1     -22.945 -10.635  -0.168  1.00  0.00     0.004 C 
BRANCH  22  23
HETATM   23  C   UNL     1     -23.418  -9.233   0.213  1.00  0.00    -0.000 C 
BRANCH  23  24
HETATM   24  C   UNL     1     -22.251  -8.250   0.276  1.00  0.00    -0.005 C 
HETATM   25  C   UNL     1     -22.464  -7.082  -0.673  1.00  0.00     0.005 C 
ENDBRANCH  23  24
ENDBRANCH  22  23
ENDBRANCH  21  22
ENDBRANCH  20  21
ENDBRANCH  18  19
ENDBRANCH  17  18
ENDBRANCH  15  16
ENDBRANCH   1  15
TORSDOF 16
ENDMDL
MODEL 9
REMARK VINA RESULT:      -7.3      1.976      3.565
REMARK  16 active torsions:
REMARK  status: ('A' for Active; 'I' for Inactive)
REMARK    1  A    between atoms: C_2  and  C_3 
REMARK    2  A    between atoms: C_3  and  C_4 
REMARK    3  A    between atoms: C_4  and  C_5 
REMARK    4  A    between atoms: C_5  and  C_6 
REMARK    5  A    between atoms: C_7  and  C_8 
REMARK    6  A    between atoms: C_8  and  C_9 
REMARK    7  A    between atoms: C_10  and  C_11 
REMARK    8  A    between atoms: C_11  and  C_12 
REMARK    9  A    between atoms: C_13  and  C_14 
REMARK   10  A    between atoms: C_15  and  C_16 
REMARK   11  A    between atoms: C_16  and  O_17 
REMARK   12  A    between atoms: C_16  and  C_18 
REMARK   13  A    between atoms: C_18  and  C_19 
REMARK   14  A    between atoms: C_19  and  C_20 
REMARK   15  A    between atoms: C_20  and  C_21 
REMARK   16  A    between atoms: C_21  and  O_23 
ROOT
HETATM    1  C   UNL     1     -20.779  -7.145  -4.982  1.00  0.00    -0.023 C 
HETATM    2  C   UNL     1     -21.809  -6.320  -5.224  1.00  0.00    -0.004 C 
ENDROOT
BRANCH   2   3
HETATM    3  C   UNL     1     -21.805  -5.363  -6.303  1.00  0.00    -0.002 C 
HETATM    4  C   UNL     1     -20.721  -5.120  -7.057  1.00  0.00     0.004 C 
BRANCH   4   5
HETATM    5  C   UNL     1     -20.725  -4.168  -8.218  1.00  0.00     0.141 C 
BRANCH   5   6
HETATM    6  O   UNL     1     -20.103  -4.807  -9.327  1.00  0.00    -0.392 OA
HETATM    7  H   UNL     1     -19.253  -4.368  -9.489  1.00  0.00     0.210 HD
ENDBRANCH   5   6
BRANCH   5   8
HETATM    8  C   UNL     1     -22.144  -3.745  -8.627  1.00  0.00     0.036 C 
BRANCH   8   9
HETATM    9  C   UNL     1     -22.772  -4.705  -9.640  1.00  0.00     0.013 C 
BRANCH   9  10
HETATM   10  C   UNL     1     -22.918  -4.071 -11.020  1.00  0.00     0.110 C 
BRANCH  10  11
HETATM   11  C   UNL     1     -24.203  -3.278 -11.123  1.00  0.00     0.139 C 
HETATM   12  O   UNL     1     -25.153  -3.367 -10.363  1.00  0.00    -0.650 OA
BRANCH  11  13
HETATM   13  O   UNL     1     -24.203  -2.430 -12.177  1.00  0.00    -0.776 OA
HETATM   14  H   UNL     1     -23.432  -1.834 -12.202  1.00  0.00     0.167 HD
ENDBRANCH  11  13
ENDBRANCH  10  11
ENDBRANCH   9  10
ENDBRANCH   8   9
ENDBRANCH   5   8
ENDBRANCH   4   5
ENDBRANCH   2   3
BRANCH   1  15
HETATM   15  C   UNL     1     -20.777  -8.164  -3.881  1.00  0.00     0.054 C 
BRANCH  15  16
HETATM   16  C   UNL     1     -21.612  -7.719  -2.717  1.00  0.00    -0.027 C 
HETATM   17  C   UNL     1     -21.254  -7.880  -1.434  1.00  0.00    -0.027 C 
BRANCH  17  18
HETATM   18  C   UNL     1     -22.106  -7.473  -0.269  1.00  0.00     0.053 C 
BRANCH  18  19
HETATM   19  C   UNL     1     -22.923  -8.624   0.234  1.00  0.00    -0.027 C 
HETATM   20  C   UNL     1     -23.097  -9.772  -0.439  1.00  0.00    -0.030 C 
BRANCH  20  21
HETATM   21  C   UNL     1     -23.934 -10.912   0.060  1.00  0.00     0.027 C 
BRANCH  21  22
HETATM   22  C   UNL     1     -23.202 -12.244  -0.095  1.00  0.00     0.004 C 
BRANCH  22  23
HETATM   23  C   UNL     1     -22.096 -12.382   0.950  1.00  0.00    -0.000 C 
BRANCH  23  24
HETATM   24  C   UNL     1     -22.178 -13.725   1.673  1.00  0.00    -0.005 C 
HETATM   25  C   UNL     1     -23.578 -13.974   2.212  1.00  0.00     0.005 C 
ENDBRANCH  23  24
ENDBRANCH  22  23
ENDBRANCH  21  22
ENDBRANCH  20  21
ENDBRANCH  18  19
ENDBRANCH  17  18
ENDBRANCH  15  16
ENDBRANCH   1  15
TORSDOF 16
ENDMDL
