REMARK  6 active torsions:
REMARK  status: ('A' for Active; 'I' for Inactive)
REMARK    1  A    between atoms: N_1  and  C_2 
REMARK    2  A    between atoms: C_2  and  C_3 
REMARK    3  A    between atoms: C_3  and  O_4 
REMARK    4  A    between atoms: O_4  and  B_5 
REMARK    5  A    between atoms: B_5  and  C_6 
REMARK    6  A    between atoms: B_5  and  C_12 
ROOT
HETATM    1  B   UNL     1       4.815  -1.828  -2.296  1.00  0.00     0.402 B 
ENDROOT
BRANCH   1   2
HETATM    2  O   UNL     1       4.306  -0.941  -1.224  1.00  0.00    -0.442 OA
BRANCH   2   3
HETATM    3  C   UNL     1       3.559  -1.697  -0.294  1.00  0.00     0.173 C 
BRANCH   3   4
HETATM    4  C   UNL     1       3.140  -0.811   0.883  1.00  0.00     0.290 C 
BRANCH   4   5
HETATM    5  N   UNL     1       4.305  -0.340   1.625  1.00  0.00     0.080 N 
HETATM    6  H   UNL     1       3.971   0.210   2.449  1.00  0.00     0.312 HD
HETATM    7  H   UNL     1       4.866   0.303   1.020  1.00  0.00     0.312 HD
ENDBRANCH   4   5
ENDBRANCH   3   4
ENDBRANCH   2   3
ENDBRANCH   1   2
BRANCH   1   8
HETATM    8  C   UNL     1       3.816  -2.509  -3.328  1.00  0.00    -0.060 A 
HETATM    9  C   UNL     1       2.548  -1.966  -3.591  1.00  0.00    -0.002 A 
HETATM   10  C   UNL     1       1.685  -2.606  -4.490  1.00  0.00    -0.000 A 
HETATM   11  C   UNL     1       2.070  -3.803  -5.111  1.00  0.00     0.000 A 
HETATM   12  C   UNL     1       3.319  -4.353  -4.840  1.00  0.00    -0.000 A 
HETATM   13  C   UNL     1       4.187  -3.713  -3.960  1.00  0.00    -0.002 A 
ENDBRANCH   1   8
BRANCH   1  14
HETATM   14  C   UNL     1       6.371  -2.100  -2.416  1.00  0.00    -0.060 A 
HETATM   15  C   UNL     1       7.202  -2.121  -1.286  1.00  0.00    -0.002 A 
HETATM   16  C   UNL     1       8.571  -2.385  -1.427  1.00  0.00    -0.000 A 
HETATM   17  C   UNL     1       9.122  -2.599  -2.696  1.00  0.00     0.000 A 
HETATM   18  C   UNL     1       8.308  -2.546  -3.826  1.00  0.00    -0.000 A 
HETATM   19  C   UNL     1       6.943  -2.305  -3.689  1.00  0.00    -0.002 A 
ENDBRANCH   1  14
TORSDOF 6
