MODEL 1
REMARK VINA RESULT:      -8.2      0.000      0.000
REMARK  4 active torsions:
REMARK  status: ('A' for Active; 'I' for Inactive)
REMARK    1  A    between atoms: C_5  and  N_6 
REMARK       I    between atoms: N_6  and  C_7 
REMARK       I    between atoms: C_7  and  N_9 
REMARK    2  A    between atoms: N_9  and  C_10 
REMARK    3  A    between atoms: C_12  and  C_13 
REMARK    4  A    between atoms: C_12  and  C_15 
ROOT
HETATM    1  N   UNL     1     -19.537 -10.166  -1.413  1.00  0.00    -0.308 N 
HETATM    2  C   UNL     1     -19.698 -11.269  -2.197  1.00  0.00     0.321 C 
HETATM    3  O   UNL     1     -20.747 -11.655  -2.710  1.00  0.00    -0.247 OA
HETATM    4  N   UNL     1     -18.570 -12.019  -2.341  1.00  0.00    -0.334 N 
HETATM    5  H   UNL     1     -18.929 -10.388  -0.639  1.00  0.00     0.170 HD
HETATM    6  H   UNL     1     -18.810 -12.976  -2.565  1.00  0.00     0.165 HD
ENDROOT
BRANCH   4   7
HETATM    7  C   UNL     1     -17.185 -11.726  -1.999  1.00  0.00     0.125 C 
HETATM    8  C   UNL     1     -16.491 -10.711  -2.983  1.00  0.00     0.073 C 
HETATM    9  C   UNL     1     -16.597 -11.231  -4.451  1.00  0.00     0.121 C 
HETATM   10  O   UNL     1     -16.603 -12.688  -4.459  1.00  0.00    -0.335 OA
HETATM   11  C   UNL     1     -15.852 -13.196  -3.419  1.00  0.00     0.080 C 
HETATM   12  C   UNL     1     -14.591 -13.739  -3.611  1.00  0.00     0.061 C 
HETATM   13  C   UNL     1     -16.315 -12.956  -2.121  1.00  0.00    -0.002 C 
HETATM   14  C   UNL     1     -13.869 -14.157  -2.490  1.00  0.00     0.036 C 
HETATM   15 CL   UNL     1     -12.200 -14.553  -2.649  1.00  0.00    -0.084 Cl
HETATM   16  C   UNL     1     -14.450 -14.162  -1.217  1.00  0.00     0.024 C 
HETATM   17  C   UNL     1     -15.690 -13.554  -1.025  1.00  0.00     0.013 C 
BRANCH   9  18
HETATM   18  C   UNL     1     -15.484 -10.863  -5.444  1.00  0.00     0.263 C 
HETATM   19  F   UNL     1     -15.200  -9.528  -5.274  1.00  0.00    -0.252 F 
ENDBRANCH   9  18
BRANCH   9  20
HETATM   20  C   UNL     1     -17.872 -10.598  -5.050  1.00  0.00     0.263 C 
HETATM   21  F   UNL     1     -18.038  -9.362  -4.485  1.00  0.00    -0.252 F 
ENDBRANCH   9  20
ENDBRANCH   4   7
BRANCH   1  22
HETATM   22  C   UNL     1     -20.589  -9.285  -1.068  1.00  0.00     0.047 A 
HETATM   23  C   UNL     1     -21.027  -8.208  -1.893  1.00  0.00     0.004 A 
HETATM   24  C   UNL     1     -20.599  -7.941  -3.217  1.00  0.00     0.039 A 
HETATM   25  C   UNL     1     -21.944  -7.292  -1.328  1.00  0.00    -0.008 A 
HETATM   26  C   UNL     1     -21.076  -6.824  -3.907  1.00  0.00     0.005 A 
HETATM   27  C   UNL     1     -20.682  -6.560  -5.331  1.00  0.00     0.068 C 
HETATM   28  N   UNL     1     -21.922  -5.933  -3.350  1.00  0.00    -0.369 N 
HETATM   29  C   UNL     1     -22.332  -6.188  -2.090  1.00  0.00     0.100 A 
ATOM     30  HN  UNL     1     -22.236  -5.106  -3.857  1.00  0.00     0.165 HD
HETATM   31  C   UNL     1     -22.437  -7.480  -0.024  1.00  0.00     0.014 A 
HETATM   32  C   UNL     1     -22.026  -8.558   0.748  1.00  0.00     0.003 A 
HETATM   33  C   UNL     1     -21.094  -9.449   0.232  1.00  0.00     0.030 A 
ENDBRANCH   1  22
TORSDOF 4
ENDMDL
MODEL 2
REMARK VINA RESULT:      -8.1      2.786      3.854
REMARK  4 active torsions:
REMARK  status: ('A' for Active; 'I' for Inactive)
REMARK    1  A    between atoms: C_5  and  N_6 
REMARK       I    between atoms: N_6  and  C_7 
REMARK       I    between atoms: C_7  and  N_9 
REMARK    2  A    between atoms: N_9  and  C_10 
REMARK    3  A    between atoms: C_12  and  C_13 
REMARK    4  A    between atoms: C_12  and  C_15 
ROOT
HETATM    1  N   UNL     1     -19.718 -10.466  -2.743  1.00  0.00    -0.308 N 
HETATM    2  C   UNL     1     -18.433 -10.146  -3.061  1.00  0.00     0.321 C 
HETATM    3  O   UNL     1     -17.797  -9.177  -2.649  1.00  0.00    -0.247 OA
HETATM    4  N   UNL     1     -17.865 -10.972  -3.982  1.00  0.00    -0.334 N 
HETATM    5  H   UNL     1     -20.205 -10.773  -3.571  1.00  0.00     0.170 HD
HETATM    6  H   UNL     1     -17.117 -10.496  -4.470  1.00  0.00     0.165 HD
ENDROOT
BRANCH   4   7
HETATM    7  C   UNL     1     -18.306 -12.259  -4.504  1.00  0.00     0.125 C 
HETATM    8  C   UNL     1     -17.271 -13.424  -4.272  1.00  0.00     0.073 C 
HETATM    9  C   UNL     1     -15.884 -13.034  -4.872  1.00  0.00     0.121 C 
HETATM   10  O   UNL     1     -16.072 -12.163  -6.025  1.00  0.00    -0.335 OA
HETATM   11  C   UNL     1     -17.243 -12.461  -6.691  1.00  0.00     0.080 C 
HETATM   12  C   UNL     1     -17.258 -13.152  -7.892  1.00  0.00     0.061 C 
HETATM   13  C   UNL     1     -18.441 -12.228  -6.008  1.00  0.00    -0.002 C 
HETATM   14  C   UNL     1     -18.493 -13.481  -8.455  1.00  0.00     0.036 C 
HETATM   15 CL   UNL     1     -18.564 -14.588  -9.774  1.00  0.00    -0.084 Cl
HETATM   16  C   UNL     1     -19.688 -13.007  -7.902  1.00  0.00     0.024 C 
HETATM   17  C   UNL     1     -19.668 -12.371  -6.662  1.00  0.00     0.013 C 
BRANCH   9  18
HETATM   18  C   UNL     1     -14.971 -14.151  -5.401  1.00  0.00     0.263 C 
HETATM   19  F   UNL     1     -14.052 -13.573  -6.245  1.00  0.00    -0.252 F 
ENDBRANCH   9  18
BRANCH   9  20
HETATM   20  C   UNL     1     -15.075 -12.387  -3.726  1.00  0.00     0.263 C 
HETATM   21  F   UNL     1     -14.657 -11.154  -4.146  1.00  0.00    -0.252 F 
ENDBRANCH   9  20
ENDBRANCH   4   7
BRANCH   1  22
HETATM   22  C   UNL     1     -20.525  -9.704  -1.865  1.00  0.00     0.047 A 
HETATM   23  C   UNL     1     -21.145  -8.472  -2.222  1.00  0.00     0.004 A 
HETATM   24  C   UNL     1     -21.181  -7.898  -3.517  1.00  0.00     0.039 A 
HETATM   25  C   UNL     1     -21.748  -7.725  -1.183  1.00  0.00    -0.008 A 
HETATM   26  C   UNL     1     -21.789  -6.658  -3.730  1.00  0.00     0.005 A 
HETATM   27  C   UNL     1     -21.891  -6.065  -5.104  1.00  0.00     0.068 C 
HETATM   28  N   UNL     1     -22.329  -5.933  -2.728  1.00  0.00    -0.369 N 
HETATM   29  C   UNL     1     -22.298  -6.480  -1.495  1.00  0.00     0.100 A 
ATOM     30  HN  UNL     1     -22.740  -5.016  -2.895  1.00  0.00     0.165 HD
HETATM   31  C   UNL     1     -21.775  -8.218   0.134  1.00  0.00     0.014 A 
HETATM   32  C   UNL     1     -21.198  -9.440   0.452  1.00  0.00     0.003 A 
HETATM   33  C   UNL     1     -20.563 -10.173  -0.542  1.00  0.00     0.030 A 
ENDBRANCH   1  22
TORSDOF 4
ENDMDL
MODEL 3
REMARK VINA RESULT:      -7.9      2.774      4.124
REMARK  4 active torsions:
REMARK  status: ('A' for Active; 'I' for Inactive)
REMARK    1  A    between atoms: C_5  and  N_6 
REMARK       I    between atoms: N_6  and  C_7 
REMARK       I    between atoms: C_7  and  N_9 
REMARK    2  A    between atoms: N_9  and  C_10 
REMARK    3  A    between atoms: C_12  and  C_13 
REMARK    4  A    between atoms: C_12  and  C_15 
ROOT
HETATM    1  N   UNL     1     -20.235  -9.230  -4.285  1.00  0.00    -0.308 N 
HETATM    2  C   UNL     1     -20.890 -10.361  -4.671  1.00  0.00     0.321 C 
HETATM    3  O   UNL     1     -22.010 -10.717  -4.309  1.00  0.00    -0.247 OA
HETATM    4  N   UNL     1     -20.163 -11.176  -5.485  1.00  0.00    -0.334 N 
HETATM    5  H   UNL     1     -19.264  -9.445  -4.113  1.00  0.00     0.170 HD
HETATM    6  H   UNL     1     -20.495 -12.129  -5.417  1.00  0.00     0.165 HD
ENDROOT
BRANCH   4   7
HETATM    7  C   UNL     1     -18.912 -10.940  -6.192  1.00  0.00     0.125 C 
HETATM    8  C   UNL     1     -18.682 -11.910  -7.412  1.00  0.00     0.073 C 
HETATM    9  C   UNL     1     -18.775 -13.395  -6.938  1.00  0.00     0.121 C 
HETATM   10  O   UNL     1     -18.323 -13.503  -5.558  1.00  0.00    -0.335 OA
HETATM   11  C   UNL     1     -17.344 -12.571  -5.279  1.00  0.00     0.080 C 
HETATM   12  C   UNL     1     -16.004 -12.911  -5.175  1.00  0.00     0.061 C 
HETATM   13  C   UNL     1     -17.718 -11.223  -5.311  1.00  0.00    -0.002 C 
HETATM   14  C   UNL     1     -15.072 -11.891  -4.970  1.00  0.00     0.036 C 
HETATM   15 CL   UNL     1     -13.390 -12.226  -5.135  1.00  0.00    -0.084 Cl
HETATM   16  C   UNL     1     -15.483 -10.575  -4.733  1.00  0.00     0.024 C 
HETATM   17  C   UNL     1     -16.823 -10.231  -4.905  1.00  0.00     0.013 C 
BRANCH   9  18
HETATM   18  C   UNL     1     -17.946 -14.456  -7.680  1.00  0.00     0.263 C 
HETATM   19  F   UNL     1     -17.841 -14.060  -8.992  1.00  0.00    -0.252 F 
ENDBRANCH   9  18
BRANCH   9  20
HETATM   20  C   UNL     1     -20.241 -13.833  -7.152  1.00  0.00     0.263 C 
HETATM   21  F   UNL     1     -20.744 -13.127  -8.211  1.00  0.00    -0.252 F 
ENDBRANCH   9  20
ENDBRANCH   4   7
BRANCH   1  22
HETATM   22  C   UNL     1     -20.769  -8.279  -3.385  1.00  0.00     0.047 A 
HETATM   23  C   UNL     1     -20.987  -8.528  -1.999  1.00  0.00     0.004 A 
HETATM   24  C   UNL     1     -20.578  -9.681  -1.282  1.00  0.00     0.039 A 
HETATM   25  C   UNL     1     -21.716  -7.558  -1.273  1.00  0.00    -0.008 A 
HETATM   26  C   UNL     1     -20.889  -9.824   0.072  1.00  0.00     0.005 A 
HETATM   27  C   UNL     1     -20.410 -11.007   0.861  1.00  0.00     0.068 C 
HETATM   28  N   UNL     1     -21.617  -8.913   0.750  1.00  0.00    -0.369 N 
HETATM   29  C   UNL     1     -22.005  -7.815   0.070  1.00  0.00     0.100 A 
ATOM     30  HN  UNL     1     -21.862  -9.048   1.730  1.00  0.00     0.165 HD
HETATM   31  C   UNL     1     -22.153  -6.375  -1.894  1.00  0.00     0.014 A 
HETATM   32  C   UNL     1     -21.897  -6.134  -3.237  1.00  0.00     0.003 A 
HETATM   33  C   UNL     1     -21.220  -7.090  -3.982  1.00  0.00     0.030 A 
ENDBRANCH   1  22
TORSDOF 4
ENDMDL
MODEL 4
REMARK VINA RESULT:      -7.7      1.659      3.016
REMARK  4 active torsions:
REMARK  status: ('A' for Active; 'I' for Inactive)
REMARK    1  A    between atoms: C_5  and  N_6 
REMARK       I    between atoms: N_6  and  C_7 
REMARK       I    between atoms: C_7  and  N_9 
REMARK    2  A    between atoms: N_9  and  C_10 
REMARK    3  A    between atoms: C_12  and  C_13 
REMARK    4  A    between atoms: C_12  and  C_15 
ROOT
HETATM    1  N   UNL     1     -18.447  -9.743  -2.750  1.00  0.00    -0.308 N 
HETATM    2  C   UNL     1     -18.624 -11.081  -2.937  1.00  0.00     0.321 C 
HETATM    3  O   UNL     1     -19.571 -11.621  -3.506  1.00  0.00    -0.247 OA
HETATM    4  N   UNL     1     -17.665 -11.856  -2.359  1.00  0.00    -0.334 N 
HETATM    5  H   UNL     1     -18.102  -9.576  -1.817  1.00  0.00     0.170 HD
HETATM    6  H   UNL     1     -18.025 -12.783  -2.173  1.00  0.00     0.165 HD
ENDROOT
BRANCH   4   7
HETATM    7  C   UNL     1     -16.375 -11.499  -1.784  1.00  0.00     0.125 C 
HETATM    8  C   UNL     1     -15.220 -11.376  -2.848  1.00  0.00     0.073 C 
HETATM    9  C   UNL     1     -15.109 -12.697  -3.672  1.00  0.00     0.121 C 
HETATM   10  O   UNL     1     -15.503 -13.830  -2.845  1.00  0.00    -0.335 OA
HETATM   11  C   UNL     1     -15.186 -13.614  -1.519  1.00  0.00     0.080 C 
HETATM   12  C   UNL     1     -14.110 -14.233  -0.903  1.00  0.00     0.061 C 
HETATM   13  C   UNL     1     -15.863 -12.582  -0.862  1.00  0.00    -0.002 C 
HETATM   14  C   UNL     1     -13.815 -13.894   0.420  1.00  0.00     0.036 C 
HETATM   15 CL   UNL     1     -12.326 -14.404   1.120  1.00  0.00    -0.084 Cl
HETATM   16  C   UNL     1     -14.663 -13.060   1.157  1.00  0.00     0.024 C 
HETATM   17  C   UNL     1     -15.702 -12.392   0.513  1.00  0.00     0.013 C 
BRANCH   9  18
HETATM   18  C   UNL     1     -13.733 -13.106  -4.223  1.00  0.00     0.263 C 
HETATM   19  F   UNL     1     -13.208 -12.018  -4.878  1.00  0.00    -0.252 F 
ENDBRANCH   9  18
BRANCH   9  20
HETATM   20  C   UNL     1     -15.985 -12.506  -4.929  1.00  0.00     0.263 C 
HETATM   21  F   UNL     1     -16.043 -11.167  -5.206  1.00  0.00    -0.252 F 
ENDBRANCH   9  20
ENDBRANCH   4   7
BRANCH   1  22
HETATM   22  C   UNL     1     -19.358  -8.759  -3.199  1.00  0.00     0.047 A 
HETATM   23  C   UNL     1     -20.372  -8.181  -2.382  1.00  0.00     0.004 A 
HETATM   24  C   UNL     1     -20.537  -8.378  -0.988  1.00  0.00     0.039 A 
HETATM   25  C   UNL     1     -21.334  -7.365  -3.022  1.00  0.00    -0.008 A 
HETATM   26  C   UNL     1     -21.601  -7.784  -0.306  1.00  0.00     0.005 A 
HETATM   27  C   UNL     1     -21.755  -7.931   1.179  1.00  0.00     0.068 C 
HETATM   28  N   UNL     1     -22.537  -7.038  -0.929  1.00  0.00    -0.369 N 
HETATM   29  C   UNL     1     -22.380  -6.847  -2.255  1.00  0.00     0.100 A 
ATOM     30  HN  UNL     1     -23.326  -6.638  -0.422  1.00  0.00     0.165 HD
HETATM   31  C   UNL     1     -21.247  -7.100  -4.401  1.00  0.00     0.014 A 
HETATM   32  C   UNL     1     -20.228  -7.642  -5.171  1.00  0.00     0.003 A 
HETATM   33  C   UNL     1     -19.295  -8.480  -4.574  1.00  0.00     0.030 A 
ENDBRANCH   1  22
TORSDOF 4
ENDMDL
MODEL 5
REMARK VINA RESULT:      -7.6      3.622      7.894
REMARK  4 active torsions:
REMARK  status: ('A' for Active; 'I' for Inactive)
REMARK    1  A    between atoms: C_5  and  N_6 
REMARK       I    between atoms: N_6  and  C_7 
REMARK       I    between atoms: C_7  and  N_9 
REMARK    2  A    between atoms: N_9  and  C_10 
REMARK    3  A    between atoms: C_12  and  C_13 
REMARK    4  A    between atoms: C_12  and  C_15 
ROOT
HETATM    1  N   UNL     1     -17.426 -10.863  -1.889  1.00  0.00    -0.308 N 
HETATM    2  C   UNL     1     -18.721 -11.281  -1.949  1.00  0.00     0.321 C 
HETATM    3  O   UNL     1     -19.147 -12.391  -1.633  1.00  0.00    -0.247 OA
HETATM    4  N   UNL     1     -19.578 -10.366  -2.483  1.00  0.00    -0.334 N 
HETATM    5  H   UNL     1     -17.205 -10.328  -2.715  1.00  0.00     0.170 HD
HETATM    6  H   UNL     1     -20.390 -10.828  -2.870  1.00  0.00     0.165 HD
ENDROOT
BRANCH   4   7
HETATM    7  C   UNL     1     -19.392  -8.952  -2.779  1.00  0.00     0.125 C 
HETATM    8  C   UNL     1     -19.981  -7.992  -1.677  1.00  0.00     0.073 C 
HETATM    9  C   UNL     1     -21.490  -8.312  -1.441  1.00  0.00     0.121 C 
HETATM   10  O   UNL     1     -22.091  -8.801  -2.675  1.00  0.00    -0.335 OA
HETATM   11  C   UNL     1     -21.496  -8.228  -3.781  1.00  0.00     0.080 C 
HETATM   12  C   UNL     1     -22.108  -7.226  -4.517  1.00  0.00     0.061 C 
HETATM   13  C   UNL     1     -20.154  -8.544  -4.018  1.00  0.00    -0.002 C 
HETATM   14  C   UNL     1     -21.400  -6.648  -5.573  1.00  0.00     0.036 C 
HETATM   15 CL   UNL     1     -21.994  -5.211  -6.315  1.00  0.00    -0.084 Cl
HETATM   16  C   UNL     1     -20.160  -7.157  -5.974  1.00  0.00     0.024 C 
HETATM   17  C   UNL     1     -19.524  -8.118  -5.190  1.00  0.00     0.013 C 
BRANCH   9  18
HETATM   18  C   UNL     1     -22.424  -7.171  -1.005  1.00  0.00     0.263 C 
HETATM   19  F   UNL     1     -21.897  -5.996  -1.487  1.00  0.00    -0.252 F 
ENDBRANCH   9  18
BRANCH   9  20
HETATM   20  C   UNL     1     -21.548  -9.323  -0.275  1.00  0.00     0.263 C 
HETATM   21  F   UNL     1     -21.069  -8.702   0.848  1.00  0.00    -0.252 F 
ENDBRANCH   9  20
ENDBRANCH   4   7
BRANCH   1  22
HETATM   22  C   UNL     1     -16.357 -11.673  -1.439  1.00  0.00     0.047 A 
HETATM   23  C   UNL     1     -15.378 -12.249  -2.299  1.00  0.00     0.004 A 
HETATM   24  C   UNL     1     -15.227 -11.992  -3.685  1.00  0.00     0.039 A 
HETATM   25  C   UNL     1     -14.497 -13.199  -1.733  1.00  0.00    -0.008 A 
HETATM   26  C   UNL     1     -14.249 -12.655  -4.429  1.00  0.00     0.005 A 
HETATM   27  C   UNL     1     -14.034 -12.349  -5.882  1.00  0.00     0.068 C 
HETATM   28  N   UNL     1     -13.436 -13.588  -3.892  1.00  0.00    -0.369 N 
HETATM   29  C   UNL     1     -13.577 -13.832  -2.573  1.00  0.00     0.100 A 
ATOM     30  HN  UNL     1     -12.748 -14.086  -4.456  1.00  0.00     0.165 HD
HETATM   31  C   UNL     1     -14.560 -13.512  -0.363  1.00  0.00     0.014 A 
HETATM   32  C   UNL     1     -15.497 -12.910   0.465  1.00  0.00     0.003 A 
HETATM   33  C   UNL     1     -16.402 -12.005  -0.075  1.00  0.00     0.030 A 
ENDBRANCH   1  22
TORSDOF 4
ENDMDL
MODEL 6
REMARK VINA RESULT:      -7.6      3.067      4.601
REMARK  4 active torsions:
REMARK  status: ('A' for Active; 'I' for Inactive)
REMARK    1  A    between atoms: C_5  and  N_6 
REMARK       I    between atoms: N_6  and  C_7 
REMARK       I    between atoms: C_7  and  N_9 
REMARK    2  A    between atoms: N_9  and  C_10 
REMARK    3  A    between atoms: C_12  and  C_13 
REMARK    4  A    between atoms: C_12  and  C_15 
ROOT
HETATM    1  N   UNL     1     -20.255  -9.273  -4.099  1.00  0.00    -0.308 N 
HETATM    2  C   UNL     1     -19.563  -8.999  -5.241  1.00  0.00     0.321 C 
HETATM    3  O   UNL     1     -19.327  -7.884  -5.702  1.00  0.00    -0.247 OA
HETATM    4  N   UNL     1     -19.177 -10.103  -5.937  1.00  0.00    -0.334 N 
HETATM    5  H   UNL     1     -20.868 -10.059  -4.257  1.00  0.00     0.170 HD
HETATM    6  H   UNL     1     -19.044  -9.876  -6.913  1.00  0.00     0.165 HD
ENDROOT
BRANCH   4   7
HETATM    7  C   UNL     1     -19.170 -11.510  -5.558  1.00  0.00     0.125 C 
HETATM    8  C   UNL     1     -17.867 -11.954  -4.793  1.00  0.00     0.073 C 
HETATM    9  C   UNL     1     -16.604 -11.607  -5.643  1.00  0.00     0.121 C 
HETATM   10  O   UNL     1     -16.928 -11.679  -7.061  1.00  0.00    -0.335 OA
HETATM   11  C   UNL     1     -17.892 -12.636  -7.305  1.00  0.00     0.080 C 
HETATM   12  C   UNL     1     -17.590 -13.868  -7.865  1.00  0.00     0.061 C 
HETATM   13  C   UNL     1     -19.165 -12.409  -6.773  1.00  0.00    -0.002 C 
HETATM   14  C   UNL     1     -18.615 -14.806  -8.002  1.00  0.00     0.036 C 
HETATM   15 CL   UNL     1     -18.233 -16.436  -8.407  1.00  0.00    -0.084 Cl
HETATM   16  C   UNL     1     -19.944 -14.471  -7.715  1.00  0.00     0.024 C 
HETATM   17  C   UNL     1     -20.228 -13.257  -7.092  1.00  0.00     0.013 C 
BRANCH   9  18
HETATM   18  C   UNL     1     -15.358 -12.496  -5.504  1.00  0.00     0.263 C 
HETATM   19  F   UNL     1     -14.609 -12.343  -6.647  1.00  0.00    -0.252 F 
ENDBRANCH   9  18
BRANCH   9  20
HETATM   20  C   UNL     1     -16.133 -10.211  -5.180  1.00  0.00     0.263 C 
HETATM   21  F   UNL     1     -15.994  -9.421  -6.289  1.00  0.00    -0.252 F 
ENDBRANCH   9  20
ENDBRANCH   4   7
BRANCH   1  22
HETATM   22  C   UNL     1     -20.815  -8.281  -3.260  1.00  0.00     0.047 A 
HETATM   23  C   UNL     1     -21.066  -8.464  -1.869  1.00  0.00     0.004 A 
HETATM   24  C   UNL     1     -20.672  -9.578  -1.088  1.00  0.00     0.039 A 
HETATM   25  C   UNL     1     -21.815  -7.462  -1.209  1.00  0.00    -0.008 A 
HETATM   26  C   UNL     1     -21.016  -9.656   0.264  1.00  0.00     0.005 A 
HETATM   27  C   UNL     1     -20.554 -10.798   1.121  1.00  0.00     0.068 C 
HETATM   28  N   UNL     1     -21.763  -8.716   0.878  1.00  0.00    -0.369 N 
HETATM   29  C   UNL     1     -22.137  -7.654   0.136  1.00  0.00     0.100 A 
ATOM     30  HN  UNL     1     -22.032  -8.804   1.858  1.00  0.00     0.165 HD
HETATM   31  C   UNL     1     -22.240  -6.311  -1.898  1.00  0.00     0.014 A 
HETATM   32  C   UNL     1     -21.951  -6.136  -3.244  1.00  0.00     0.003 A 
HETATM   33  C   UNL     1     -21.254  -7.124  -3.926  1.00  0.00     0.030 A 
ENDBRANCH   1  22
TORSDOF 4
ENDMDL
MODEL 7
REMARK VINA RESULT:      -7.5     19.265     21.321
REMARK  4 active torsions:
REMARK  status: ('A' for Active; 'I' for Inactive)
REMARK    1  A    between atoms: C_5  and  N_6 
REMARK       I    between atoms: N_6  and  C_7 
REMARK       I    between atoms: C_7  and  N_9 
REMARK    2  A    between atoms: N_9  and  C_10 
REMARK    3  A    between atoms: C_12  and  C_13 
REMARK    4  A    between atoms: C_12  and  C_15 
ROOT
HETATM    1  N   UNL     1     -21.796   9.459   2.431  1.00  0.00    -0.308 N 
HETATM    2  C   UNL     1     -21.116  10.591   2.095  1.00  0.00     0.321 C 
HETATM    3  O   UNL     1     -21.599  11.627   1.641  1.00  0.00    -0.247 OA
HETATM    4  N   UNL     1     -19.764  10.490   2.230  1.00  0.00    -0.334 N 
HETATM    5  H   UNL     1     -21.277   8.651   2.123  1.00  0.00     0.170 HD
HETATM    6  H   UNL     1     -19.299  11.151   1.622  1.00  0.00     0.165 HD
ENDROOT
BRANCH   4   7
HETATM    7  C   UNL     1     -18.949   9.476   2.884  1.00  0.00     0.125 C 
HETATM    8  C   UNL     1     -19.101   9.456   4.452  1.00  0.00     0.073 C 
HETATM    9  C   UNL     1     -18.794  10.870   5.037  1.00  0.00     0.121 C 
HETATM   10  O   UNL     1     -17.814  11.549   4.200  1.00  0.00    -0.335 OA
HETATM   11  C   UNL     1     -16.941  10.649   3.623  1.00  0.00     0.080 C 
HETATM   12  C   UNL     1     -15.641  10.484   4.074  1.00  0.00     0.061 C 
HETATM   13  C   UNL     1     -17.474   9.747   2.696  1.00  0.00    -0.002 C 
HETATM   14  C   UNL     1     -14.852   9.494   3.484  1.00  0.00     0.036 C 
HETATM   15 CL   UNL     1     -13.351   9.055   4.206  1.00  0.00    -0.084 Cl
HETATM   16  C   UNL     1     -15.306   8.777   2.371  1.00  0.00     0.024 C 
HETATM   17  C   UNL     1     -16.635   8.902   1.968  1.00  0.00     0.013 C 
BRANCH   9  18
HETATM   18  C   UNL     1     -18.199  10.968   6.451  1.00  0.00     0.263 C 
HETATM   19  F   UNL     1     -18.078   9.689   6.940  1.00  0.00    -0.252 F 
ENDBRANCH   9  18
BRANCH   9  20
HETATM   20  C   UNL     1     -20.148  11.607   5.137  1.00  0.00     0.263 C 
HETATM   21  F   UNL     1     -21.122  10.674   5.371  1.00  0.00    -0.252 F 
ENDBRANCH   9  20
ENDBRANCH   4   7
BRANCH   1  22
HETATM   22  C   UNL     1     -23.197   9.315   2.300  1.00  0.00     0.047 A 
HETATM   23  C   UNL     1     -23.834   8.723   1.170  1.00  0.00     0.004 A 
HETATM   24  C   UNL     1     -23.186   8.067   0.094  1.00  0.00     0.039 A 
HETATM   25  C   UNL     1     -25.241   8.834   1.088  1.00  0.00    -0.008 A 
HETATM   26  C   UNL     1     -23.924   7.562  -0.979  1.00  0.00     0.005 A 
HETATM   27  C   UNL     1     -23.263   6.810  -2.096  1.00  0.00     0.068 C 
HETATM   28  N   UNL     1     -25.263   7.705  -1.070  1.00  0.00    -0.369 N 
HETATM   29  C   UNL     1     -25.881   8.327  -0.045  1.00  0.00     0.100 A 
ATOM     30  HN  UNL     1     -25.783   7.358  -1.876  1.00  0.00     0.165 HD
HETATM   31  C   UNL     1     -25.974   9.457   2.114  1.00  0.00     0.014 A 
HETATM   32  C   UNL     1     -25.336   9.993   3.225  1.00  0.00     0.003 A 
HETATM   33  C   UNL     1     -23.951   9.934   3.309  1.00  0.00     0.030 A 
ENDBRANCH   1  22
TORSDOF 4
ENDMDL
MODEL 8
REMARK VINA RESULT:      -7.3     20.001     21.403
REMARK  4 active torsions:
REMARK  status: ('A' for Active; 'I' for Inactive)
REMARK    1  A    between atoms: C_5  and  N_6 
REMARK       I    between atoms: N_6  and  C_7 
REMARK       I    between atoms: C_7  and  N_9 
REMARK    2  A    between atoms: N_9  and  C_10 
REMARK    3  A    between atoms: C_12  and  C_13 
REMARK    4  A    between atoms: C_12  and  C_15 
ROOT
HETATM    1  N   UNL     1     -21.936   9.028   1.477  1.00  0.00    -0.308 N 
HETATM    2  C   UNL     1     -21.403  10.272   1.639  1.00  0.00     0.321 C 
HETATM    3  O   UNL     1     -21.910  11.336   1.287  1.00  0.00    -0.247 OA
HETATM    4  N   UNL     1     -20.156  10.277   2.186  1.00  0.00    -0.334 N 
HETATM    5  H   UNL     1     -21.213   8.386   1.190  1.00  0.00     0.170 HD
HETATM    6  H   UNL     1     -19.660  11.119   1.924  1.00  0.00     0.165 HD
ENDROOT
BRANCH   4   7
HETATM    7  C   UNL     1     -19.400   9.215   2.835  1.00  0.00     0.125 C 
HETATM    8  C   UNL     1     -19.784   8.999   4.348  1.00  0.00     0.073 C 
HETATM    9  C   UNL     1     -19.635  10.339   5.134  1.00  0.00     0.121 C 
HETATM   10  O   UNL     1     -18.575  11.144   4.542  1.00  0.00    -0.335 OA
HETATM   11  C   UNL     1     -17.583  10.348   4.006  1.00  0.00     0.080 C 
HETATM   12  C   UNL     1     -16.359  10.167   4.630  1.00  0.00     0.061 C 
HETATM   13  C   UNL     1     -17.929   9.551   2.910  1.00  0.00    -0.002 C 
HETATM   14  C   UNL     1     -15.445   9.280   4.057  1.00  0.00     0.036 C 
HETATM   15 CL   UNL     1     -14.048   8.801   4.945  1.00  0.00    -0.084 Cl
HETATM   16  C   UNL     1     -15.692   8.692   2.812  1.00  0.00     0.024 C 
HETATM   17  C   UNL     1     -16.950   8.826   2.226  1.00  0.00     0.013 C 
BRANCH   9  18
HETATM   18  C   UNL     1     -19.264  10.281   6.624  1.00  0.00     0.263 C 
HETATM   19  F   UNL     1     -18.661   9.067   6.855  1.00  0.00    -0.252 F 
ENDBRANCH   9  18
BRANCH   9  20
HETATM   20  C   UNL     1     -21.022  11.019   5.109  1.00  0.00     0.263 C 
HETATM   21  F   UNL     1     -21.968  10.045   4.932  1.00  0.00    -0.252 F 
ENDBRANCH   9  20
ENDBRANCH   4   7
BRANCH   1  22
HETATM   22  C   UNL     1     -23.186   8.782   0.864  1.00  0.00     0.047 A 
HETATM   23  C   UNL     1     -24.443   9.067   1.474  1.00  0.00     0.004 A 
HETATM   24  C   UNL     1     -24.642   9.762   2.693  1.00  0.00     0.039 A 
HETATM   25  C   UNL     1     -25.602   8.578   0.828  1.00  0.00    -0.008 A 
HETATM   26  C   UNL     1     -25.928   9.943   3.207  1.00  0.00     0.005 A 
HETATM   27  C   UNL     1     -26.162  10.729   4.463  1.00  0.00     0.068 C 
HETATM   28  N   UNL     1     -27.027   9.441   2.606  1.00  0.00    -0.369 N 
HETATM   29  C   UNL     1     -26.839   8.782   1.445  1.00  0.00     0.100 A 
ATOM     30  HN  UNL     1     -27.955   9.554   3.012  1.00  0.00     0.165 HD
HETATM   31  C   UNL     1     -25.507   7.887  -0.393  1.00  0.00     0.014 A 
HETATM   32  C   UNL     1     -24.276   7.654  -0.989  1.00  0.00     0.003 A 
HETATM   33  C   UNL     1     -23.119   8.087  -0.355  1.00  0.00     0.030 A 
ENDBRANCH   1  22
TORSDOF 4
ENDMDL
MODEL 9
REMARK VINA RESULT:      -7.3      3.455      7.809
REMARK  4 active torsions:
REMARK  status: ('A' for Active; 'I' for Inactive)
REMARK    1  A    between atoms: C_5  and  N_6 
REMARK       I    between atoms: N_6  and  C_7 
REMARK       I    between atoms: C_7  and  N_9 
REMARK    2  A    between atoms: N_9  and  C_10 
REMARK    3  A    between atoms: C_12  and  C_13 
REMARK    4  A    between atoms: C_12  and  C_15 
ROOT
HETATM    1  N   UNL     1     -17.738 -11.353  -3.362  1.00  0.00    -0.308 N 
HETATM    2  C   UNL     1     -17.949 -10.129  -2.802  1.00  0.00     0.321 C 
HETATM    3  O   UNL     1     -17.159  -9.187  -2.786  1.00  0.00    -0.247 OA
HETATM    4  N   UNL     1     -19.139 -10.012  -2.150  1.00  0.00    -0.334 N 
HETATM    5  H   UNL     1     -18.095 -12.071  -2.750  1.00  0.00     0.170 HD
HETATM    6  H   UNL     1     -19.085  -9.289  -1.445  1.00  0.00     0.165 HD
ENDROOT
BRANCH   4   7
HETATM    7  C   UNL     1     -20.309 -10.880  -2.148  1.00  0.00     0.125 C 
HETATM    8  C   UNL     1     -21.673 -10.102  -2.018  1.00  0.00     0.073 C 
HETATM    9  C   UNL     1     -21.654  -9.199  -0.744  1.00  0.00     0.121 C 
HETATM   10  O   UNL     1     -20.824  -9.812   0.284  1.00  0.00    -0.335 OA
HETATM   11  C   UNL     1     -20.870 -11.189   0.207  1.00  0.00     0.080 C 
HETATM   12  C   UNL     1     -21.598 -11.958   1.101  1.00  0.00     0.061 C 
HETATM   13  C   UNL     1     -20.324 -11.782  -0.936  1.00  0.00    -0.002 C 
HETATM   14  C   UNL     1     -21.653 -13.339   0.900  1.00  0.00     0.036 C 
HETATM   15 CL   UNL     1     -22.778 -14.288   1.796  1.00  0.00    -0.084 Cl
HETATM   16  C   UNL     1     -20.881 -13.956  -0.091  1.00  0.00     0.024 C 
HETATM   17  C   UNL     1     -20.206 -13.172  -1.024  1.00  0.00     0.013 C 
BRANCH   9  18
HETATM   18  C   UNL     1     -22.982  -8.916  -0.024  1.00  0.00     0.263 C 
HETATM   19  F   UNL     1     -23.837  -9.955  -0.306  1.00  0.00    -0.252 F 
ENDBRANCH   9  18
BRANCH   9  20
HETATM   20  C   UNL     1     -21.160  -7.808  -1.200  1.00  0.00     0.263 C 
HETATM   21  F   UNL     1     -22.161  -6.904  -0.963  1.00  0.00    -0.252 F 
ENDBRANCH   9  20
ENDBRANCH   4   7
BRANCH   1  22
HETATM   22  C   UNL     1     -16.543 -11.721  -4.024  1.00  0.00     0.047 A 
HETATM   23  C   UNL     1     -15.491 -12.463  -3.413  1.00  0.00     0.004 A 
HETATM   24  C   UNL     1     -15.528 -13.067  -2.132  1.00  0.00     0.039 A 
HETATM   25  C   UNL     1     -14.277 -12.577  -4.131  1.00  0.00    -0.008 A 
HETATM   26  C   UNL     1     -14.410 -13.736  -1.628  1.00  0.00     0.005 A 
HETATM   27  C   UNL     1     -14.452 -14.434  -0.301  1.00  0.00     0.068 C 
HETATM   28  N   UNL     1     -13.243 -13.808  -2.301  1.00  0.00    -0.369 N 
HETATM   29  C   UNL     1     -13.207 -13.236  -3.522  1.00  0.00     0.100 A 
ATOM     30  HN  UNL     1     -12.426 -14.273  -1.905  1.00  0.00     0.165 HD
HETATM   31  C   UNL     1     -14.148 -12.022  -5.417  1.00  0.00     0.014 A 
HETATM   32  C   UNL     1     -15.200 -11.336  -6.009  1.00  0.00     0.003 A 
HETATM   33  C   UNL     1     -16.388 -11.174  -5.308  1.00  0.00     0.030 A 
ENDBRANCH   1  22
TORSDOF 4
ENDMDL
