REMARK  6 active torsions:
REMARK  status: ('A' for Active; 'I' for Inactive)
REMARK    1  A    between atoms: C_2  and  O_4 
REMARK    2  A    between atoms: C_2  and  C_5 
REMARK    3  A    between atoms: C_10  and  C_11 
REMARK    4  A    between atoms: C_17  and  C_18 
REMARK    5  A    between atoms: C_19  and  C_20 
REMARK    6  A    between atoms: C_23  and  C_24 
ROOT
HETATM    1  C   UNL     1       0.581  -2.380  -0.898  1.00  0.00    -0.023 C 
HETATM    2  C   UNL     1       0.715  -1.845  -2.205  1.00  0.00     0.014 C 
HETATM    3  C   UNL     1      -0.357  -1.365  -2.959  1.00  0.00     0.033 C 
HETATM    4  C   UNL     1      -1.637  -1.558  -2.465  1.00  0.00     0.060 A 
HETATM    5  N   UNL     1      -2.810  -1.198  -3.037  1.00  0.00    -0.341 N 
ATOM      6  HN  UNL     1      -2.931  -0.683  -3.909  1.00  0.00     0.167 HD
HETATM    7  C   UNL     1      -3.762  -1.641  -2.249  1.00  0.00     0.106 A 
HETATM    8  N   UNL     1      -3.216  -2.274  -1.148  1.00  0.00    -0.341 N 
HETATM    9  C   UNL     1      -1.834  -2.189  -1.249  1.00  0.00     0.061 A 
HETATM   10  C   UNL     1      -0.745  -2.565  -0.426  1.00  0.00     0.044 C 
HETATM   11  H   UNL     1      -3.728  -2.728  -0.405  1.00  0.00     0.167 HD
ENDROOT
BRANCH   7  12
HETATM   12  C   UNL     1      -5.158  -1.493  -2.459  1.00  0.00     0.049 C 
HETATM   13  C   UNL     1      -5.498  -0.671  -3.476  1.00  0.00     0.015 C 
BRANCH  13  14
HETATM   14  C   UNL     1      -6.807  -0.223  -3.956  1.00  0.00    -0.036 A 
HETATM   15  C   UNL     1      -6.869   1.072  -4.493  1.00  0.00     0.012 A 
HETATM   16  C   UNL     1      -8.062   1.593  -4.990  1.00  0.00     0.017 A 
HETATM   17  C   UNL     1      -9.229   0.818  -4.971  1.00  0.00     0.048 A 
HETATM   18  C   UNL     1      -9.152  -0.503  -4.492  1.00  0.00     0.017 A 
HETATM   19  C   UNL     1      -7.950  -1.022  -3.990  1.00  0.00     0.012 A 
BRANCH  17  20
HETATM   20  C   UNL     1     -10.542   1.399  -5.429  1.00  0.00     0.417 C 
HETATM   21  F   UNL     1     -10.458   2.701  -5.820  1.00  0.00    -0.166 F 
HETATM   22  F   UNL     1     -11.077   0.721  -6.488  1.00  0.00    -0.166 F 
HETATM   23  F   UNL     1     -11.488   1.367  -4.449  1.00  0.00    -0.166 F 
ENDBRANCH  17  20
ENDBRANCH  13  14
ENDBRANCH   7  12
BRANCH   1  24
HETATM   24  C   UNL     1       1.840  -2.540  -0.063  1.00  0.00    -0.017 A 
HETATM   25  C   UNL     1       2.119  -3.459   0.987  1.00  0.00    -0.014 A 
HETATM   26  C   UNL     1       3.323  -3.261   1.745  1.00  0.00     0.011 A 
HETATM   27  C   UNL     1       4.279  -2.296   1.445  1.00  0.00     0.001 A 
HETATM   28  C   UNL     1       4.069  -1.473   0.367  1.00  0.00     0.001 A 
HETATM   29  C   UNL     1       2.872  -1.581  -0.338  1.00  0.00     0.013 A 
BRANCH  25  30
HETATM   30  C   UNL     1       1.291  -4.676   1.434  1.00  0.00     0.078 C 
HETATM   31  C   UNL     1       0.587  -5.474   0.333  1.00  0.00     0.051 C 
HETATM   32  C   UNL     1       0.368  -4.277   2.595  1.00  0.00     0.051 C 
BRANCH  30  33
HETATM   33  O   UNL     1       2.206  -5.654   2.000  1.00  0.00    -0.386 OA
HETATM   34  H   UNL     1       1.682  -6.396   2.342  1.00  0.00     0.211 HD
ENDBRANCH  30  33
ENDBRANCH  25  30
ENDBRANCH   1  24
TORSDOF 6
