MODEL 1
REMARK VINA RESULT:     -10.7      0.000      0.000
REMARK  6 active torsions:
REMARK  status: ('A' for Active; 'I' for Inactive)
REMARK    1  A    between atoms: C_2  and  O_4 
REMARK    2  A    between atoms: C_2  and  C_5 
REMARK    3  A    between atoms: C_10  and  C_11 
REMARK    4  A    between atoms: C_17  and  C_18 
REMARK    5  A    between atoms: C_19  and  C_20 
REMARK    6  A    between atoms: C_23  and  C_24 
ROOT
HETATM    1  C   UNL     1     -21.728  -9.700  -0.781  1.00  0.00    -0.023 C 
HETATM    2  C   UNL     1     -22.195  -8.552  -0.091  1.00  0.00     0.014 C 
HETATM    3  C   UNL     1     -22.323  -7.293  -0.681  1.00  0.00     0.033 C 
HETATM    4  C   UNL     1     -21.828  -7.123  -1.963  1.00  0.00     0.060 A 
HETATM    5  N   UNL     1     -21.826  -5.993  -2.709  1.00  0.00    -0.341 N 
ATOM      6  HN  UNL     1     -22.233  -5.093  -2.454  1.00  0.00     0.167 HD
HETATM    7  C   UNL     1     -21.196  -6.282  -3.824  1.00  0.00     0.106 A 
HETATM    8  N   UNL     1     -20.803  -7.607  -3.822  1.00  0.00    -0.341 N 
HETATM    9  C   UNL     1     -21.246  -8.182  -2.639  1.00  0.00     0.061 A 
HETATM   10  C   UNL     1     -21.227  -9.487  -2.092  1.00  0.00     0.044 C 
HETATM   11  H   UNL     1     -20.277  -8.075  -4.547  1.00  0.00     0.167 HD
ENDROOT
BRANCH   7  12
HETATM   12  C   UNL     1     -20.954  -5.391  -4.902  1.00  0.00     0.049 C 
HETATM   13  C   UNL     1     -21.640  -5.663  -6.033  1.00  0.00     0.015 C 
BRANCH  13  14
HETATM   14  C   UNL     1     -21.616  -5.027  -7.352  1.00  0.00    -0.036 A 
HETATM   15  C   UNL     1     -20.421  -5.137  -8.079  1.00  0.00     0.012 A 
HETATM   16  C   UNL     1     -20.293  -4.579  -9.350  1.00  0.00     0.017 A 
HETATM   17  C   UNL     1     -21.373  -3.902  -9.932  1.00  0.00     0.048 A 
HETATM   18  C   UNL     1     -22.591  -3.848  -9.229  1.00  0.00     0.017 A 
HETATM   19  C   UNL     1     -22.714  -4.407  -7.949  1.00  0.00     0.012 A 
BRANCH  17  20
HETATM   20  C   UNL     1     -21.221  -3.224 -11.269  1.00  0.00     0.417 C 
HETATM   21  F   UNL     1     -21.410  -4.057 -12.330  1.00  0.00    -0.166 F 
HETATM   22  F   UNL     1     -22.101  -2.192 -11.439  1.00  0.00    -0.166 F 
HETATM   23  F   UNL     1     -19.980  -2.688 -11.436  1.00  0.00    -0.166 F 
ENDBRANCH  17  20
ENDBRANCH  13  14
ENDBRANCH   7  12
BRANCH   1  24
HETATM   24  C   UNL     1     -21.963 -11.058  -0.140  1.00  0.00    -0.017 A 
HETATM   25  C   UNL     1     -21.040 -12.113   0.108  1.00  0.00    -0.014 A 
HETATM   26  C   UNL     1     -21.571 -13.373   0.548  1.00  0.00     0.011 A 
HETATM   27  C   UNL     1     -22.912 -13.589   0.847  1.00  0.00     0.001 A 
HETATM   28  C   UNL     1     -23.793 -12.546   0.712  1.00  0.00     0.001 A 
HETATM   29  C   UNL     1     -23.328 -11.334   0.206  1.00  0.00     0.013 A 
BRANCH  25  30
HETATM   30  C   UNL     1     -19.508 -12.091  -0.025  1.00  0.00     0.078 C 
HETATM   31  C   UNL     1     -18.938 -11.593  -1.356  1.00  0.00     0.051 C 
HETATM   32  C   UNL     1     -18.928 -13.438   0.432  1.00  0.00     0.051 C 
BRANCH  30  33
HETATM   33  O   UNL     1     -18.992 -11.118   0.925  1.00  0.00    -0.386 OA
HETATM   34  H   UNL     1     -19.732 -10.567   1.225  1.00  0.00     0.211 HD
ENDBRANCH  30  33
ENDBRANCH  25  30
ENDBRANCH   1  24
TORSDOF 6
ENDMDL
MODEL 2
REMARK VINA RESULT:     -10.0      1.245      2.498
REMARK  6 active torsions:
REMARK  status: ('A' for Active; 'I' for Inactive)
REMARK    1  A    between atoms: C_2  and  O_4 
REMARK    2  A    between atoms: C_2  and  C_5 
REMARK    3  A    between atoms: C_10  and  C_11 
REMARK    4  A    between atoms: C_17  and  C_18 
REMARK    5  A    between atoms: C_19  and  C_20 
REMARK    6  A    between atoms: C_23  and  C_24 
ROOT
HETATM    1  C   UNL     1     -20.727 -10.241  -1.150  1.00  0.00    -0.023 C 
HETATM    2  C   UNL     1     -21.150  -9.199  -0.285  1.00  0.00     0.014 C 
HETATM    3  C   UNL     1     -21.471  -7.912  -0.721  1.00  0.00     0.033 C 
HETATM    4  C   UNL     1     -21.220  -7.594  -2.046  1.00  0.00     0.060 A 
HETATM    5  N   UNL     1     -21.430  -6.411  -2.669  1.00  0.00    -0.341 N 
ATOM      6  HN  UNL     1     -21.853  -5.575  -2.265  1.00  0.00     0.167 HD
HETATM    7  C   UNL     1     -20.985  -6.550  -3.896  1.00  0.00     0.106 A 
HETATM    8  N   UNL     1     -20.501  -7.830  -4.088  1.00  0.00    -0.341 N 
HETATM    9  C   UNL     1     -20.688  -8.538  -2.908  1.00  0.00     0.061 A 
HETATM   10  C   UNL     1     -20.478  -9.877  -2.499  1.00  0.00     0.044 C 
HETATM   11  H   UNL     1     -20.076  -8.189  -4.931  1.00  0.00     0.167 HD
ENDROOT
BRANCH   7  12
HETATM   12  C   UNL     1     -21.000  -5.555  -4.909  1.00  0.00     0.049 C 
HETATM   13  C   UNL     1     -21.066  -6.028  -6.173  1.00  0.00     0.015 C 
BRANCH  13  14
HETATM   14  C   UNL     1     -21.039  -5.336  -7.463  1.00  0.00    -0.036 A 
HETATM   15  C   UNL     1     -22.210  -4.658  -7.836  1.00  0.00     0.012 A 
HETATM   16  C   UNL     1     -22.289  -3.957  -9.037  1.00  0.00     0.017 A 
HETATM   17  C   UNL     1     -21.183  -3.908  -9.896  1.00  0.00     0.048 A 
HETATM   18  C   UNL     1     -19.989  -4.534  -9.492  1.00  0.00     0.017 A 
HETATM   19  C   UNL     1     -19.915  -5.241  -8.284  1.00  0.00     0.012 A 
BRANCH  17  20
HETATM   20  C   UNL     1     -21.282  -3.223 -11.235  1.00  0.00     0.417 C 
HETATM   21  F   UNL     1     -22.303  -2.325 -11.316  1.00  0.00    -0.166 F 
HETATM   22  F   UNL     1     -20.147  -2.534 -11.559  1.00  0.00    -0.166 F 
HETATM   23  F   UNL     1     -21.486  -4.107 -12.251  1.00  0.00    -0.166 F 
ENDBRANCH  17  20
ENDBRANCH  13  14
ENDBRANCH   7  12
BRANCH   1  24
HETATM   24  C   UNL     1     -20.746 -11.662  -0.613  1.00  0.00    -0.017 A 
HETATM   25  C   UNL     1     -21.852 -12.528  -0.383  1.00  0.00    -0.014 A 
HETATM   26  C   UNL     1     -21.603 -13.755   0.321  1.00  0.00     0.011 A 
HETATM   27  C   UNL     1     -20.337 -14.194   0.692  1.00  0.00     0.001 A 
HETATM   28  C   UNL     1     -19.251 -13.414   0.379  1.00  0.00     0.001 A 
HETATM   29  C   UNL     1     -19.464 -12.178  -0.227  1.00  0.00     0.013 A 
BRANCH  25  30
HETATM   30  C   UNL     1     -23.319 -12.332  -0.801  1.00  0.00     0.078 C 
HETATM   31  C   UNL     1     -24.095 -11.216  -0.096  1.00  0.00     0.051 C 
HETATM   32  C   UNL     1     -24.044 -13.686  -0.799  1.00  0.00     0.051 C 
BRANCH  30  33
HETATM   33  O   UNL     1     -23.333 -11.900  -2.189  1.00  0.00    -0.386 OA
HETATM   34  H   UNL     1     -23.660 -12.636  -2.732  1.00  0.00     0.211 HD
ENDBRANCH  30  33
ENDBRANCH  25  30
ENDBRANCH   1  24
TORSDOF 6
ENDMDL
MODEL 3
REMARK VINA RESULT:      -9.7      6.054     11.406
REMARK  6 active torsions:
REMARK  status: ('A' for Active; 'I' for Inactive)
REMARK    1  A    between atoms: C_2  and  O_4 
REMARK    2  A    between atoms: C_2  and  C_5 
REMARK    3  A    between atoms: C_10  and  C_11 
REMARK    4  A    between atoms: C_17  and  C_18 
REMARK    5  A    between atoms: C_19  and  C_20 
REMARK    6  A    between atoms: C_23  and  C_24 
ROOT
HETATM    1  C   UNL     1     -21.326  -5.177  -7.480  1.00  0.00    -0.023 C 
HETATM    2  C   UNL     1     -20.815  -4.334  -6.461  1.00  0.00     0.014 C 
HETATM    3  C   UNL     1     -20.414  -4.792  -5.205  1.00  0.00     0.033 C 
HETATM    4  C   UNL     1     -20.667  -6.116  -4.885  1.00  0.00     0.060 A 
HETATM    5  N   UNL     1     -20.387  -6.758  -3.726  1.00  0.00    -0.341 N 
ATOM      6  HN  UNL     1     -19.900  -6.372  -2.917  1.00  0.00     0.167 HD
HETATM    7  C   UNL     1     -20.865  -7.975  -3.848  1.00  0.00     0.106 A 
HETATM    8  N   UNL     1     -21.441  -8.141  -5.094  1.00  0.00    -0.341 N 
HETATM    9  C   UNL     1     -21.280  -6.956  -5.799  1.00  0.00     0.061 A 
HETATM   10  C   UNL     1     -21.575  -6.526  -7.116  1.00  0.00     0.044 C 
HETATM   11  H   UNL     1     -21.906  -8.971  -5.431  1.00  0.00     0.167 HD
ENDROOT
BRANCH   7  12
HETATM   12  C   UNL     1     -20.801  -9.000  -2.868  1.00  0.00     0.049 C 
HETATM   13  C   UNL     1     -21.994  -9.526  -2.515  1.00  0.00     0.015 C 
BRANCH  13  14
HETATM   14  C   UNL     1     -22.343 -10.538  -1.514  1.00  0.00    -0.036 A 
HETATM   15  C   UNL     1     -21.360 -10.840  -0.559  1.00  0.00     0.012 A 
HETATM   16  C   UNL     1     -21.591 -11.778   0.445  1.00  0.00     0.017 A 
HETATM   17  C   UNL     1     -22.828 -12.432   0.524  1.00  0.00     0.048 A 
HETATM   18  C   UNL     1     -23.835 -12.081  -0.394  1.00  0.00     0.017 A 
HETATM   19  C   UNL     1     -23.596 -11.140  -1.405  1.00  0.00     0.012 A 
BRANCH  17  20
HETATM   20  C   UNL     1     -23.061 -13.507   1.554  1.00  0.00     0.417 C 
HETATM   21  F   UNL     1     -24.141 -13.277   2.351  1.00  0.00    -0.166 F 
HETATM   22  F   UNL     1     -23.260 -14.738   0.995  1.00  0.00    -0.166 F 
HETATM   23  F   UNL     1     -22.001 -13.648   2.399  1.00  0.00    -0.166 F 
ENDBRANCH  17  20
ENDBRANCH  13  14
ENDBRANCH   7  12
BRANCH   1  24
HETATM   24  C   UNL     1     -21.395  -4.623  -8.893  1.00  0.00    -0.017 A 
HETATM   25  C   UNL     1     -22.533  -4.318  -9.691  1.00  0.00    -0.014 A 
HETATM   26  C   UNL     1     -22.312  -3.991 -11.072  1.00  0.00     0.011 A 
HETATM   27  C   UNL     1     -21.051  -3.850 -11.644  1.00  0.00     0.001 A 
HETATM   28  C   UNL     1     -19.945  -4.038 -10.854  1.00  0.00     0.001 A 
HETATM   29  C   UNL     1     -20.123  -4.440  -9.532  1.00  0.00     0.013 A 
BRANCH  25  30
HETATM   30  C   UNL     1     -24.012  -4.281  -9.268  1.00  0.00     0.078 C 
HETATM   31  C   UNL     1     -24.823  -5.562  -9.480  1.00  0.00     0.051 C 
HETATM   32  C   UNL     1     -24.683  -3.023  -9.839  1.00  0.00     0.051 C 
BRANCH  30  33
HETATM   33  O   UNL     1     -24.059  -4.110  -7.825  1.00  0.00    -0.386 OA
HETATM   34  H   UNL     1     -23.648  -4.888  -7.415  1.00  0.00     0.211 HD
ENDBRANCH  30  33
ENDBRANCH  25  30
ENDBRANCH   1  24
TORSDOF 6
ENDMDL
MODEL 4
REMARK VINA RESULT:      -8.8      2.395      3.857
REMARK  6 active torsions:
REMARK  status: ('A' for Active; 'I' for Inactive)
REMARK    1  A    between atoms: C_2  and  O_4 
REMARK    2  A    between atoms: C_2  and  C_5 
REMARK    3  A    between atoms: C_10  and  C_11 
REMARK    4  A    between atoms: C_17  and  C_18 
REMARK    5  A    between atoms: C_19  and  C_20 
REMARK    6  A    between atoms: C_23  and  C_24 
ROOT
HETATM    1  C   UNL     1     -22.198 -12.873   0.985  1.00  0.00    -0.023 C 
HETATM    2  C   UNL     1     -23.443 -12.686   0.331  1.00  0.00     0.014 C 
HETATM    3  C   UNL     1     -23.648 -11.765  -0.697  1.00  0.00     0.033 C 
HETATM    4  C   UNL     1     -22.621 -10.883  -0.993  1.00  0.00     0.060 A 
HETATM    5  N   UNL     1     -22.614  -9.901  -1.926  1.00  0.00    -0.341 N 
ATOM      6  HN  UNL     1     -23.355  -9.688  -2.593  1.00  0.00     0.167 HD
HETATM    7  C   UNL     1     -21.464  -9.279  -1.804  1.00  0.00     0.106 A 
HETATM    8  N   UNL     1     -20.707  -9.863  -0.806  1.00  0.00    -0.341 N 
HETATM    9  C   UNL     1     -21.425 -10.937  -0.299  1.00  0.00     0.061 A 
HETATM   10  C   UNL     1     -21.171 -11.949   0.658  1.00  0.00     0.044 C 
HETATM   11  H   UNL     1     -19.796  -9.559  -0.492  1.00  0.00     0.167 HD
ENDROOT
BRANCH   7  12
HETATM   12  C   UNL     1     -21.025  -8.174  -2.580  1.00  0.00     0.049 C 
HETATM   13  C   UNL     1     -21.495  -8.145  -3.847  1.00  0.00     0.015 C 
BRANCH  13  14
HETATM   14  C   UNL     1     -21.227  -7.222  -4.952  1.00  0.00    -0.036 A 
HETATM   15  C   UNL     1     -22.230  -6.286  -5.245  1.00  0.00     0.012 A 
HETATM   16  C   UNL     1     -22.073  -5.353  -6.268  1.00  0.00     0.017 A 
HETATM   17  C   UNL     1     -20.892  -5.329  -7.022  1.00  0.00     0.048 A 
HETATM   18  C   UNL     1     -19.860  -6.225  -6.686  1.00  0.00     0.017 A 
HETATM   19  C   UNL     1     -20.024  -7.164  -5.657  1.00  0.00     0.012 A 
BRANCH  17  20
HETATM   20  C   UNL     1     -20.744  -4.380  -8.184  1.00  0.00     0.417 C 
HETATM   21  F   UNL     1     -21.892  -3.722  -8.503  1.00  0.00    -0.166 F 
HETATM   22  F   UNL     1     -19.806  -3.413  -7.957  1.00  0.00    -0.166 F 
HETATM   23  F   UNL     1     -20.353  -5.019  -9.322  1.00  0.00    -0.166 F 
ENDBRANCH  17  20
ENDBRANCH  13  14
ENDBRANCH   7  12
BRANCH   1  24
HETATM   24  C   UNL     1     -22.018 -14.124   1.827  1.00  0.00    -0.017 A 
HETATM   25  C   UNL     1     -21.191 -15.259   1.597  1.00  0.00    -0.014 A 
HETATM   26  C   UNL     1     -21.362 -16.396   2.458  1.00  0.00     0.011 A 
HETATM   27  C   UNL     1     -22.207 -16.412   3.563  1.00  0.00     0.001 A 
HETATM   28  C   UNL     1     -22.931 -15.283   3.856  1.00  0.00     0.001 A 
HETATM   29  C   UNL     1     -22.853 -14.192   2.992  1.00  0.00     0.013 A 
BRANCH  25  30
HETATM   30  C   UNL     1     -20.100 -15.442   0.527  1.00  0.00     0.078 C 
HETATM   31  C   UNL     1     -18.830 -14.603   0.686  1.00  0.00     0.051 C 
HETATM   32  C   UNL     1     -20.727 -15.357  -0.872  1.00  0.00     0.051 C 
BRANCH  30  33
HETATM   33  O   UNL     1     -19.598 -16.803   0.632  1.00  0.00    -0.386 OA
HETATM   34  H   UNL     1     -20.248 -17.328   1.125  1.00  0.00     0.211 HD
ENDBRANCH  30  33
ENDBRANCH  25  30
ENDBRANCH   1  24
TORSDOF 6
ENDMDL
MODEL 5
REMARK VINA RESULT:      -8.8      1.734      2.971
REMARK  6 active torsions:
REMARK  status: ('A' for Active; 'I' for Inactive)
REMARK    1  A    between atoms: C_2  and  O_4 
REMARK    2  A    between atoms: C_2  and  C_5 
REMARK    3  A    between atoms: C_10  and  C_11 
REMARK    4  A    between atoms: C_17  and  C_18 
REMARK    5  A    between atoms: C_19  and  C_20 
REMARK    6  A    between atoms: C_23  and  C_24 
ROOT
HETATM    1  C   UNL     1     -19.445 -11.625  -0.182  1.00  0.00    -0.023 C 
HETATM    2  C   UNL     1     -20.262 -10.929   0.746  1.00  0.00     0.014 C 
HETATM    3  C   UNL     1     -21.026  -9.808   0.417  1.00  0.00     0.033 C 
HETATM    4  C   UNL     1     -20.862  -9.257  -0.844  1.00  0.00     0.060 A 
HETATM    5  N   UNL     1     -21.477  -8.167  -1.360  1.00  0.00    -0.341 N 
ATOM      6  HN  UNL     1     -22.198  -7.603  -0.909  1.00  0.00     0.167 HD
HETATM    7  C   UNL     1     -20.965  -7.978  -2.553  1.00  0.00     0.106 A 
HETATM    8  N   UNL     1     -20.028  -8.955  -2.832  1.00  0.00    -0.341 N 
HETATM    9  C   UNL     1     -19.981  -9.823  -1.750  1.00  0.00     0.061 A 
HETATM   10  C   UNL     1     -19.299 -11.030  -1.463  1.00  0.00     0.044 C 
HETATM   11  H   UNL     1     -19.467  -9.023  -3.670  1.00  0.00     0.167 HD
ENDROOT
BRANCH   7  12
HETATM   12  C   UNL     1     -21.313  -6.940  -3.458  1.00  0.00     0.049 C 
HETATM   13  C   UNL     1     -20.942  -7.153  -4.740  1.00  0.00     0.015 C 
BRANCH  13  14
HETATM   14  C   UNL     1     -21.063  -6.309  -5.930  1.00  0.00    -0.036 A 
HETATM   15  C   UNL     1     -19.994  -6.350  -6.839  1.00  0.00     0.012 A 
HETATM   16  C   UNL     1     -20.012  -5.595  -8.011  1.00  0.00     0.017 A 
HETATM   17  C   UNL     1     -21.115  -4.784  -8.308  1.00  0.00     0.048 A 
HETATM   18  C   UNL     1     -22.213  -4.793  -7.428  1.00  0.00     0.017 A 
HETATM   19  C   UNL     1     -22.190  -5.551  -6.248  1.00  0.00     0.012 A 
BRANCH  17  20
HETATM   20  C   UNL     1     -21.110  -3.901  -9.529  1.00  0.00     0.417 C 
HETATM   21  F   UNL     1     -22.185  -3.069  -9.607  1.00  0.00    -0.166 F 
HETATM   22  F   UNL     1     -20.006  -3.099  -9.594  1.00  0.00    -0.166 F 
HETATM   23  F   UNL     1     -21.116  -4.623 -10.685  1.00  0.00    -0.166 F 
ENDBRANCH  17  20
ENDBRANCH  13  14
ENDBRANCH   7  12
BRANCH   1  24
HETATM   24  C   UNL     1     -18.950 -13.008   0.205  1.00  0.00    -0.017 A 
HETATM   25  C   UNL     1     -17.617 -13.485   0.346  1.00  0.00    -0.014 A 
HETATM   26  C   UNL     1     -17.429 -14.897   0.529  1.00  0.00     0.011 A 
HETATM   27  C   UNL     1     -18.472 -15.805   0.684  1.00  0.00     0.001 A 
HETATM   28  C   UNL     1     -19.762 -15.337   0.656  1.00  0.00     0.001 A 
HETATM   29  C   UNL     1     -19.982 -13.987   0.395  1.00  0.00     0.013 A 
BRANCH  25  30
HETATM   30  C   UNL     1     -16.308 -12.676   0.336  1.00  0.00     0.078 C 
HETATM   31  C   UNL     1     -15.964 -11.935  -0.959  1.00  0.00     0.051 C 
HETATM   32  C   UNL     1     -15.160 -13.540   0.878  1.00  0.00     0.051 C 
BRANCH  30  33
HETATM   33  O   UNL     1     -16.448 -11.592   1.296  1.00  0.00    -0.386 OA
HETATM   34  H   UNL     1     -17.276 -11.123   1.104  1.00  0.00     0.211 HD
ENDBRANCH  30  33
ENDBRANCH  25  30
ENDBRANCH   1  24
TORSDOF 6
ENDMDL
MODEL 6
REMARK VINA RESULT:      -8.7      5.989     11.207
REMARK  6 active torsions:
REMARK  status: ('A' for Active; 'I' for Inactive)
REMARK    1  A    between atoms: C_2  and  O_4 
REMARK    2  A    between atoms: C_2  and  C_5 
REMARK    3  A    between atoms: C_10  and  C_11 
REMARK    4  A    between atoms: C_17  and  C_18 
REMARK    5  A    between atoms: C_19  and  C_20 
REMARK    6  A    between atoms: C_23  and  C_24 
ROOT
HETATM    1  C   UNL     1     -22.131  -4.829  -6.731  1.00  0.00    -0.023 C 
HETATM    2  C   UNL     1     -20.952  -4.246  -6.199  1.00  0.00     0.014 C 
HETATM    3  C   UNL     1     -20.268  -4.753  -5.094  1.00  0.00     0.033 C 
HETATM    4  C   UNL     1     -20.852  -5.793  -4.389  1.00  0.00     0.060 A 
HETATM    5  N   UNL     1     -20.379  -6.415  -3.283  1.00  0.00    -0.341 N 
ATOM      6  HN  UNL     1     -19.487  -6.241  -2.820  1.00  0.00     0.167 HD
HETATM    7  C   UNL     1     -21.292  -7.287  -2.924  1.00  0.00     0.106 A 
HETATM    8  N   UNL     1     -22.357  -7.254  -3.805  1.00  0.00    -0.341 N 
HETATM    9  C   UNL     1     -22.067  -6.320  -4.791  1.00  0.00     0.061 A 
HETATM   10  C   UNL     1     -22.702  -5.891  -5.981  1.00  0.00     0.044 C 
HETATM   11  H   UNL     1     -23.203  -7.803  -3.741  1.00  0.00     0.167 HD
ENDROOT
BRANCH   7  12
HETATM   12  C   UNL     1     -21.220  -8.163  -1.810  1.00  0.00     0.049 C 
HETATM   13  C   UNL     1     -21.907  -9.319  -1.947  1.00  0.00     0.015 C 
BRANCH  13  14
HETATM   14  C   UNL     1     -22.123 -10.427  -1.015  1.00  0.00    -0.036 A 
HETATM   15  C   UNL     1     -23.454 -10.821  -0.806  1.00  0.00     0.012 A 
HETATM   16  C   UNL     1     -23.771 -11.872   0.051  1.00  0.00     0.017 A 
HETATM   17  C   UNL     1     -22.754 -12.568   0.716  1.00  0.00     0.048 A 
HETATM   18  C   UNL     1     -21.416 -12.216   0.457  1.00  0.00     0.017 A 
HETATM   19  C   UNL     1     -21.102 -11.155  -0.404  1.00  0.00     0.012 A 
BRANCH  17  20
HETATM   20  C   UNL     1     -23.089 -13.653   1.708  1.00  0.00     0.417 C 
HETATM   21  F   UNL     1     -24.166 -13.365   2.490  1.00  0.00    -0.166 F 
HETATM   22  F   UNL     1     -23.367 -14.848   1.107  1.00  0.00    -0.166 F 
HETATM   23  F   UNL     1     -22.061 -13.898   2.568  1.00  0.00    -0.166 F 
ENDBRANCH  17  20
ENDBRANCH  13  14
ENDBRANCH   7  12
BRANCH   1  24
HETATM   24  C   UNL     1     -22.574  -4.397  -8.118  1.00  0.00    -0.017 A 
HETATM   25  C   UNL     1     -21.793  -4.148  -9.281  1.00  0.00    -0.014 A 
HETATM   26  C   UNL     1     -22.450  -3.556 -10.413  1.00  0.00     0.011 A 
HETATM   27  C   UNL     1     -23.818  -3.315 -10.477  1.00  0.00     0.001 A 
HETATM   28  C   UNL     1     -24.598  -3.651  -9.398  1.00  0.00     0.001 A 
HETATM   29  C   UNL     1     -23.981  -4.147  -8.252  1.00  0.00     0.013 A 
BRANCH  25  30
HETATM   30  C   UNL     1     -20.299  -4.439  -9.507  1.00  0.00     0.078 C 
HETATM   31  C   UNL     1     -19.304  -3.615  -8.684  1.00  0.00     0.051 C 
HETATM   32  C   UNL     1     -19.995  -4.453 -11.012  1.00  0.00     0.051 C 
BRANCH  30  33
HETATM   33  O   UNL     1     -20.036  -5.797  -9.057  1.00  0.00    -0.386 OA
HETATM   34  H   UNL     1     -19.307  -6.155  -9.588  1.00  0.00     0.211 HD
ENDBRANCH  30  33
ENDBRANCH  25  30
ENDBRANCH   1  24
TORSDOF 6
ENDMDL
MODEL 7
REMARK VINA RESULT:      -8.3      4.081      6.203
REMARK  6 active torsions:
REMARK  status: ('A' for Active; 'I' for Inactive)
REMARK    1  A    between atoms: C_2  and  O_4 
REMARK    2  A    between atoms: C_2  and  C_5 
REMARK    3  A    between atoms: C_10  and  C_11 
REMARK    4  A    between atoms: C_17  and  C_18 
REMARK    5  A    between atoms: C_19  and  C_20 
REMARK    6  A    between atoms: C_23  and  C_24 
ROOT
HETATM    1  C   UNL     1     -15.948 -12.753  -1.056  1.00  0.00    -0.023 C 
HETATM    2  C   UNL     1     -17.129 -13.500  -0.812  1.00  0.00     0.014 C 
HETATM    3  C   UNL     1     -18.403 -13.084  -1.201  1.00  0.00     0.033 C 
HETATM    4  C   UNL     1     -18.539 -11.807  -1.721  1.00  0.00     0.060 A 
HETATM    5  N   UNL     1     -19.675 -11.197  -2.136  1.00  0.00    -0.341 N 
ATOM      6  HN  UNL     1     -20.608 -11.606  -2.172  1.00  0.00     0.167 HD
HETATM    7  C   UNL     1     -19.338  -9.977  -2.484  1.00  0.00     0.106 A 
HETATM    8  N   UNL     1     -17.978  -9.790  -2.318  1.00  0.00    -0.341 N 
HETATM    9  C   UNL     1     -17.435 -10.985  -1.866  1.00  0.00     0.061 A 
HETATM   10  C   UNL     1     -16.127 -11.448  -1.588  1.00  0.00     0.044 C 
HETATM   11  H   UNL     1     -17.468  -8.934  -2.485  1.00  0.00     0.167 HD
ENDROOT
BRANCH   7  12
HETATM   12  C   UNL     1     -20.215  -8.976  -2.978  1.00  0.00     0.049 C 
HETATM   13  C   UNL     1     -19.904  -8.501  -4.204  1.00  0.00     0.015 C 
BRANCH  13  14
HETATM   14  C   UNL     1     -20.516  -7.442  -5.010  1.00  0.00    -0.036 A 
HETATM   15  C   UNL     1     -19.727  -6.898  -6.035  1.00  0.00     0.012 A 
HETATM   16  C   UNL     1     -20.216  -5.895  -6.870  1.00  0.00     0.017 A 
HETATM   17  C   UNL     1     -21.522  -5.417  -6.704  1.00  0.00     0.048 A 
HETATM   18  C   UNL     1     -22.334  -6.008  -5.718  1.00  0.00     0.017 A 
HETATM   19  C   UNL     1     -21.837  -7.015  -4.878  1.00  0.00     0.012 A 
BRANCH  17  20
HETATM   20  C   UNL     1     -22.034  -4.277  -7.545  1.00  0.00     0.417 C 
HETATM   21  F   UNL     1     -21.677  -4.361  -8.857  1.00  0.00    -0.166 F 
HETATM   22  F   UNL     1     -23.397  -4.181  -7.530  1.00  0.00    -0.166 F 
HETATM   23  F   UNL     1     -21.570  -3.071  -7.113  1.00  0.00    -0.166 F 
ENDBRANCH  17  20
ENDBRANCH  13  14
ENDBRANCH   7  12
BRANCH   1  24
HETATM   24  C   UNL     1     -14.613 -13.461  -0.900  1.00  0.00    -0.017 A 
HETATM   25  C   UNL     1     -13.788 -14.065  -1.890  1.00  0.00    -0.014 A 
HETATM   26  C   UNL     1     -12.667 -14.843  -1.440  1.00  0.00     0.011 A 
HETATM   27  C   UNL     1     -12.282 -14.952  -0.108  1.00  0.00     0.001 A 
HETATM   28  C   UNL     1     -13.011 -14.285   0.845  1.00  0.00     0.001 A 
HETATM   29  C   UNL     1     -14.154 -13.590   0.453  1.00  0.00     0.013 A 
BRANCH  25  30
HETATM   30  C   UNL     1     -13.926 -13.992  -3.420  1.00  0.00     0.078 C 
HETATM   31  C   UNL     1     -13.730 -12.618  -4.067  1.00  0.00     0.051 C 
HETATM   32  C   UNL     1     -15.214 -14.704  -3.859  1.00  0.00     0.051 C 
BRANCH  30  33
HETATM   33  O   UNL     1     -12.847 -14.774  -4.003  1.00  0.00    -0.386 OA
HETATM   34  H   UNL     1     -12.149 -14.870  -3.335  1.00  0.00     0.211 HD
ENDBRANCH  30  33
ENDBRANCH  25  30
ENDBRANCH   1  24
TORSDOF 6
ENDMDL
MODEL 8
REMARK VINA RESULT:      -8.2      6.370     11.391
REMARK  6 active torsions:
REMARK  status: ('A' for Active; 'I' for Inactive)
REMARK    1  A    between atoms: C_2  and  O_4 
REMARK    2  A    between atoms: C_2  and  C_5 
REMARK    3  A    between atoms: C_10  and  C_11 
REMARK    4  A    between atoms: C_17  and  C_18 
REMARK    5  A    between atoms: C_19  and  C_20 
REMARK    6  A    between atoms: C_23  and  C_24 
ROOT
HETATM    1  C   UNL     1     -21.597  -5.140  -8.071  1.00  0.00    -0.023 C 
HETATM    2  C   UNL     1     -22.608  -4.813  -7.131  1.00  0.00     0.014 C 
HETATM    3  C   UNL     1     -22.622  -5.280  -5.815  1.00  0.00     0.033 C 
HETATM    4  C   UNL     1     -21.681  -6.229  -5.452  1.00  0.00     0.060 A 
HETATM    5  N   UNL     1     -21.530  -6.830  -4.249  1.00  0.00    -0.341 N 
ATOM      6  HN  UNL     1     -22.064  -6.640  -3.401  1.00  0.00     0.167 HD
HETATM    7  C   UNL     1     -20.560  -7.704  -4.386  1.00  0.00     0.106 A 
HETATM    8  N   UNL     1     -20.059  -7.665  -5.673  1.00  0.00    -0.341 N 
HETATM    9  C   UNL     1     -20.746  -6.679  -6.368  1.00  0.00     0.061 A 
HETATM   10  C   UNL     1     -20.651  -6.117  -7.665  1.00  0.00     0.044 C 
HETATM   11  H   UNL     1     -19.330  -8.255  -6.049  1.00  0.00     0.167 HD
ENDROOT
BRANCH   7  12
HETATM   12  C   UNL     1     -20.063  -8.568  -3.374  1.00  0.00     0.049 C 
HETATM   13  C   UNL     1     -18.763  -8.909  -3.504  1.00  0.00     0.015 C 
BRANCH  13  14
HETATM   14  C   UNL     1     -17.920  -9.810  -2.715  1.00  0.00    -0.036 A 
HETATM   15  C   UNL     1     -18.584 -10.773  -1.941  1.00  0.00     0.012 A 
HETATM   16  C   UNL     1     -17.878 -11.689  -1.163  1.00  0.00     0.017 A 
HETATM   17  C   UNL     1     -16.477 -11.668  -1.151  1.00  0.00     0.048 A 
HETATM   18  C   UNL     1     -15.811 -10.744  -1.977  1.00  0.00     0.017 A 
HETATM   19  C   UNL     1     -16.525  -9.823  -2.756  1.00  0.00     0.012 A 
BRANCH  17  20
HETATM   20  C   UNL     1     -15.705 -12.598  -0.251  1.00  0.00     0.417 C 
HETATM   21  F   UNL     1     -15.082 -11.967   0.783  1.00  0.00    -0.166 F 
HETATM   22  F   UNL     1     -16.495 -13.559   0.315  1.00  0.00    -0.166 F 
HETATM   23  F   UNL     1     -14.726 -13.266  -0.921  1.00  0.00    -0.166 F 
ENDBRANCH  17  20
ENDBRANCH  13  14
ENDBRANCH   7  12
BRANCH   1  24
HETATM   24  C   UNL     1     -21.508  -4.305  -9.337  1.00  0.00    -0.017 A 
HETATM   25  C   UNL     1     -22.522  -3.983 -10.282  1.00  0.00    -0.014 A 
HETATM   26  C   UNL     1     -22.118  -3.338 -11.500  1.00  0.00     0.011 A 
HETATM   27  C   UNL     1     -20.818  -2.914 -11.760  1.00  0.00     0.001 A 
HETATM   28  C   UNL     1     -19.854  -3.124 -10.807  1.00  0.00     0.001 A 
HETATM   29  C   UNL     1     -20.192  -3.824  -9.651  1.00  0.00     0.013 A 
BRANCH  25  30
HETATM   30  C   UNL     1     -24.036  -4.231 -10.178  1.00  0.00     0.078 C 
HETATM   31  C   UNL     1     -24.823  -3.313  -9.238  1.00  0.00     0.051 C 
HETATM   32  C   UNL     1     -24.302  -5.726  -9.947  1.00  0.00     0.051 C 
BRANCH  30  33
HETATM   33  O   UNL     1     -24.626  -3.940 -11.475  1.00  0.00    -0.386 OA
HETATM   34  H   UNL     1     -25.264  -3.217 -11.361  1.00  0.00     0.211 HD
ENDBRANCH  30  33
ENDBRANCH  25  30
ENDBRANCH   1  24
TORSDOF 6
ENDMDL
MODEL 9
REMARK VINA RESULT:      -7.9      6.031     11.404
REMARK  6 active torsions:
REMARK  status: ('A' for Active; 'I' for Inactive)
REMARK    1  A    between atoms: C_2  and  O_4 
REMARK    2  A    between atoms: C_2  and  C_5 
REMARK    3  A    between atoms: C_10  and  C_11 
REMARK    4  A    between atoms: C_17  and  C_18 
REMARK    5  A    between atoms: C_19  and  C_20 
REMARK    6  A    between atoms: C_23  and  C_24 
ROOT
HETATM    1  C   UNL     1     -21.309  -5.155  -7.454  1.00  0.00    -0.023 C 
HETATM    2  C   UNL     1     -20.620  -4.377  -6.488  1.00  0.00     0.014 C 
HETATM    3  C   UNL     1     -20.284  -4.842  -5.216  1.00  0.00     0.033 C 
HETATM    4  C   UNL     1     -20.779  -6.075  -4.823  1.00  0.00     0.060 A 
HETATM    5  N   UNL     1     -20.599  -6.702  -3.636  1.00  0.00    -0.341 N 
ATOM      6  HN  UNL     1     -20.028  -6.378  -2.856  1.00  0.00     0.167 HD
HETATM    7  C   UNL     1     -21.305  -7.808  -3.687  1.00  0.00     0.106 A 
HETATM    8  N   UNL     1     -21.932  -7.920  -4.913  1.00  0.00    -0.341 N 
HETATM    9  C   UNL     1     -21.564  -6.824  -5.682  1.00  0.00     0.061 A 
HETATM   10  C   UNL     1     -21.803  -6.411  -7.015  1.00  0.00     0.044 C 
HETATM   11  H   UNL     1     -22.556  -8.661  -5.200  1.00  0.00     0.167 HD
ENDROOT
BRANCH   7  12
HETATM   12  C   UNL     1     -21.415  -8.777  -2.655  1.00  0.00     0.049 C 
HETATM   13  C   UNL     1     -20.480  -9.752  -2.687  1.00  0.00     0.015 C 
BRANCH  13  14
HETATM   14  C   UNL     1     -20.299 -10.940  -1.850  1.00  0.00    -0.036 A 
HETATM   15  C   UNL     1     -21.345 -11.876  -1.855  1.00  0.00     0.012 A 
HETATM   16  C   UNL     1     -21.271 -13.048  -1.104  1.00  0.00     0.017 A 
HETATM   17  C   UNL     1     -20.132 -13.318  -0.334  1.00  0.00     0.048 A 
HETATM   18  C   UNL     1     -19.057 -12.411  -0.380  1.00  0.00     0.017 A 
HETATM   19  C   UNL     1     -19.138 -11.231  -1.134  1.00  0.00     0.012 A 
BRANCH  17  20
HETATM   20  C   UNL     1     -20.075 -14.540   0.546  1.00  0.00     0.417 C 
HETATM   21  F   UNL     1     -20.468 -15.684  -0.080  1.00  0.00    -0.166 F 
HETATM   22  F   UNL     1     -18.819 -14.785   1.025  1.00  0.00    -0.166 F 
HETATM   23  F   UNL     1     -20.876 -14.424   1.641  1.00  0.00    -0.166 F 
ENDBRANCH  17  20
ENDBRANCH  13  14
ENDBRANCH   7  12
BRANCH   1  24
HETATM   24  C   UNL     1     -21.305  -4.667  -8.893  1.00  0.00    -0.017 A 
HETATM   25  C   UNL     1     -22.401  -4.368  -9.750  1.00  0.00    -0.014 A 
HETATM   26  C   UNL     1     -22.115  -4.114 -11.135  1.00  0.00     0.011 A 
HETATM   27  C   UNL     1     -20.829  -4.038 -11.660  1.00  0.00     0.001 A 
HETATM   28  C   UNL     1     -19.761  -4.220 -10.818  1.00  0.00     0.001 A 
HETATM   29  C   UNL     1     -20.003  -4.552  -9.487  1.00  0.00     0.013 A 
BRANCH  25  30
HETATM   30  C   UNL     1     -23.893  -4.268  -9.390  1.00  0.00     0.078 C 
HETATM   31  C   UNL     1     -24.718  -5.553  -9.503  1.00  0.00     0.051 C 
HETATM   32  C   UNL     1     -24.520  -3.065 -10.110  1.00  0.00     0.051 C 
BRANCH  30  33
HETATM   33  O   UNL     1     -23.990  -3.951  -7.975  1.00  0.00    -0.386 OA
HETATM   34  H   UNL     1     -23.113  -3.671  -7.666  1.00  0.00     0.211 HD
ENDBRANCH  30  33
ENDBRANCH  25  30
ENDBRANCH   1  24
TORSDOF 6
ENDMDL
