REMARK  5 active torsions:
REMARK  status: ('A' for Active; 'I' for Inactive)
REMARK    1  A    between atoms: C_2  and  C_3 
REMARK    2  A    between atoms: C_3  and  S_4 
REMARK    3  A    between atoms: S_4  and  S_5 
REMARK    4  A    between atoms: S_5  and  C_7 
REMARK    5  A    between atoms: C_7  and  C_8 
ROOT
HETATM    1  S   UNL     1       5.809   2.139   1.840  1.00  0.00     0.081 S 
HETATM    2  O   UNL     1       5.323   1.699   3.189  1.00  0.00    -0.246 OA
ENDROOT
BRANCH   1   3
HETATM    3  S   UNL     1       4.994   0.676   0.698  1.00  0.00    -0.062 SA
BRANCH   3   4
HETATM    4  C   UNL     1       3.233   0.855   1.097  1.00  0.00     0.114 C 
BRANCH   4   5
HETATM    5  C   UNL     1       2.444  -0.151   0.311  1.00  0.00    -0.026 C 
HETATM    6  C   UNL     1       1.499   0.156  -0.588  1.00  0.00     0.007 C 
ENDBRANCH   4   5
ENDBRANCH   3   4
ENDBRANCH   1   3
BRANCH   1   7
HETATM    7  C   UNL     1       7.587   1.748   1.709  1.00  0.00     0.147 C 
BRANCH   7   8
HETATM    8  C   UNL     1       8.402   2.733   2.495  1.00  0.00    -0.024 C 
HETATM    9  C   UNL     1       9.335   3.539   1.970  1.00  0.00     0.008 C 
ENDBRANCH   7   8
ENDBRANCH   1   7
TORSDOF 5
