MODEL 1
REMARK VINA RESULT:      -4.5      0.000      0.000
REMARK  5 active torsions:
REMARK  status: ('A' for Active; 'I' for Inactive)
REMARK    1  A    between atoms: C_2  and  C_3 
REMARK    2  A    between atoms: C_3  and  S_4 
REMARK    3  A    between atoms: S_4  and  S_5 
REMARK    4  A    between atoms: S_5  and  C_7 
REMARK    5  A    between atoms: C_7  and  C_8 
ROOT
HETATM    1  S   UNL     1     -35.467  -1.915 -11.319  1.00  0.00     0.081 S 
HETATM    2  O   UNL     1     -35.646  -0.802 -10.330  1.00  0.00    -0.246 OA
ENDROOT
BRANCH   1   3
HETATM    3  S   UNL     1     -33.592  -2.505 -10.822  1.00  0.00    -0.062 SA
BRANCH   3   4
HETATM    4  C   UNL     1     -33.301  -3.821 -12.036  1.00  0.00     0.114 C 
BRANCH   4   5
HETATM    5  C   UNL     1     -33.287  -5.147 -11.333  1.00  0.00    -0.026 C 
HETATM    6  C   UNL     1     -34.248  -5.582 -10.508  1.00  0.00     0.007 C 
ENDBRANCH   4   5
ENDBRANCH   3   4
ENDBRANCH   1   3
BRANCH   1   7
HETATM    7  C   UNL     1     -35.188  -1.184 -12.968  1.00  0.00     0.147 C 
BRANCH   7   8
HETATM    8  C   UNL     1     -35.011   0.302 -12.863  1.00  0.00    -0.024 C 
HETATM    9  C   UNL     1     -34.674   1.103 -13.883  1.00  0.00     0.008 C 
ENDBRANCH   7   8
ENDBRANCH   1   7
TORSDOF 5
ENDMDL
MODEL 2
REMARK VINA RESULT:      -4.4      2.536      4.686
REMARK  5 active torsions:
REMARK  status: ('A' for Active; 'I' for Inactive)
REMARK    1  A    between atoms: C_2  and  C_3 
REMARK    2  A    between atoms: C_3  and  S_4 
REMARK    3  A    between atoms: S_4  and  S_5 
REMARK    4  A    between atoms: S_5  and  C_7 
REMARK    5  A    between atoms: C_7  and  C_8 
ROOT
HETATM    1  S   UNL     1     -35.069  -2.284 -12.263  1.00  0.00     0.081 S 
HETATM    2  O   UNL     1     -34.676  -2.565 -13.683  1.00  0.00    -0.246 OA
ENDROOT
BRANCH   1   3
HETATM    3  S   UNL     1     -35.237  -0.266 -12.357  1.00  0.00    -0.062 SA
BRANCH   3   4
HETATM    4  C   UNL     1     -36.808  -0.002 -11.486  1.00  0.00     0.114 C 
BRANCH   4   5
HETATM    5  C   UNL     1     -36.837  -0.854 -10.251  1.00  0.00    -0.026 C 
HETATM    6  C   UNL     1     -36.934  -0.381  -9.001  1.00  0.00     0.007 C 
ENDBRANCH   4   5
ENDBRANCH   3   4
ENDBRANCH   1   3
BRANCH   1   7
HETATM    7  C   UNL     1     -33.593  -2.472 -11.206  1.00  0.00     0.147 C 
BRANCH   7   8
HETATM    8  C   UNL     1     -32.855  -3.733 -11.551  1.00  0.00    -0.024 C 
HETATM    9  C   UNL     1     -33.320  -4.971 -11.333  1.00  0.00     0.008 C 
ENDBRANCH   7   8
ENDBRANCH   1   7
TORSDOF 5
ENDMDL
MODEL 3
REMARK VINA RESULT:      -4.4      2.274      5.119
REMARK  5 active torsions:
REMARK  status: ('A' for Active; 'I' for Inactive)
REMARK    1  A    between atoms: C_2  and  C_3 
REMARK    2  A    between atoms: C_3  and  S_4 
REMARK    3  A    between atoms: S_4  and  S_5 
REMARK    4  A    between atoms: S_5  and  C_7 
REMARK    5  A    between atoms: C_7  and  C_8 
ROOT
HETATM    1  S   UNL     1     -35.143  -1.943 -12.359  1.00  0.00     0.081 S 
HETATM    2  O   UNL     1     -34.709  -2.498 -13.683  1.00  0.00    -0.246 OA
ENDROOT
BRANCH   1   3
HETATM    3  S   UNL     1     -35.077   0.037 -12.789  1.00  0.00    -0.062 SA
BRANCH   3   4
HETATM    4  C   UNL     1     -36.411   0.178 -14.010  1.00  0.00     0.114 C 
BRANCH   4   5
HETATM    5  C   UNL     1     -35.815   0.258 -15.385  1.00  0.00    -0.026 C 
HETATM    6  C   UNL     1     -35.978  -0.667 -16.341  1.00  0.00     0.007 C 
ENDBRANCH   4   5
ENDBRANCH   3   4
ENDBRANCH   1   3
BRANCH   1   7
HETATM    7  C   UNL     1     -33.756  -2.101 -11.182  1.00  0.00     0.147 C 
BRANCH   7   8
HETATM    8  C   UNL     1     -33.409  -3.545 -10.968  1.00  0.00    -0.024 C 
HETATM    9  C   UNL     1     -32.672  -4.283 -11.810  1.00  0.00     0.008 C 
ENDBRANCH   7   8
ENDBRANCH   1   7
TORSDOF 5
ENDMDL
MODEL 4
REMARK VINA RESULT:      -4.4      3.173      3.656
REMARK  5 active torsions:
REMARK  status: ('A' for Active; 'I' for Inactive)
REMARK    1  A    between atoms: C_2  and  C_3 
REMARK    2  A    between atoms: C_3  and  S_4 
REMARK    3  A    between atoms: S_4  and  S_5 
REMARK    4  A    between atoms: S_5  and  C_7 
REMARK    5  A    between atoms: C_7  and  C_8 
ROOT
HETATM    1  S   UNL     1     -36.856  -0.134 -11.306  1.00  0.00     0.081 S 
HETATM    2  O   UNL     1     -38.075  -0.810 -11.859  1.00  0.00    -0.246 OA
ENDROOT
BRANCH   1   3
HETATM    3  S   UNL     1     -35.422  -1.157 -12.310  1.00  0.00    -0.062 SA
BRANCH   3   4
HETATM    4  C   UNL     1     -35.050  -2.489 -11.136  1.00  0.00     0.114 C 
BRANCH   4   5
HETATM    5  C   UNL     1     -33.562  -2.650 -11.028  1.00  0.00    -0.026 C 
HETATM    6  C   UNL     1     -32.867  -3.674 -11.543  1.00  0.00     0.007 C 
ENDBRANCH   4   5
ENDBRANCH   3   4
ENDBRANCH   1   3
BRANCH   1   7
HETATM    7  C   UNL     1     -36.589  -0.725  -9.600  1.00  0.00     0.147 C 
BRANCH   7   8
HETATM    8  C   UNL     1     -37.221   0.213  -8.613  1.00  0.00    -0.024 C 
HETATM    9  C   UNL     1     -36.612   0.689  -7.518  1.00  0.00     0.008 C 
ENDBRANCH   7   8
ENDBRANCH   1   7
TORSDOF 5
ENDMDL
MODEL 5
REMARK VINA RESULT:      -4.4     11.602     12.722
REMARK  5 active torsions:
REMARK  status: ('A' for Active; 'I' for Inactive)
REMARK    1  A    between atoms: C_2  and  C_3 
REMARK    2  A    between atoms: C_3  and  S_4 
REMARK    3  A    between atoms: S_4  and  S_5 
REMARK    4  A    between atoms: S_5  and  C_7 
REMARK    5  A    between atoms: C_7  and  C_8 
ROOT
HETATM    1  S   UNL     1     -23.924  -3.356  -9.830  1.00  0.00     0.081 S 
HETATM    2  O   UNL     1     -25.416  -3.213  -9.882  1.00  0.00    -0.246 OA
ENDROOT
BRANCH   1   3
HETATM    3  S   UNL     1     -23.687  -4.869 -11.157  1.00  0.00    -0.062 SA
BRANCH   3   4
HETATM    4  C   UNL     1     -21.973  -4.605 -11.692  1.00  0.00     0.114 C 
BRANCH   4   5
HETATM    5  C   UNL     1     -21.587  -3.180 -11.427  1.00  0.00    -0.026 C 
HETATM    6  C   UNL     1     -20.346  -2.769 -11.132  1.00  0.00     0.007 C 
ENDBRANCH   4   5
ENDBRANCH   3   4
ENDBRANCH   1   3
BRANCH   1   7
HETATM    7  C   UNL     1     -23.476  -4.179  -8.264  1.00  0.00     0.147 C 
BRANCH   7   8
HETATM    8  C   UNL     1     -22.049  -3.882  -7.903  1.00  0.00    -0.024 C 
HETATM    9  C   UNL     1     -21.040  -4.758  -8.008  1.00  0.00     0.008 C 
ENDBRANCH   7   8
ENDBRANCH   1   7
TORSDOF 5
ENDMDL
MODEL 6
REMARK VINA RESULT:      -4.3      1.264      5.219
REMARK  5 active torsions:
REMARK  status: ('A' for Active; 'I' for Inactive)
REMARK    1  A    between atoms: C_2  and  C_3 
REMARK    2  A    between atoms: C_3  and  S_4 
REMARK    3  A    between atoms: S_4  and  S_5 
REMARK    4  A    between atoms: S_5  and  C_7 
REMARK    5  A    between atoms: C_7  and  C_8 
ROOT
HETATM    1  S   UNL     1     -34.125  -2.283 -11.413  1.00  0.00     0.081 S 
HETATM    2  O   UNL     1     -33.682  -1.730 -10.091  1.00  0.00    -0.246 OA
ENDROOT
BRANCH   1   3
HETATM    3  S   UNL     1     -35.643  -1.003 -11.819  1.00  0.00    -0.062 SA
BRANCH   3   4
HETATM    4  C   UNL     1     -35.463  -0.799 -13.613  1.00  0.00     0.114 C 
BRANCH   4   5
HETATM    5  C   UNL     1     -34.954   0.583 -13.904  1.00  0.00    -0.026 C 
HETATM    6  C   UNL     1     -35.281   1.303 -14.986  1.00  0.00     0.007 C 
ENDBRANCH   4   5
ENDBRANCH   3   4
ENDBRANCH   1   3
BRANCH   1   7
HETATM    7  C   UNL     1     -35.035  -3.837 -11.116  1.00  0.00     0.147 C 
BRANCH   7   8
HETATM    8  C   UNL     1     -34.149  -4.846 -10.445  1.00  0.00    -0.024 C 
HETATM    9  C   UNL     1     -33.834  -6.042 -10.959  1.00  0.00     0.008 C 
ENDBRANCH   7   8
ENDBRANCH   1   7
TORSDOF 5
ENDMDL
MODEL 7
REMARK VINA RESULT:      -4.1      2.593      5.083
REMARK  5 active torsions:
REMARK  status: ('A' for Active; 'I' for Inactive)
REMARK    1  A    between atoms: C_2  and  C_3 
REMARK    2  A    between atoms: C_3  and  S_4 
REMARK    3  A    between atoms: S_4  and  S_5 
REMARK    4  A    between atoms: S_5  and  C_7 
REMARK    5  A    between atoms: C_7  and  C_8 
ROOT
HETATM    1  S   UNL     1     -34.031  -3.112 -12.132  1.00  0.00     0.081 S 
HETATM    2  O   UNL     1     -33.034  -2.650 -11.111  1.00  0.00    -0.246 OA
ENDROOT
BRANCH   1   3
HETATM    3  S   UNL     1     -35.319  -1.548 -12.073  1.00  0.00    -0.062 SA
BRANCH   3   4
HETATM    4  C   UNL     1     -36.185  -1.862 -10.510  1.00  0.00     0.114 C 
BRANCH   4   5
HETATM    5  C   UNL     1     -36.785  -0.580 -10.012  1.00  0.00    -0.026 C 
HETATM    6  C   UNL     1     -36.757  -0.170  -8.736  1.00  0.00     0.007 C 
ENDBRANCH   4   5
ENDBRANCH   3   4
ENDBRANCH   1   3
BRANCH   1   7
HETATM    7  C   UNL     1     -35.043  -4.439 -11.395  1.00  0.00     0.147 C 
BRANCH   7   8
HETATM    8  C   UNL     1     -34.184  -5.375 -10.595  1.00  0.00    -0.024 C 
HETATM    9  C   UNL     1     -34.552  -6.605 -10.211  1.00  0.00     0.008 C 
ENDBRANCH   7   8
ENDBRANCH   1   7
TORSDOF 5
ENDMDL
MODEL 8
REMARK VINA RESULT:      -4.0     15.248     16.859
REMARK  5 active torsions:
REMARK  status: ('A' for Active; 'I' for Inactive)
REMARK    1  A    between atoms: C_2  and  C_3 
REMARK    2  A    between atoms: C_3  and  S_4 
REMARK    3  A    between atoms: S_4  and  S_5 
REMARK    4  A    between atoms: S_5  and  C_7 
REMARK    5  A    between atoms: C_7  and  C_8 
ROOT
HETATM    1  S   UNL     1     -21.290  -6.929  -2.480  1.00  0.00     0.081 S 
HETATM    2  O   UNL     1     -22.458  -5.988  -2.493  1.00  0.00    -0.246 OA
ENDROOT
BRANCH   1   3
HETATM    3  S   UNL     1     -21.456  -7.694  -4.350  1.00  0.00    -0.062 SA
BRANCH   3   4
HETATM    4  C   UNL     1     -22.022  -6.241  -5.277  1.00  0.00     0.114 C 
BRANCH   4   5
HETATM    5  C   UNL     1     -20.892  -5.721  -6.118  1.00  0.00    -0.026 C 
HETATM    6  C   UNL     1     -20.080  -4.715  -5.764  1.00  0.00     0.007 C 
ENDBRANCH   4   5
ENDBRANCH   3   4
ENDBRANCH   1   3
BRANCH   1   7
HETATM    7  C   UNL     1     -21.726  -8.379  -1.460  1.00  0.00     0.147 C 
BRANCH   7   8
HETATM    8  C   UNL     1     -21.998  -7.963  -0.043  1.00  0.00    -0.024 C 
HETATM    9  C   UNL     1     -23.193  -8.044   0.557  1.00  0.00     0.008 C 
ENDBRANCH   7   8
ENDBRANCH   1   7
TORSDOF 5
ENDMDL
MODEL 9
REMARK VINA RESULT:      -4.0      3.390      5.264
REMARK  5 active torsions:
REMARK  status: ('A' for Active; 'I' for Inactive)
REMARK    1  A    between atoms: C_2  and  C_3 
REMARK    2  A    between atoms: C_3  and  S_4 
REMARK    3  A    between atoms: S_4  and  S_5 
REMARK    4  A    between atoms: S_5  and  C_7 
REMARK    5  A    between atoms: C_7  and  C_8 
ROOT
HETATM    1  S   UNL     1     -36.784  -0.958 -10.213  1.00  0.00     0.081 S 
HETATM    2  O   UNL     1     -35.293  -0.967 -10.049  1.00  0.00    -0.246 OA
ENDROOT
BRANCH   1   3
HETATM    3  S   UNL     1     -36.910  -0.186 -12.083  1.00  0.00    -0.062 SA
BRANCH   3   4
HETATM    4  C   UNL     1     -35.229  -0.476 -12.699  1.00  0.00     0.114 C 
BRANCH   4   5
HETATM    5  C   UNL     1     -34.763   0.736 -13.453  1.00  0.00    -0.026 C 
HETATM    6  C   UNL     1     -35.114   1.031 -14.712  1.00  0.00     0.007 C 
ENDBRANCH   4   5
ENDBRANCH   3   4
ENDBRANCH   1   3
BRANCH   1   7
HETATM    7  C   UNL     1     -37.468   0.408  -9.214  1.00  0.00     0.147 C 
BRANCH   7   8
HETATM    8  C   UNL     1     -37.222   0.167  -7.753  1.00  0.00    -0.024 C 
HETATM    9  C   UNL     1     -37.114   1.133  -6.830  1.00  0.00     0.008 C 
ENDBRANCH   7   8
ENDBRANCH   1   7
TORSDOF 5
ENDMDL
