REMARK  7 active torsions:
REMARK  status: ('A' for Active; 'I' for Inactive)
REMARK    1  A    between atoms: O_1  and  C_2 
REMARK    2  A    between atoms: C_7  and  O_8 
REMARK    3  A    between atoms: N_10  and  C_11 
REMARK    4  A    between atoms: C_11  and  N_13 
REMARK    5  A    between atoms: N_13  and  C_14 
REMARK    6  A    between atoms: C_14  and  C_15 
REMARK    7  A    between atoms: C_15  and  C_16 
ROOT
HETATM    1  C   UNL     1       2.377  -0.025   0.063  1.00  0.00     0.099 A 
HETATM    2  C   UNL     1       3.026   1.172   0.354  1.00  0.00     0.047 A 
HETATM    3  C   UNL     1       4.425   1.267   0.247  1.00  0.00    -0.047 A 
HETATM    4  C   UNL     1       5.177   0.143  -0.154  1.00  0.00    -0.031 A 
HETATM    5  C   UNL     1       4.505  -1.062  -0.433  1.00  0.00     0.048 A 
HETATM    6  C   UNL     1       3.116  -1.140  -0.323  1.00  0.00     0.099 A 
HETATM    7  C   UNL     1       6.687   0.220  -0.289  1.00  0.00     0.164 C 
HETATM    8  N   UNL     1       7.099   1.128  -1.379  1.00  0.00    -0.354 N 
HETATM    9  C   UNL     1       7.133   2.551  -1.015  1.00  0.00     0.126 C 
HETATM   10  C   UNL     1       5.759   3.159  -0.727  1.00  0.00     0.025 C 
HETATM   11  C   UNL     1       5.098   2.587   0.530  1.00  0.00     0.041 C 
ENDROOT
BRANCH   8  12
HETATM   12  C   UNL     1       7.532   0.634  -2.619  1.00  0.00     0.170 C 
HETATM   13  S   UNL     1       8.240  -0.885  -2.815  1.00  0.00    -0.041 SA
BRANCH  12  14
HETATM   14  N   UNL     1       7.299   1.483  -3.696  1.00  0.00    -0.367 N 
HETATM   15  H   UNL     1       6.829   2.351  -3.494  1.00  0.00     0.161 HD
BRANCH  14  16
HETATM   16  C   UNL     1       7.123   0.981  -5.067  1.00  0.00     0.126 C 
BRANCH  16  17
HETATM   17  C   UNL     1       6.903   2.048  -6.147  1.00  0.00     0.058 C 
BRANCH  17  18
HETATM   18  C   UNL     1       8.075   2.981  -6.338  1.00  0.00    -0.057 A 
HETATM   19  C   UNL     1       9.328   2.472  -6.706  1.00  0.00     0.009 A 
HETATM   20  C   UNL     1      10.434   3.324  -6.827  1.00  0.00     0.024 A 
HETATM   21  C   UNL     1      10.278   4.686  -6.598  1.00  0.00     0.034 A 
HETATM   22 CL   UNL     1      11.649   5.730  -6.701  1.00  0.00    -0.084 Cl
HETATM   23  C   UNL     1       9.031   5.211  -6.280  1.00  0.00     0.024 A 
HETATM   24  C   UNL     1       7.927   4.362  -6.156  1.00  0.00     0.009 A 
ENDBRANCH  17  18
ENDBRANCH  16  17
ENDBRANCH  14  16
ENDBRANCH  12  14
ENDBRANCH   8  12
BRANCH   6  25
HETATM   25  O   UNL     1       2.463  -2.311  -0.598  1.00  0.00    -0.358 OA
HETATM   26  H   UNL     1       3.111  -2.978  -0.869  1.00  0.00     0.217 HD
ENDBRANCH   6  25
BRANCH   1  27
HETATM   27  O   UNL     1       1.016  -0.108   0.142  1.00  0.00    -0.358 OA
HETATM   28  H   UNL     1       0.653   0.776   0.307  1.00  0.00     0.217 HD
ENDBRANCH   1  27
TORSDOF 7
