MODEL 1
REMARK VINA RESULT:      -9.0      0.000      0.000
REMARK  7 active torsions:
REMARK  status: ('A' for Active; 'I' for Inactive)
REMARK    1  A    between atoms: O_1  and  C_2 
REMARK    2  A    between atoms: C_7  and  O_8 
REMARK    3  A    between atoms: N_10  and  C_11 
REMARK    4  A    between atoms: C_11  and  N_13 
REMARK    5  A    between atoms: N_13  and  C_14 
REMARK    6  A    between atoms: C_14  and  C_15 
REMARK    7  A    between atoms: C_15  and  C_16 
ROOT
HETATM    1  C   UNL     1     -24.148  -3.433 -11.170  1.00  0.00     0.099 A 
HETATM    2  C   UNL     1     -22.766  -3.523 -11.318  1.00  0.00     0.047 A 
HETATM    3  C   UNL     1     -21.933  -3.601 -10.187  1.00  0.00    -0.047 A 
HETATM    4  C   UNL     1     -22.499  -3.584  -8.895  1.00  0.00    -0.031 A 
HETATM    5  C   UNL     1     -23.897  -3.481  -8.765  1.00  0.00     0.048 A 
HETATM    6  C   UNL     1     -24.710  -3.405  -9.896  1.00  0.00     0.099 A 
HETATM    7  C   UNL     1     -21.625  -3.679  -7.658  1.00  0.00     0.164 C 
HETATM    8  N   UNL     1     -20.949  -4.989  -7.557  1.00  0.00    -0.354 N 
HETATM    9  C   UNL     1     -19.716  -5.108  -8.347  1.00  0.00     0.126 C 
HETATM   10  C   UNL     1     -19.935  -5.087  -9.860  1.00  0.00     0.025 C 
HETATM   11  C   UNL     1     -20.443  -3.739 -10.378  1.00  0.00     0.041 C 
ENDROOT
BRANCH   8  12
HETATM   12  C   UNL     1     -21.406  -5.982  -6.677  1.00  0.00     0.170 C 
HETATM   13  S   UNL     1     -22.906  -5.920  -5.908  1.00  0.00    -0.041 SA
BRANCH  12  14
HETATM   14  N   UNL     1     -20.536  -7.055  -6.511  1.00  0.00    -0.367 N 
HETATM   15  H   UNL     1     -20.586  -7.788  -7.200  1.00  0.00     0.161 HD
BRANCH  14  16
HETATM   16  C   UNL     1     -20.050  -7.473  -5.187  1.00  0.00     0.126 C 
BRANCH  16  17
HETATM   17  C   UNL     1     -20.731  -8.707  -4.583  1.00  0.00     0.058 C 
BRANCH  17  18
HETATM   18  C   UNL     1     -21.261  -8.496  -3.185  1.00  0.00    -0.057 A 
HETATM   19  C   UNL     1     -21.524  -9.596  -2.357  1.00  0.00     0.009 A 
HETATM   20  C   UNL     1     -22.072  -9.410  -1.081  1.00  0.00     0.024 A 
HETATM   21  C   UNL     1     -22.336  -8.123  -0.629  1.00  0.00     0.034 A 
HETATM   22 CL   UNL     1     -23.053  -7.895   0.925  1.00  0.00    -0.084 Cl
HETATM   23  C   UNL     1     -22.035  -7.020  -1.420  1.00  0.00     0.024 A 
HETATM   24  C   UNL     1     -21.491  -7.204  -2.695  1.00  0.00     0.009 A 
ENDBRANCH  17  18
ENDBRANCH  16  17
ENDBRANCH  14  16
ENDBRANCH  12  14
ENDBRANCH   8  12
BRANCH   6  25
HETATM   25  O   UNL     1     -26.069  -3.308  -9.769  1.00  0.00    -0.358 OA
HETATM   26  H   UNL     1     -26.375  -3.974  -9.136  1.00  0.00     0.217 HD
ENDBRANCH   6  25
BRANCH   1  27
HETATM   27  O   UNL     1     -24.957  -3.383 -12.269  1.00  0.00    -0.358 OA
HETATM   28  H   UNL     1     -24.586  -3.951 -12.962  1.00  0.00     0.217 HD
ENDBRANCH   1  27
TORSDOF 7
ENDMDL
MODEL 2
REMARK VINA RESULT:      -8.4      5.015      9.367
REMARK  7 active torsions:
REMARK  status: ('A' for Active; 'I' for Inactive)
REMARK    1  A    between atoms: O_1  and  C_2 
REMARK    2  A    between atoms: C_7  and  O_8 
REMARK    3  A    between atoms: N_10  and  C_11 
REMARK    4  A    between atoms: C_11  and  N_13 
REMARK    5  A    between atoms: N_13  and  C_14 
REMARK    6  A    between atoms: C_14  and  C_15 
REMARK    7  A    between atoms: C_15  and  C_16 
ROOT
HETATM    1  C   UNL     1     -23.236 -10.764  -0.288  1.00  0.00     0.099 A 
HETATM    2  C   UNL     1     -23.124  -9.392  -0.079  1.00  0.00     0.047 A 
HETATM    3  C   UNL     1     -22.164  -8.642  -0.781  1.00  0.00    -0.047 A 
HETATM    4  C   UNL     1     -21.306  -9.282  -1.700  1.00  0.00    -0.031 A 
HETATM    5  C   UNL     1     -21.427 -10.672  -1.890  1.00  0.00     0.048 A 
HETATM    6  C   UNL     1     -22.385 -11.402  -1.186  1.00  0.00     0.099 A 
HETATM    7  C   UNL     1     -20.269  -8.496  -2.480  1.00  0.00     0.164 C 
HETATM    8  N   UNL     1     -20.891  -7.545  -3.425  1.00  0.00    -0.354 N 
HETATM    9  C   UNL     1     -21.304  -6.267  -2.829  1.00  0.00     0.126 C 
HETATM   10  C   UNL     1     -22.461  -6.382  -1.835  1.00  0.00     0.025 C 
HETATM   11  C   UNL     1     -22.090  -7.151  -0.564  1.00  0.00     0.041 C 
ENDROOT
BRANCH   8  12
HETATM   12  C   UNL     1     -20.962  -7.819  -4.799  1.00  0.00     0.170 C 
HETATM   13  S   UNL     1     -20.817  -9.372  -5.443  1.00  0.00    -0.041 SA
BRANCH  12  14
HETATM   14  N   UNL     1     -21.200  -6.708  -5.601  1.00  0.00    -0.367 N 
HETATM   15  H   UNL     1     -22.111  -6.645  -6.027  1.00  0.00     0.161 HD
BRANCH  14  16
HETATM   16  C   UNL     1     -20.123  -6.017  -6.325  1.00  0.00     0.126 C 
BRANCH  16  17
HETATM   17  C   UNL     1     -20.395  -4.552  -6.692  1.00  0.00     0.058 C 
BRANCH  17  18
HETATM   18  C   UNL     1     -20.914  -4.356  -8.096  1.00  0.00    -0.057 A 
HETATM   19  C   UNL     1     -20.038  -4.430  -9.188  1.00  0.00     0.009 A 
HETATM   20  C   UNL     1     -20.501  -4.190 -10.489  1.00  0.00     0.024 A 
HETATM   21  C   UNL     1     -21.844  -3.896 -10.695  1.00  0.00     0.034 A 
HETATM   22 CL   UNL     1     -22.406  -3.554 -12.291  1.00  0.00    -0.084 Cl
HETATM   23  C   UNL     1     -22.733  -3.867  -9.627  1.00  0.00     0.024 A 
HETATM   24  C   UNL     1     -22.272  -4.103  -8.328  1.00  0.00     0.009 A 
ENDBRANCH  17  18
ENDBRANCH  16  17
ENDBRANCH  14  16
ENDBRANCH  12  14
ENDBRANCH   8  12
BRANCH   6  25
HETATM   25  O   UNL     1     -22.504 -12.753  -1.374  1.00  0.00    -0.358 OA
HETATM   26  H   UNL     1     -23.265 -12.926  -1.949  1.00  0.00     0.217 HD
ENDBRANCH   6  25
BRANCH   1  27
HETATM   27  O   UNL     1     -24.187 -11.487   0.376  1.00  0.00    -0.358 OA
HETATM   28  H   UNL     1     -24.217 -11.198   1.301  1.00  0.00     0.217 HD
ENDBRANCH   1  27
TORSDOF 7
ENDMDL
MODEL 3
REMARK VINA RESULT:      -8.1      5.844      7.686
REMARK  7 active torsions:
REMARK  status: ('A' for Active; 'I' for Inactive)
REMARK    1  A    between atoms: O_1  and  C_2 
REMARK    2  A    between atoms: C_7  and  O_8 
REMARK    3  A    between atoms: N_10  and  C_11 
REMARK    4  A    between atoms: C_11  and  N_13 
REMARK    5  A    between atoms: N_13  and  C_14 
REMARK    6  A    between atoms: C_14  and  C_15 
REMARK    7  A    between atoms: C_15  and  C_16 
ROOT
HETATM    1  C   UNL     1     -22.207  -7.997  -0.098  1.00  0.00     0.099 A 
HETATM    2  C   UNL     1     -22.309  -7.168  -1.212  1.00  0.00     0.047 A 
HETATM    3  C   UNL     1     -21.422  -7.316  -2.293  1.00  0.00    -0.047 A 
HETATM    4  C   UNL     1     -20.420  -8.308  -2.249  1.00  0.00    -0.031 A 
HETATM    5  C   UNL     1     -20.324  -9.129  -1.110  1.00  0.00     0.048 A 
HETATM    6  C   UNL     1     -21.212  -8.970  -0.045  1.00  0.00     0.099 A 
HETATM    7  C   UNL     1     -19.456  -8.498  -3.406  1.00  0.00     0.164 C 
HETATM    8  N   UNL     1     -20.142  -8.970  -4.626  1.00  0.00    -0.354 N 
HETATM    9  C   UNL     1     -20.776  -7.912  -5.424  1.00  0.00     0.126 C 
HETATM   10  C   UNL     1     -21.971  -7.242  -4.743  1.00  0.00     0.025 C 
HETATM   11  C   UNL     1     -21.581  -6.431  -3.504  1.00  0.00     0.041 C 
ENDROOT
BRANCH   8  12
HETATM   12  C   UNL     1     -20.078 -10.313  -5.028  1.00  0.00     0.170 C 
HETATM   13  S   UNL     1     -18.657 -11.222  -4.997  1.00  0.00    -0.041 SA
BRANCH  12  14
HETATM   14  N   UNL     1     -21.294 -10.859  -5.426  1.00  0.00    -0.367 N 
HETATM   15  H   UNL     1     -21.791 -10.373  -6.154  1.00  0.00     0.161 HD
BRANCH  14  16
HETATM   16  C   UNL     1     -22.134 -11.649  -4.514  1.00  0.00     0.126 C 
BRANCH  16  17
HETATM   17  C   UNL     1     -22.911 -10.850  -3.459  1.00  0.00     0.058 C 
BRANCH  17  18
HETATM   18  C   UNL     1     -22.918 -11.485  -2.089  1.00  0.00    -0.057 A 
HETATM   19  C   UNL     1     -21.955 -12.447  -1.752  1.00  0.00     0.009 A 
HETATM   20  C   UNL     1     -21.992 -13.083  -0.505  1.00  0.00     0.024 A 
HETATM   21  C   UNL     1     -22.980 -12.742   0.410  1.00  0.00     0.034 A 
HETATM   22 CL   UNL     1     -23.055 -13.558   1.930  1.00  0.00    -0.084 Cl
HETATM   23  C   UNL     1     -23.912 -11.755   0.109  1.00  0.00     0.024 A 
HETATM   24  C   UNL     1     -23.879 -11.121  -1.137  1.00  0.00     0.009 A 
ENDBRANCH  17  18
ENDBRANCH  16  17
ENDBRANCH  14  16
ENDBRANCH  12  14
ENDBRANCH   8  12
BRANCH   6  25
HETATM   25  O   UNL     1     -21.121  -9.772   1.060  1.00  0.00    -0.358 OA
HETATM   26  H   UNL     1     -20.186  -9.932   1.258  1.00  0.00     0.217 HD
ENDBRANCH   6  25
BRANCH   1  27
HETATM   27  O   UNL     1     -23.086  -7.870   0.939  1.00  0.00    -0.358 OA
HETATM   28  H   UNL     1     -23.032  -6.968   1.292  1.00  0.00     0.217 HD
ENDBRANCH   1  27
TORSDOF 7
ENDMDL
MODEL 4
REMARK VINA RESULT:      -7.6      5.461      7.918
REMARK  7 active torsions:
REMARK  status: ('A' for Active; 'I' for Inactive)
REMARK    1  A    between atoms: O_1  and  C_2 
REMARK    2  A    between atoms: C_7  and  O_8 
REMARK    3  A    between atoms: N_10  and  C_11 
REMARK    4  A    between atoms: C_11  and  N_13 
REMARK    5  A    between atoms: N_13  and  C_14 
REMARK    6  A    between atoms: C_14  and  C_15 
REMARK    7  A    between atoms: C_15  and  C_16 
ROOT
HETATM    1  C   UNL     1     -20.793  -5.793  -4.882  1.00  0.00     0.099 A 
HETATM    2  C   UNL     1     -21.196  -5.927  -3.556  1.00  0.00     0.047 A 
HETATM    3  C   UNL     1     -21.570  -7.185  -3.050  1.00  0.00    -0.047 A 
HETATM    4  C   UNL     1     -21.541  -8.317  -3.891  1.00  0.00    -0.031 A 
HETATM    5  C   UNL     1     -21.142  -8.161  -5.232  1.00  0.00     0.048 A 
HETATM    6  C   UNL     1     -20.773  -6.906  -5.718  1.00  0.00     0.099 A 
HETATM    7  C   UNL     1     -21.929  -9.689  -3.368  1.00  0.00     0.164 C 
HETATM    8  N   UNL     1     -20.980 -10.180  -2.348  1.00  0.00    -0.354 N 
HETATM    9  C   UNL     1     -21.222  -9.676  -0.989  1.00  0.00     0.126 C 
HETATM   10  C   UNL     1     -20.971  -8.176  -0.822  1.00  0.00     0.025 C 
HETATM   11  C   UNL     1     -21.964  -7.308  -1.599  1.00  0.00     0.041 C 
ENDROOT
BRANCH   8  12
HETATM   12  C   UNL     1     -20.008 -11.144  -2.656  1.00  0.00     0.170 C 
HETATM   13  S   UNL     1     -20.365 -12.618  -3.395  1.00  0.00    -0.041 SA
BRANCH  12  14
HETATM   14  N   UNL     1     -18.705 -10.776  -2.338  1.00  0.00    -0.367 N 
HETATM   15  H   UNL     1     -18.391 -10.985  -1.403  1.00  0.00     0.161 HD
BRANCH  14  16
HETATM   16  C   UNL     1     -18.030  -9.640  -2.983  1.00  0.00     0.126 C 
BRANCH  16  17
HETATM   17  C   UNL     1     -16.508  -9.575  -2.803  1.00  0.00     0.058 C 
BRANCH  17  18
HETATM   18  C   UNL     1     -15.739 -10.490  -3.726  1.00  0.00    -0.057 A 
HETATM   19  C   UNL     1     -14.958 -11.528  -3.199  1.00  0.00     0.009 A 
HETATM   20  C   UNL     1     -14.195 -12.344  -4.045  1.00  0.00     0.024 A 
HETATM   21  C   UNL     1     -14.231 -12.130  -5.418  1.00  0.00     0.034 A 
HETATM   22 CL   UNL     1     -13.255 -13.103  -6.458  1.00  0.00    -0.084 Cl
HETATM   23  C   UNL     1     -15.038 -11.135  -5.958  1.00  0.00     0.024 A 
HETATM   24  C   UNL     1     -15.798 -10.319  -5.115  1.00  0.00     0.009 A 
ENDBRANCH  17  18
ENDBRANCH  16  17
ENDBRANCH  14  16
ENDBRANCH  12  14
ENDBRANCH   8  12
BRANCH   6  25
HETATM   25  O   UNL     1     -20.382  -6.755  -7.021  1.00  0.00    -0.358 OA
HETATM   26  H   UNL     1     -20.698  -5.901  -7.349  1.00  0.00     0.217 HD
ENDBRANCH   6  25
BRANCH   1  27
HETATM   27  O   UNL     1     -20.405  -4.576  -5.365  1.00  0.00    -0.358 OA
HETATM   28  H   UNL     1     -20.002  -4.694  -6.239  1.00  0.00     0.217 HD
ENDBRANCH   1  27
TORSDOF 7
ENDMDL
MODEL 5
REMARK VINA RESULT:      -7.4      6.441      9.484
REMARK  7 active torsions:
REMARK  status: ('A' for Active; 'I' for Inactive)
REMARK    1  A    between atoms: O_1  and  C_2 
REMARK    2  A    between atoms: C_7  and  O_8 
REMARK    3  A    between atoms: N_10  and  C_11 
REMARK    4  A    between atoms: C_11  and  N_13 
REMARK    5  A    between atoms: N_13  and  C_14 
REMARK    6  A    between atoms: C_14  and  C_15 
REMARK    7  A    between atoms: C_15  and  C_16 
ROOT
HETATM    1  C   UNL     1     -13.790 -13.047  -4.227  1.00  0.00     0.099 A 
HETATM    2  C   UNL     1     -14.425 -12.647  -3.053  1.00  0.00     0.047 A 
HETATM    3  C   UNL     1     -15.291 -11.539  -3.055  1.00  0.00    -0.047 A 
HETATM    4  C   UNL     1     -15.516 -10.825  -4.251  1.00  0.00    -0.031 A 
HETATM    5  C   UNL     1     -14.858 -11.237  -5.424  1.00  0.00     0.048 A 
HETATM    6  C   UNL     1     -14.002 -12.339  -5.407  1.00  0.00     0.099 A 
HETATM    7  C   UNL     1     -16.455  -9.632  -4.284  1.00  0.00     0.164 C 
HETATM    8  N   UNL     1     -17.855 -10.023  -4.024  1.00  0.00    -0.354 N 
HETATM    9  C   UNL     1     -18.202 -10.163  -2.603  1.00  0.00     0.126 C 
HETATM   10  C   UNL     1     -17.511 -11.332  -1.900  1.00  0.00     0.025 C 
HETATM   11  C   UNL     1     -15.996 -11.152  -1.779  1.00  0.00     0.041 C 
ENDROOT
BRANCH   8  12
HETATM   12  C   UNL     1     -18.790 -10.131  -5.065  1.00  0.00     0.170 C 
HETATM   13  S   UNL     1     -19.393 -11.607  -5.620  1.00  0.00    -0.041 SA
BRANCH  12  14
HETATM   14  N   UNL     1     -19.218  -8.916  -5.590  1.00  0.00    -0.367 N 
HETATM   15  H   UNL     1     -18.519  -8.200  -5.700  1.00  0.00     0.161 HD
BRANCH  14  16
HETATM   16  C   UNL     1     -20.593  -8.426  -5.412  1.00  0.00     0.126 C 
BRANCH  16  17
HETATM   17  C   UNL     1     -20.745  -7.145  -4.582  1.00  0.00     0.058 C 
BRANCH  17  18
HETATM   18  C   UNL     1     -21.330  -7.368  -3.208  1.00  0.00    -0.057 A 
HETATM   19  C   UNL     1     -21.820  -6.285  -2.466  1.00  0.00     0.009 A 
HETATM   20  C   UNL     1     -22.310  -6.475  -1.167  1.00  0.00     0.024 A 
HETATM   21  C   UNL     1     -22.326  -7.754  -0.622  1.00  0.00     0.034 A 
HETATM   22 CL   UNL     1     -22.886  -7.983   0.995  1.00  0.00    -0.084 Cl
HETATM   23  C   UNL     1     -21.889  -8.844  -1.364  1.00  0.00     0.024 A 
HETATM   24  C   UNL     1     -21.397  -8.656  -2.659  1.00  0.00     0.009 A 
ENDBRANCH  17  18
ENDBRANCH  16  17
ENDBRANCH  14  16
ENDBRANCH  12  14
ENDBRANCH   8  12
BRANCH   6  25
HETATM   25  O   UNL     1     -13.364 -12.741  -6.549  1.00  0.00    -0.358 OA
HETATM   26  H   UNL     1     -12.445 -12.959  -6.338  1.00  0.00     0.217 HD
ENDBRANCH   6  25
BRANCH   1  27
HETATM   27  O   UNL     1     -12.970 -14.139  -4.229  1.00  0.00    -0.358 OA
HETATM   28  H   UNL     1     -13.247 -14.742  -4.936  1.00  0.00     0.217 HD
ENDBRANCH   1  27
TORSDOF 7
ENDMDL
MODEL 6
REMARK VINA RESULT:      -7.3      6.257      8.758
REMARK  7 active torsions:
REMARK  status: ('A' for Active; 'I' for Inactive)
REMARK    1  A    between atoms: O_1  and  C_2 
REMARK    2  A    between atoms: C_7  and  O_8 
REMARK    3  A    between atoms: N_10  and  C_11 
REMARK    4  A    between atoms: C_11  and  N_13 
REMARK    5  A    between atoms: N_13  and  C_14 
REMARK    6  A    between atoms: C_14  and  C_15 
REMARK    7  A    between atoms: C_15  and  C_16 
ROOT
HETATM    1  C   UNL     1     -21.484  -6.840  -3.566  1.00  0.00     0.099 A 
HETATM    2  C   UNL     1     -21.778  -6.876  -2.206  1.00  0.00     0.047 A 
HETATM    3  C   UNL     1     -21.885  -8.107  -1.534  1.00  0.00    -0.047 A 
HETATM    4  C   UNL     1     -21.696  -9.313  -2.241  1.00  0.00    -0.031 A 
HETATM    5  C   UNL     1     -21.410  -9.257  -3.618  1.00  0.00     0.048 A 
HETATM    6  C   UNL     1     -21.307  -8.028  -4.271  1.00  0.00     0.099 A 
HETATM    7  C   UNL     1     -21.793 -10.655  -1.538  1.00  0.00     0.164 C 
HETATM    8  N   UNL     1     -20.714 -10.840  -0.547  1.00  0.00    -0.354 N 
HETATM    9  C   UNL     1     -20.966 -10.220   0.761  1.00  0.00     0.126 C 
HETATM   10  C   UNL     1     -20.987  -8.691   0.738  1.00  0.00     0.025 C 
HETATM   11  C   UNL     1     -22.166  -8.115  -0.052  1.00  0.00     0.041 C 
ENDROOT
BRANCH   8  12
HETATM   12  C   UNL     1     -19.599 -11.648  -0.820  1.00  0.00     0.170 C 
HETATM   13  S   UNL     1     -19.433 -12.547  -2.238  1.00  0.00    -0.041 SA
BRANCH  12  14
HETATM   14  N   UNL     1     -18.611 -11.625   0.159  1.00  0.00    -0.367 N 
HETATM   15  H   UNL     1     -18.508 -10.767   0.677  1.00  0.00     0.161 HD
BRANCH  14  16
HETATM   16  C   UNL     1     -17.398 -12.451   0.068  1.00  0.00     0.126 C 
BRANCH  16  17
HETATM   17  C   UNL     1     -16.102 -11.702  -0.269  1.00  0.00     0.058 C 
BRANCH  17  18
HETATM   18  C   UNL     1     -15.893 -11.469  -1.747  1.00  0.00    -0.057 A 
HETATM   19  C   UNL     1     -16.160 -10.213  -2.307  1.00  0.00     0.009 A 
HETATM   20  C   UNL     1     -16.025 -10.006  -3.687  1.00  0.00     0.024 A 
HETATM   21  C   UNL     1     -15.605 -11.053  -4.498  1.00  0.00     0.034 A 
HETATM   22 CL   UNL     1     -15.483 -10.813  -6.204  1.00  0.00    -0.084 Cl
HETATM   23  C   UNL     1     -15.289 -12.291  -3.950  1.00  0.00     0.024 A 
HETATM   24  C   UNL     1     -15.426 -12.499  -2.574  1.00  0.00     0.009 A 
ENDBRANCH  17  18
ENDBRANCH  16  17
ENDBRANCH  14  16
ENDBRANCH  12  14
ENDBRANCH   8  12
BRANCH   6  25
HETATM   25  O   UNL     1     -21.025  -7.975  -5.609  1.00  0.00    -0.358 OA
HETATM   26  H   UNL     1     -20.120  -8.289  -5.754  1.00  0.00     0.217 HD
ENDBRANCH   6  25
BRANCH   1  27
HETATM   27  O   UNL     1     -21.355  -5.644  -4.212  1.00  0.00    -0.358 OA
HETATM   28  H   UNL     1     -20.558  -5.665  -4.765  1.00  0.00     0.217 HD
ENDBRANCH   1  27
TORSDOF 7
ENDMDL
MODEL 7
REMARK VINA RESULT:      -7.3      4.916      9.393
REMARK  7 active torsions:
REMARK  status: ('A' for Active; 'I' for Inactive)
REMARK    1  A    between atoms: O_1  and  C_2 
REMARK    2  A    between atoms: C_7  and  O_8 
REMARK    3  A    between atoms: N_10  and  C_11 
REMARK    4  A    between atoms: C_11  and  N_13 
REMARK    5  A    between atoms: N_13  and  C_14 
REMARK    6  A    between atoms: C_14  and  C_15 
REMARK    7  A    between atoms: C_15  and  C_16 
ROOT
HETATM    1  C   UNL     1     -21.774 -11.603  -1.029  1.00  0.00     0.099 A 
HETATM    2  C   UNL     1     -20.451 -11.621  -1.462  1.00  0.00     0.047 A 
HETATM    3  C   UNL     1     -20.117 -11.162  -2.749  1.00  0.00    -0.047 A 
HETATM    4  C   UNL     1     -21.128 -10.685  -3.609  1.00  0.00    -0.031 A 
HETATM    5  C   UNL     1     -22.462 -10.685  -3.159  1.00  0.00     0.048 A 
HETATM    6  C   UNL     1     -22.777 -11.143  -1.878  1.00  0.00     0.099 A 
HETATM    7  C   UNL     1     -20.795 -10.173  -4.999  1.00  0.00     0.164 C 
HETATM    8  N   UNL     1     -19.981  -8.942  -4.954  1.00  0.00    -0.354 N 
HETATM    9  C   UNL     1     -18.540  -9.163  -4.771  1.00  0.00     0.126 C 
HETATM   10  C   UNL     1     -18.160  -9.730  -3.401  1.00  0.00     0.025 C 
HETATM   11  C   UNL     1     -18.671 -11.155  -3.176  1.00  0.00     0.041 C 
ENDROOT
BRANCH   8  12
HETATM   12  C   UNL     1     -20.548  -7.680  -5.189  1.00  0.00     0.170 C 
HETATM   13  S   UNL     1     -21.618  -6.932  -4.120  1.00  0.00    -0.041 SA
BRANCH  12  14
HETATM   14  N   UNL     1     -20.131  -7.065  -6.365  1.00  0.00    -0.367 N 
HETATM   15  H   UNL     1     -19.136  -7.013  -6.519  1.00  0.00     0.161 HD
BRANCH  14  16
HETATM   16  C   UNL     1     -20.922  -6.017  -7.026  1.00  0.00     0.126 C 
BRANCH  16  17
HETATM   17  C   UNL     1     -20.145  -5.079  -7.959  1.00  0.00     0.058 C 
BRANCH  17  18
HETATM   18  C   UNL     1     -20.973  -4.503  -9.082  1.00  0.00    -0.057 A 
HETATM   19  C   UNL     1     -20.380  -4.213 -10.318  1.00  0.00     0.009 A 
HETATM   20  C   UNL     1     -21.128  -3.623 -11.345  1.00  0.00     0.024 A 
HETATM   21  C   UNL     1     -22.473  -3.342 -11.138  1.00  0.00     0.034 A 
HETATM   22 CL   UNL     1     -23.385  -2.572 -12.386  1.00  0.00    -0.084 Cl
HETATM   23  C   UNL     1     -23.087  -3.668  -9.934  1.00  0.00     0.024 A 
HETATM   24  C   UNL     1     -22.341  -4.254  -8.907  1.00  0.00     0.009 A 
ENDBRANCH  17  18
ENDBRANCH  16  17
ENDBRANCH  14  16
ENDBRANCH  12  14
ENDBRANCH   8  12
BRANCH   6  25
HETATM   25  O   UNL     1     -24.074 -11.140  -1.440  1.00  0.00    -0.358 OA
HETATM   26  H   UNL     1     -24.198 -10.400  -0.827  1.00  0.00     0.217 HD
ENDBRANCH   6  25
BRANCH   1  27
HETATM   27  O   UNL     1     -22.093 -12.024   0.230  1.00  0.00    -0.358 OA
HETATM   28  H   UNL     1     -23.011 -11.777   0.425  1.00  0.00     0.217 HD
ENDBRANCH   1  27
TORSDOF 7
ENDMDL
MODEL 8
REMARK VINA RESULT:      -7.3      4.668      9.026
REMARK  7 active torsions:
REMARK  status: ('A' for Active; 'I' for Inactive)
REMARK    1  A    between atoms: O_1  and  C_2 
REMARK    2  A    between atoms: C_7  and  O_8 
REMARK    3  A    between atoms: N_10  and  C_11 
REMARK    4  A    between atoms: C_11  and  N_13 
REMARK    5  A    between atoms: N_13  and  C_14 
REMARK    6  A    between atoms: C_14  and  C_15 
REMARK    7  A    between atoms: C_15  and  C_16 
ROOT
HETATM    1  C   UNL     1     -21.685  -8.647   0.219  1.00  0.00     0.099 A 
HETATM    2  C   UNL     1     -21.273  -9.959   0.003  1.00  0.00     0.047 A 
HETATM    3  C   UNL     1     -21.241 -10.489  -1.300  1.00  0.00    -0.047 A 
HETATM    4  C   UNL     1     -21.632  -9.689  -2.394  1.00  0.00    -0.031 A 
HETATM    5  C   UNL     1     -22.057  -8.368  -2.154  1.00  0.00     0.048 A 
HETATM    6  C   UNL     1     -22.083  -7.857  -0.856  1.00  0.00     0.099 A 
HETATM    7  C   UNL     1     -21.597 -10.231  -3.811  1.00  0.00     0.164 C 
HETATM    8  N   UNL     1     -20.219 -10.514  -4.261  1.00  0.00    -0.354 N 
HETATM    9  C   UNL     1     -19.685 -11.813  -3.829  1.00  0.00     0.126 C 
HETATM   10  C   UNL     1     -19.454 -11.928  -2.321  1.00  0.00     0.025 C 
HETATM   11  C   UNL     1     -20.752 -11.900  -1.509  1.00  0.00     0.041 C 
ENDROOT
BRANCH   8  12
HETATM   12  C   UNL     1     -19.539  -9.645  -5.129  1.00  0.00     0.170 C 
HETATM   13  S   UNL     1     -17.910  -9.824  -5.529  1.00  0.00    -0.041 SA
BRANCH  12  14
HETATM   14  N   UNL     1     -20.325  -8.635  -5.672  1.00  0.00    -0.367 N 
HETATM   15  H   UNL     1     -20.740  -8.818  -6.571  1.00  0.00     0.161 HD
BRANCH  14  16
HETATM   16  C   UNL     1     -20.097  -7.214  -5.367  1.00  0.00     0.126 C 
BRANCH  16  17
HETATM   17  C   UNL     1     -21.303  -6.286  -5.562  1.00  0.00     0.058 C 
BRANCH  17  18
HETATM   18  C   UNL     1     -21.274  -5.502  -6.853  1.00  0.00    -0.057 A 
HETATM   19  C   UNL     1     -22.377  -4.724  -7.230  1.00  0.00     0.009 A 
HETATM   20  C   UNL     1     -22.381  -4.041  -8.453  1.00  0.00     0.024 A 
HETATM   21  C   UNL     1     -21.272  -4.124  -9.288  1.00  0.00     0.034 A 
HETATM   22 CL   UNL     1     -21.294  -3.322 -10.816  1.00  0.00    -0.084 Cl
HETATM   23  C   UNL     1     -20.152  -4.853  -8.905  1.00  0.00     0.024 A 
HETATM   24  C   UNL     1     -20.148  -5.537  -7.685  1.00  0.00     0.009 A 
ENDBRANCH  17  18
ENDBRANCH  16  17
ENDBRANCH  14  16
ENDBRANCH  12  14
ENDBRANCH   8  12
BRANCH   6  25
HETATM   25  O   UNL     1     -22.493  -6.572  -0.625  1.00  0.00    -0.358 OA
HETATM   26  H   UNL     1     -23.391  -6.587  -0.263  1.00  0.00     0.217 HD
ENDBRANCH   6  25
BRANCH   1  27
HETATM   27  O   UNL     1     -21.690  -8.125   1.482  1.00  0.00    -0.358 OA
HETATM   28  H   UNL     1     -20.802  -7.801   1.695  1.00  0.00     0.217 HD
ENDBRANCH   1  27
TORSDOF 7
ENDMDL
MODEL 9
REMARK VINA RESULT:      -7.2      6.778      9.408
REMARK  7 active torsions:
REMARK  status: ('A' for Active; 'I' for Inactive)
REMARK    1  A    between atoms: O_1  and  C_2 
REMARK    2  A    between atoms: C_7  and  O_8 
REMARK    3  A    between atoms: N_10  and  C_11 
REMARK    4  A    between atoms: C_11  and  N_13 
REMARK    5  A    between atoms: N_13  and  C_14 
REMARK    6  A    between atoms: C_14  and  C_15 
REMARK    7  A    between atoms: C_15  and  C_16 
ROOT
HETATM    1  C   UNL     1     -22.086  -6.595  -1.823  1.00  0.00     0.099 A 
HETATM    2  C   UNL     1     -22.312  -7.470  -0.764  1.00  0.00     0.047 A 
HETATM    3  C   UNL     1     -21.987  -8.833  -0.885  1.00  0.00    -0.047 A 
HETATM    4  C   UNL     1     -21.431  -9.318  -2.087  1.00  0.00    -0.031 A 
HETATM    5  C   UNL     1     -21.220  -8.421  -3.151  1.00  0.00     0.048 A 
HETATM    6  C   UNL     1     -21.547  -7.072  -3.015  1.00  0.00     0.099 A 
HETATM    7  C   UNL     1     -21.060 -10.782  -2.241  1.00  0.00     0.164 C 
HETATM    8  N   UNL     1     -19.951 -11.169  -1.345  1.00  0.00    -0.354 N 
HETATM    9  C   UNL     1     -20.356 -11.493   0.030  1.00  0.00     0.126 C 
HETATM   10  C   UNL     1     -20.881 -10.299   0.829  1.00  0.00     0.025 C 
HETATM   11  C   UNL     1     -22.206  -9.750   0.292  1.00  0.00     0.041 C 
ENDROOT
BRANCH   8  12
HETATM   12  C   UNL     1     -18.641 -11.321  -1.824  1.00  0.00     0.170 C 
HETATM   13  S   UNL     1     -17.783 -12.771  -1.731  1.00  0.00    -0.041 SA
BRANCH  12  14
HETATM   14  N   UNL     1     -18.106 -10.185  -2.422  1.00  0.00    -0.367 N 
HETATM   15  H   UNL     1     -18.418  -9.296  -2.065  1.00  0.00     0.161 HD
BRANCH  14  16
HETATM   16  C   UNL     1     -17.657 -10.173  -3.823  1.00  0.00     0.126 C 
BRANCH  16  17
HETATM   17  C   UNL     1     -16.180  -9.828  -4.049  1.00  0.00     0.058 C 
BRANCH  17  18
HETATM   18  C   UNL     1     -15.367 -10.958  -4.635  1.00  0.00    -0.057 A 
HETATM   19  C   UNL     1     -15.311 -11.139  -6.024  1.00  0.00     0.009 A 
HETATM   20  C   UNL     1     -14.607 -12.220  -6.572  1.00  0.00     0.024 A 
HETATM   21  C   UNL     1     -13.946 -13.105  -5.729  1.00  0.00     0.034 A 
HETATM   22 CL   UNL     1     -13.118 -14.463  -6.400  1.00  0.00    -0.084 Cl
HETATM   23  C   UNL     1     -13.952 -12.910  -4.353  1.00  0.00     0.024 A 
HETATM   24  C   UNL     1     -14.656 -11.834  -3.804  1.00  0.00     0.009 A 
ENDBRANCH  17  18
ENDBRANCH  16  17
ENDBRANCH  14  16
ENDBRANCH  12  14
ENDBRANCH   8  12
BRANCH   6  25
HETATM   25  O   UNL     1     -21.338  -6.200  -4.049  1.00  0.00    -0.358 OA
HETATM   26  H   UNL     1     -20.606  -5.608  -3.820  1.00  0.00     0.217 HD
ENDBRANCH   6  25
BRANCH   1  27
HETATM   27  O   UNL     1     -22.378  -5.267  -1.695  1.00  0.00    -0.358 OA
HETATM   28  H   UNL     1     -23.075  -5.158  -1.029  1.00  0.00     0.217 HD
ENDBRANCH   1  27
TORSDOF 7
ENDMDL
