MODEL 1
REMARK VINA RESULT:     -10.5      0.000      0.000
REMARK  0 active torsions:
REMARK  status: ('A' for Active; 'I' for Inactive)
ROOT
HETATM    1  C   UNL     1     -21.052 -10.950  -1.915  1.00  0.00     0.268 C 
HETATM    2  C   UNL     1     -20.541 -10.567  -3.344  1.00  0.00     0.268 C 
HETATM    3  C   UNL     1     -20.116  -9.085  -3.374  1.00  0.00     0.291 C 
HETATM    4  C   UNL     1     -21.241  -8.172  -2.916  1.00  0.00     0.356 C 
HETATM    5  C   UNL     1     -21.728  -8.559  -1.525  1.00  0.00     0.356 C 
HETATM    6  C   UNL     1     -22.201 -10.005  -1.509  1.00  0.00     0.291 C 
HETATM    7  C   UNL     1     -22.774 -10.349  -0.141  1.00  0.00     0.359 C 
HETATM    8  C   UNL     1     -23.276 -11.782  -0.109  1.00  0.00     0.381 C 
HETATM    9  C   UNL     1     -22.124 -12.714  -0.402  1.00  0.00     0.381 C 
HETATM   10  C   UNL     1     -21.518 -12.405  -1.767  1.00  0.00     0.356 C 
HETATM   11  F   UNL     1     -22.413 -12.675  -2.747  1.00  0.00    -0.195 F 
HETATM   12  F   UNL     1     -20.468 -13.242  -1.959  1.00  0.00    -0.195 F 
HETATM   13  F   UNL     1     -21.168 -12.590   0.557  1.00  0.00    -0.192 F 
HETATM   14  F   UNL     1     -22.537 -14.010  -0.357  1.00  0.00    -0.192 F 
HETATM   15  F   UNL     1     -23.824 -12.065   1.101  1.00  0.00    -0.192 F 
HETATM   16  F   UNL     1     -24.265 -11.953  -1.023  1.00  0.00    -0.192 F 
HETATM   17  F   UNL     1     -21.829 -10.162   0.811  1.00  0.00    -0.195 F 
HETATM   18  F   UNL     1     -23.795  -9.505   0.162  1.00  0.00    -0.195 F 
HETATM   19  F   UNL     1     -23.198 -10.150  -2.430  1.00  0.00    -0.225 F 
HETATM   20  F   UNL     1     -20.725  -8.394  -0.626  1.00  0.00    -0.195 F 
HETATM   21  F   UNL     1     -22.723  -7.725  -1.141  1.00  0.00    -0.195 F 
HETATM   22  F   UNL     1     -20.825  -6.881  -2.908  1.00  0.00    -0.195 F 
HETATM   23  F   UNL     1     -22.271  -8.235  -3.795  1.00  0.00    -0.195 F 
HETATM   24  C   UNL     1     -19.653  -8.675  -4.767  1.00  0.00     0.359 C 
HETATM   25  C   UNL     1     -18.459  -9.507  -5.200  1.00  0.00     0.381 C 
HETATM   26  C   UNL     1     -18.847 -10.966  -5.225  1.00  0.00     0.381 C 
HETATM   27  C   UNL     1     -19.373 -11.421  -3.867  1.00  0.00     0.356 C 
HETATM   28  F   UNL     1     -18.378 -11.404  -2.948  1.00  0.00    -0.195 F 
HETATM   29  F   UNL     1     -19.770 -12.713  -3.986  1.00  0.00    -0.195 F 
HETATM   30  F   UNL     1     -17.785 -11.732  -5.594  1.00  0.00    -0.192 F 
HETATM   31  F   UNL     1     -19.804 -11.172  -6.171  1.00  0.00    -0.192 F 
HETATM   32  F   UNL     1     -17.421  -9.308  -4.346  1.00  0.00    -0.192 F 
HETATM   33  F   UNL     1     -18.022  -9.108  -6.423  1.00  0.00    -0.192 F 
HETATM   34  F   UNL     1     -19.325  -7.360  -4.788  1.00  0.00    -0.195 F 
HETATM   35  F   UNL     1     -20.670  -8.826  -5.651  1.00  0.00    -0.195 F 
HETATM   36  F   UNL     1     -19.069  -8.941  -2.510  1.00  0.00    -0.225 F 
HETATM   37  F   UNL     1     -21.584 -10.711  -4.209  1.00  0.00    -0.228 F 
HETATM   38  F   UNL     1     -20.030 -10.754  -1.037  1.00  0.00    -0.228 F 
ENDROOT
TORSDOF 0
ENDMDL
MODEL 2
REMARK VINA RESULT:     -10.2      1.240      5.532
REMARK  0 active torsions:
REMARK  status: ('A' for Active; 'I' for Inactive)
ROOT
HETATM    1  C   UNL     1     -19.691 -10.796  -3.318  1.00  0.00     0.268 C 
HETATM    2  C   UNL     1     -20.285 -10.215  -1.991  1.00  0.00     0.268 C 
HETATM    3  C   UNL     1     -21.330  -9.127  -2.312  1.00  0.00     0.291 C 
HETATM    4  C   UNL     1     -20.747  -8.035  -3.193  1.00  0.00     0.356 C 
HETATM    5  C   UNL     1     -20.173  -8.617  -4.478  1.00  0.00     0.356 C 
HETATM    6  C   UNL     1     -19.100  -9.649  -4.163  1.00  0.00     0.291 C 
HETATM    7  C   UNL     1     -18.467 -10.151  -5.453  1.00  0.00     0.359 C 
HETATM    8  C   UNL     1     -17.375 -11.165  -5.162  1.00  0.00     0.381 C 
HETATM    9  C   UNL     1     -17.977 -12.340  -4.427  1.00  0.00     0.381 C 
HETATM   10  C   UNL     1     -18.624 -11.882  -3.124  1.00  0.00     0.356 C 
HETATM   11  F   UNL     1     -17.680 -11.415  -2.273  1.00  0.00    -0.195 F 
HETATM   12  F   UNL     1     -19.180 -12.966  -2.528  1.00  0.00    -0.195 F 
HETATM   13  F   UNL     1     -18.910 -12.950  -5.205  1.00  0.00    -0.192 F 
HETATM   14  F   UNL     1     -17.026 -13.279  -4.171  1.00  0.00    -0.192 F 
HETATM   15  F   UNL     1     -16.788 -11.574  -6.316  1.00  0.00    -0.192 F 
HETATM   16  F   UNL     1     -16.393 -10.596  -4.417  1.00  0.00    -0.192 F 
HETATM   17  F   UNL     1     -19.418 -10.701  -6.246  1.00  0.00    -0.195 F 
HETATM   18  F   UNL     1     -17.943  -9.109  -6.151  1.00  0.00    -0.195 F 
HETATM   19  F   UNL     1     -18.122  -9.053  -3.420  1.00  0.00    -0.225 F 
HETATM   20  F   UNL     1     -21.164  -9.192  -5.204  1.00  0.00    -0.195 F 
HETATM   21  F   UNL     1     -19.669  -7.621  -5.245  1.00  0.00    -0.195 F 
HETATM   22  F   UNL     1     -21.700  -7.118  -3.496  1.00  0.00    -0.195 F 
HETATM   23  F   UNL     1     -19.778  -7.369  -2.519  1.00  0.00    -0.195 F 
HETATM   24  C   UNL     1     -21.894  -8.515  -1.035  1.00  0.00     0.359 C 
HETATM   25  C   UNL     1     -22.576  -9.576  -0.189  1.00  0.00     0.381 C 
HETATM   26  C   UNL     1     -21.572 -10.641   0.183  1.00  0.00     0.381 C 
HETATM   27  C   UNL     1     -20.930 -11.254  -1.058  1.00  0.00     0.356 C 
HETATM   28  F   UNL     1     -21.848 -11.958  -1.763  1.00  0.00    -0.195 F 
HETATM   29  F   UNL     1     -19.992 -12.143  -0.647  1.00  0.00    -0.195 F 
HETATM   30  F   UNL     1     -22.166 -11.612   0.928  1.00  0.00    -0.192 F 
HETATM   31  F   UNL     1     -20.602 -10.105   0.973  1.00  0.00    -0.192 F 
HETATM   32  F   UNL     1     -23.612 -10.122  -0.876  1.00  0.00    -0.192 F 
HETATM   33  F   UNL     1     -23.115  -9.018   0.927  1.00  0.00    -0.192 F 
HETATM   34  F   UNL     1     -22.778  -7.531  -1.333  1.00  0.00    -0.195 F 
HETATM   35  F   UNL     1     -20.896  -7.928  -0.329  1.00  0.00    -0.195 F 
HETATM   36  F   UNL     1     -22.350  -9.727  -2.992  1.00  0.00    -0.225 F 
HETATM   37  F   UNL     1     -19.268  -9.617  -1.310  1.00  0.00    -0.228 F 
HETATM   38  F   UNL     1     -20.713 -11.346  -4.030  1.00  0.00    -0.228 F 
ENDROOT
TORSDOF 0
ENDMDL
MODEL 3
REMARK VINA RESULT:     -10.0      0.229      5.550
REMARK  0 active torsions:
REMARK  status: ('A' for Active; 'I' for Inactive)
ROOT
HETATM    1  C   UNL     1     -20.558 -10.725  -3.399  1.00  0.00     0.268 C 
HETATM    2  C   UNL     1     -21.024 -11.146  -1.965  1.00  0.00     0.268 C 
HETATM    3  C   UNL     1     -22.158 -10.216  -1.485  1.00  0.00     0.291 C 
HETATM    4  C   UNL     1     -21.743  -8.756  -1.535  1.00  0.00     0.356 C 
HETATM    5  C   UNL     1     -21.290  -8.364  -2.936  1.00  0.00     0.356 C 
HETATM    6  C   UNL     1     -20.133  -9.243  -3.388  1.00  0.00     0.291 C 
HETATM    7  C   UNL     1     -19.627  -8.779  -4.747  1.00  0.00     0.359 C 
HETATM    8  C   UNL     1     -18.455  -9.627  -5.207  1.00  0.00     0.381 C 
HETATM    9  C   UNL     1     -18.902 -11.065  -5.321  1.00  0.00     0.381 C 
HETATM   10  C   UNL     1     -19.418 -11.574  -3.978  1.00  0.00     0.356 C 
HETATM   11  F   UNL     1     -18.408 -11.617  -3.077  1.00  0.00    -0.195 F 
HETATM   12  F   UNL     1     -19.840 -12.851  -4.148  1.00  0.00    -0.195 F 
HETATM   13  F   UNL     1     -19.883 -11.177  -6.255  1.00  0.00    -0.192 F 
HETATM   14  F   UNL     1     -17.878 -11.849  -5.754  1.00  0.00    -0.192 F 
HETATM   15  F   UNL     1     -17.984  -9.177  -6.399  1.00  0.00    -0.192 F 
HETATM   16  F   UNL     1     -17.425  -9.521  -4.328  1.00  0.00    -0.192 F 
HETATM   17  F   UNL     1     -20.631  -8.837  -5.654  1.00  0.00    -0.195 F 
HETATM   18  F   UNL     1     -19.245  -7.476  -4.681  1.00  0.00    -0.195 F 
HETATM   19  F   UNL     1     -19.110  -9.115  -2.494  1.00  0.00    -0.225 F 
HETATM   20  F   UNL     1     -22.325  -8.487  -3.804  1.00  0.00    -0.195 F 
HETATM   21  F   UNL     1     -20.934  -7.057  -2.952  1.00  0.00    -0.195 F 
HETATM   22  F   UNL     1     -22.773  -7.960  -1.153  1.00  0.00    -0.195 F 
HETATM   23  F   UNL     1     -20.740  -8.532  -0.652  1.00  0.00    -0.195 F 
HETATM   24  C   UNL     1     -22.603 -10.579  -0.073  1.00  0.00     0.359 C 
HETATM   25  C   UNL     1     -23.123 -12.004  -0.025  1.00  0.00     0.381 C 
HETATM   26  C   UNL     1     -22.026 -12.952  -0.448  1.00  0.00     0.381 C 
HETATM   27  C   UNL     1     -21.500 -12.603  -1.837  1.00  0.00     0.356 C 
HETATM   28  F   UNL     1     -22.453 -12.832  -2.772  1.00  0.00    -0.195 F 
HETATM   29  F   UNL     1     -20.473 -13.444  -2.117  1.00  0.00    -0.195 F 
HETATM   30  F   UNL     1     -22.475 -14.236  -0.429  1.00  0.00    -0.192 F 
HETATM   31  F   UNL     1     -21.002 -12.901   0.447  1.00  0.00    -0.192 F 
HETATM   32  F   UNL     1     -24.200 -12.133  -0.842  1.00  0.00    -0.192 F 
HETATM   33  F   UNL     1     -23.559 -12.308   1.226  1.00  0.00    -0.192 F 
HETATM   34  F   UNL     1     -23.569  -9.726   0.351  1.00  0.00    -0.195 F 
HETATM   35  F   UNL     1     -21.564 -10.433   0.786  1.00  0.00    -0.195 F 
HETATM   36  F   UNL     1     -23.216 -10.390  -2.330  1.00  0.00    -0.225 F 
HETATM   37  F   UNL     1     -19.970 -10.974  -1.120  1.00  0.00    -0.228 F 
HETATM   38  F   UNL     1     -21.623 -10.841  -4.238  1.00  0.00    -0.228 F 
ENDROOT
TORSDOF 0
ENDMDL
MODEL 4
REMARK VINA RESULT:     -10.0      1.215      1.974
REMARK  0 active torsions:
REMARK  status: ('A' for Active; 'I' for Inactive)
ROOT
HETATM    1  C   UNL     1     -20.332 -10.193  -1.948  1.00  0.00     0.268 C 
HETATM    2  C   UNL     1     -19.751 -10.759  -3.286  1.00  0.00     0.268 C 
HETATM    3  C   UNL     1     -19.142  -9.614  -4.123  1.00  0.00     0.291 C 
HETATM    4  C   UNL     1     -20.152  -8.507  -4.372  1.00  0.00     0.356 C 
HETATM    5  C   UNL     1     -20.710  -7.970  -3.060  1.00  0.00     0.356 C 
HETATM    6  C   UNL     1     -21.361  -9.088  -2.260  1.00  0.00     0.291 C 
HETATM    7  C   UNL     1     -21.998  -8.521  -0.999  1.00  0.00     0.359 C 
HETATM    8  C   UNL     1     -22.677  -9.616  -0.196  1.00  0.00     0.381 C 
HETATM    9  C   UNL     1     -21.646 -10.647   0.202  1.00  0.00     0.381 C 
HETATM   10  C   UNL     1     -20.981 -11.243  -1.034  1.00  0.00     0.356 C 
HETATM   11  F   UNL     1     -21.884 -11.947  -1.756  1.00  0.00    -0.195 F 
HETATM   12  F   UNL     1     -20.041 -12.128  -0.618  1.00  0.00    -0.195 F 
HETATM   13  F   UNL     1     -20.701 -10.078   0.996  1.00  0.00    -0.192 F 
HETATM   14  F   UNL     1     -22.220 -11.632   0.944  1.00  0.00    -0.192 F 
HETATM   15  F   UNL     1     -23.279  -9.094   0.904  1.00  0.00    -0.192 F 
HETATM   16  F   UNL     1     -23.663 -10.194  -0.930  1.00  0.00    -0.192 F 
HETATM   17  F   UNL     1     -21.056  -7.904  -0.246  1.00  0.00    -0.195 F 
HETATM   18  F   UNL     1     -22.911  -7.568  -1.326  1.00  0.00    -0.195 F 
HETATM   19  F   UNL     1     -22.351  -9.648  -3.015  1.00  0.00    -0.225 F 
HETATM   20  F   UNL     1     -19.712  -7.407  -2.334  1.00  0.00    -0.195 F 
HETATM   21  F   UNL     1     -21.599  -6.980  -3.313  1.00  0.00    -0.195 F 
HETATM   22  F   UNL     1     -19.577  -7.495  -5.069  1.00  0.00    -0.195 F 
HETATM   23  F   UNL     1     -21.165  -8.972  -5.143  1.00  0.00    -0.195 F 
HETATM   24  C   UNL     1     -18.605 -10.133  -5.452  1.00  0.00     0.359 C 
HETATM   25  C   UNL     1     -17.517 -11.166  -5.222  1.00  0.00     0.381 C 
HETATM   26  C   UNL     1     -18.085 -12.327  -4.441  1.00  0.00     0.381 C 
HETATM   27  C   UNL     1     -18.690 -11.860  -3.120  1.00  0.00     0.356 C 
HETATM   28  F   UNL     1     -17.718 -11.405  -2.293  1.00  0.00    -0.195 F 
HETATM   29  F   UNL     1     -19.243 -12.939  -2.511  1.00  0.00    -0.195 F 
HETATM   30  F   UNL     1     -17.121 -13.259  -4.209  1.00  0.00    -0.192 F 
HETATM   31  F   UNL     1     -19.042 -12.954  -5.178  1.00  0.00    -0.192 F 
HETATM   32  F   UNL     1     -16.479 -10.606  -4.549  1.00  0.00    -0.192 F 
HETATM   33  F   UNL     1     -17.011 -11.593  -6.409  1.00  0.00    -0.192 F 
HETATM   34  F   UNL     1     -18.114  -9.109  -6.194  1.00  0.00    -0.195 F 
HETATM   35  F   UNL     1     -19.616 -10.674  -6.175  1.00  0.00    -0.195 F 
HETATM   36  F   UNL     1     -18.102  -9.093  -3.409  1.00  0.00    -0.225 F 
HETATM   37  F   UNL     1     -20.787 -11.281  -4.000  1.00  0.00    -0.228 F 
HETATM   38  F   UNL     1     -19.311  -9.620  -1.254  1.00  0.00    -0.228 F 
ENDROOT
TORSDOF 0
ENDMDL
MODEL 5
REMARK VINA RESULT:      -9.7      1.884      5.433
REMARK  0 active torsions:
REMARK  status: ('A' for Active; 'I' for Inactive)
ROOT
HETATM    1  C   UNL     1     -21.759 -11.894  -4.029  1.00  0.00     0.268 C 
HETATM    2  C   UNL     1     -21.481 -11.496  -2.541  1.00  0.00     0.268 C 
HETATM    3  C   UNL     1     -21.100 -10.003  -2.457  1.00  0.00     0.291 C 
HETATM    4  C   UNL     1     -19.920  -9.675  -3.356  1.00  0.00     0.356 C 
HETATM    5  C   UNL     1     -20.207 -10.072  -4.799  1.00  0.00     0.356 C 
HETATM    6  C   UNL     1     -20.525 -11.556  -4.892  1.00  0.00     0.291 C 
HETATM    7  C   UNL     1     -20.713 -11.958  -6.348  1.00  0.00     0.359 C 
HETATM    8  C   UNL     1     -21.008 -13.443  -6.467  1.00  0.00     0.381 C 
HETATM    9  C   UNL     1     -22.277 -13.755  -5.709  1.00  0.00     0.381 C 
HETATM   10  C   UNL     1     -22.134 -13.368  -4.241  1.00  0.00     0.356 C 
HETATM   11  F   UNL     1     -21.199 -14.143  -3.643  1.00  0.00    -0.195 F 
HETATM   12  F   UNL     1     -23.311 -13.632  -3.621  1.00  0.00    -0.195 F 
HETATM   13  F   UNL     1     -23.325 -13.081  -6.255  1.00  0.00    -0.192 F 
HETATM   14  F   UNL     1     -22.583 -15.076  -5.816  1.00  0.00    -0.192 F 
HETATM   15  F   UNL     1     -21.131 -13.799  -7.772  1.00  0.00    -0.192 F 
HETATM   16  F   UNL     1     -19.973 -14.168  -5.971  1.00  0.00    -0.192 F 
HETATM   17  F   UNL     1     -21.719 -11.235  -6.897  1.00  0.00    -0.195 F 
HETATM   18  F   UNL     1     -19.595 -11.660  -7.061  1.00  0.00    -0.195 F 
HETATM   19  F   UNL     1     -19.469 -12.263  -4.394  1.00  0.00    -0.225 F 
HETATM   20  F   UNL     1     -21.250  -9.347  -5.276  1.00  0.00    -0.195 F 
HETATM   21  F   UNL     1     -19.142  -9.760  -5.577  1.00  0.00    -0.195 F 
HETATM   22  F   UNL     1     -19.638  -8.350  -3.297  1.00  0.00    -0.195 F 
HETATM   23  F   UNL     1     -18.813 -10.321  -2.916  1.00  0.00    -0.195 F 
HETATM   24  C   UNL     1     -20.784  -9.599  -1.022  1.00  0.00     0.359 C 
HETATM   25  C   UNL     1     -21.990  -9.820  -0.126  1.00  0.00     0.381 C 
HETATM   26  C   UNL     1     -22.369 -11.281  -0.147  1.00  0.00     0.381 C 
HETATM   27  C   UNL     1     -22.644 -11.760  -1.570  1.00  0.00     0.356 C 
HETATM   28  F   UNL     1     -23.759 -11.166  -2.058  1.00  0.00    -0.195 F 
HETATM   29  F   UNL     1     -22.903 -13.090  -1.519  1.00  0.00    -0.195 F 
HETATM   30  F   UNL     1     -23.459 -11.500   0.637  1.00  0.00    -0.192 F 
HETATM   31  F   UNL     1     -21.365 -12.026   0.392  1.00  0.00    -0.192 F 
HETATM   32  F   UNL     1     -23.029  -9.055  -0.549  1.00  0.00    -0.192 F 
HETATM   33  F   UNL     1     -21.717  -9.417   1.143  1.00  0.00    -0.192 F 
HETATM   34  F   UNL     1     -20.410  -8.296  -0.970  1.00  0.00    -0.195 F 
HETATM   35  F   UNL     1     -19.728 -10.316  -0.566  1.00  0.00    -0.195 F 
HETATM   36  F   UNL     1     -22.178  -9.281  -2.883  1.00  0.00    -0.225 F 
HETATM   37  F   UNL     1     -20.407 -12.216  -2.114  1.00  0.00    -0.228 F 
HETATM   38  F   UNL     1     -22.796 -11.137  -4.481  1.00  0.00    -0.228 F 
ENDROOT
TORSDOF 0
ENDMDL
MODEL 6
REMARK VINA RESULT:      -9.7      1.121      4.142
REMARK  0 active torsions:
REMARK  status: ('A' for Active; 'I' for Inactive)
ROOT
HETATM    1  C   UNL     1     -20.929  -9.465  -2.419  1.00  0.00     0.268 C 
HETATM    2  C   UNL     1     -19.693  -9.961  -3.241  1.00  0.00     0.268 C 
HETATM    3  C   UNL     1     -19.871 -11.446  -3.619  1.00  0.00     0.291 C 
HETATM    4  C   UNL     1     -20.115 -12.310  -2.393  1.00  0.00     0.356 C 
HETATM    5  C   UNL     1     -21.320 -11.812  -1.604  1.00  0.00     0.356 C 
HETATM    6  C   UNL     1     -21.119 -10.365  -1.181  1.00  0.00     0.291 C 
HETATM    7  C   UNL     1     -22.285  -9.911  -0.313  1.00  0.00     0.359 C 
HETATM    8  C   UNL     1     -22.094  -8.475   0.143  1.00  0.00     0.381 C 
HETATM    9  C   UNL     1     -22.014  -7.579  -1.071  1.00  0.00     0.381 C 
HETATM   10  C   UNL     1     -20.858  -7.999  -1.972  1.00  0.00     0.356 C 
HETATM   11  F   UNL     1     -19.677  -7.796  -1.340  1.00  0.00    -0.195 F 
HETATM   12  F   UNL     1     -20.859  -7.189  -3.060  1.00  0.00    -0.195 F 
HETATM   13  F   UNL     1     -23.178  -7.639  -1.771  1.00  0.00    -0.192 F 
HETATM   14  F   UNL     1     -21.867  -6.280  -0.695  1.00  0.00    -0.192 F 
HETATM   15  F   UNL     1     -23.116  -8.095   0.952  1.00  0.00    -0.192 F 
HETATM   16  F   UNL     1     -20.961  -8.365   0.885  1.00  0.00    -0.192 F 
HETATM   17  F   UNL     1     -23.444 -10.033  -1.001  1.00  0.00    -0.195 F 
HETATM   18  F   UNL     1     -22.398 -10.720   0.774  1.00  0.00    -0.195 F 
HETATM   19  F   UNL     1     -19.981 -10.281  -0.433  1.00  0.00    -0.225 F 
HETATM   20  F   UNL     1     -22.440 -11.917  -2.363  1.00  0.00    -0.195 F 
HETATM   21  F   UNL     1     -21.517 -12.605  -0.524  1.00  0.00    -0.195 F 
HETATM   22  F   UNL     1     -20.315 -13.601  -2.760  1.00  0.00    -0.195 F 
HETATM   23  F   UNL     1     -19.016 -12.304  -1.600  1.00  0.00    -0.195 F 
HETATM   24  C   UNL     1     -18.660 -11.966  -4.385  1.00  0.00     0.359 C 
HETATM   25  C   UNL     1     -18.464 -11.182  -5.670  1.00  0.00     0.381 C 
HETATM   26  C   UNL     1     -18.242  -9.725  -5.340  1.00  0.00     0.381 C 
HETATM   27  C   UNL     1     -19.400  -9.162  -4.522  1.00  0.00     0.356 C 
HETATM   28  F   UNL     1     -20.527  -9.118  -5.272  1.00  0.00    -0.195 F 
HETATM   29  F   UNL     1     -19.098  -7.879  -4.200  1.00  0.00    -0.195 F 
HETATM   30  F   UNL     1     -18.079  -9.000  -6.479  1.00  0.00    -0.192 F 
HETATM   31  F   UNL     1     -17.084  -9.583  -4.637  1.00  0.00    -0.192 F 
HETATM   32  F   UNL     1     -19.550 -11.325  -6.472  1.00  0.00    -0.192 F 
HETATM   33  F   UNL     1     -17.410 -11.677  -6.371  1.00  0.00    -0.192 F 
HETATM   34  F   UNL     1     -18.813 -13.282  -4.672  1.00  0.00    -0.195 F 
HETATM   35  F   UNL     1     -17.553 -11.873  -3.608  1.00  0.00    -0.195 F 
HETATM   36  F   UNL     1     -20.966 -11.533  -4.429  1.00  0.00    -0.225 F 
HETATM   37  F   UNL     1     -18.598  -9.874  -2.434  1.00  0.00    -0.228 F 
HETATM   38  F   UNL     1     -22.036  -9.603  -3.200  1.00  0.00    -0.228 F 
ENDROOT
TORSDOF 0
ENDMDL
MODEL 7
REMARK VINA RESULT:      -9.7      1.879      3.369
REMARK  0 active torsions:
REMARK  status: ('A' for Active; 'I' for Inactive)
ROOT
HETATM    1  C   UNL     1     -21.456 -11.547  -2.541  1.00  0.00     0.268 C 
HETATM    2  C   UNL     1     -21.712 -11.918  -4.040  1.00  0.00     0.268 C 
HETATM    3  C   UNL     1     -20.454 -11.619  -4.881  1.00  0.00     0.291 C 
HETATM    4  C   UNL     1     -20.010 -10.174  -4.727  1.00  0.00     0.356 C 
HETATM    5  C   UNL     1     -19.767  -9.829  -3.263  1.00  0.00     0.356 C 
HETATM    6  C   UNL     1     -21.026 -10.070  -2.443  1.00  0.00     0.291 C 
HETATM    7  C   UNL     1     -20.799  -9.630  -1.003  1.00  0.00     0.359 C 
HETATM    8  C   UNL     1     -22.052  -9.838  -0.170  1.00  0.00     0.381 C 
HETATM    9  C   UNL     1     -22.412 -11.305  -0.179  1.00  0.00     0.381 C 
HETATM   10  C   UNL     1     -22.648 -11.790  -1.606  1.00  0.00     0.356 C 
HETATM   11  F   UNL     1     -23.740 -11.183  -2.130  1.00  0.00    -0.195 F 
HETATM   12  F   UNL     1     -22.928 -13.116  -1.557  1.00  0.00    -0.195 F 
HETATM   13  F   UNL     1     -21.414 -12.034   0.387  1.00  0.00    -0.192 F 
HETATM   14  F   UNL     1     -23.519 -11.528   0.579  1.00  0.00    -0.192 F 
HETATM   15  F   UNL     1     -21.853  -9.402   1.101  1.00  0.00    -0.192 F 
HETATM   16  F   UNL     1     -23.075  -9.098  -0.669  1.00  0.00    -0.192 F 
HETATM   17  F   UNL     1     -19.763 -10.321  -0.471  1.00  0.00    -0.195 F 
HETATM   18  F   UNL     1     -20.444  -8.319  -0.967  1.00  0.00    -0.195 F 
HETATM   19  F   UNL     1     -22.037  -9.312  -2.959  1.00  0.00    -0.225 F 
HETATM   20  F   UNL     1     -18.751 -10.585  -2.776  1.00  0.00    -0.195 F 
HETATM   21  F   UNL     1     -19.365  -8.540  -3.159  1.00  0.00    -0.195 F 
HETATM   22  F   UNL     1     -18.877  -9.952  -5.440  1.00  0.00    -0.195 F 
HETATM   23  F   UNL     1     -20.952  -9.346  -5.242  1.00  0.00    -0.195 F 
HETATM   24  C   UNL     1     -20.691 -11.933  -6.353  1.00  0.00     0.359 C 
HETATM   25  C   UNL     1     -21.032 -13.401  -6.539  1.00  0.00     0.381 C 
HETATM   26  C   UNL     1     -22.287 -13.725  -5.764  1.00  0.00     0.381 C 
HETATM   27  C   UNL     1     -22.129 -13.378  -4.286  1.00  0.00     0.356 C 
HETATM   28  F   UNL     1     -21.215 -14.193  -3.708  1.00  0.00    -0.195 F 
HETATM   29  F   UNL     1     -23.312 -13.625  -3.671  1.00  0.00    -0.195 F 
HETATM   30  F   UNL     1     -22.603 -15.041  -5.903  1.00  0.00    -0.192 F 
HETATM   31  F   UNL     1     -23.340 -13.032  -6.279  1.00  0.00    -0.192 F 
HETATM   32  F   UNL     1     -20.001 -14.175  -6.114  1.00  0.00    -0.192 F 
HETATM   33  F   UNL     1     -21.200 -13.685  -7.857  1.00  0.00    -0.192 F 
HETATM   34  F   UNL     1     -19.592 -11.624  -7.085  1.00  0.00    -0.195 F 
HETATM   35  F   UNL     1     -21.695 -11.157  -6.831  1.00  0.00    -0.195 F 
HETATM   36  F   UNL     1     -19.453 -12.426  -4.422  1.00  0.00    -0.225 F 
HETATM   37  F   UNL     1     -22.712 -11.115  -4.500  1.00  0.00    -0.228 F 
HETATM   38  F   UNL     1     -20.420 -12.307  -2.091  1.00  0.00    -0.228 F 
ENDROOT
TORSDOF 0
ENDMDL
MODEL 8
REMARK VINA RESULT:      -9.6      1.411      3.825
REMARK  0 active torsions:
REMARK  status: ('A' for Active; 'I' for Inactive)
ROOT
HETATM    1  C   UNL     1     -20.851 -10.485  -2.507  1.00  0.00     0.268 C 
HETATM    2  C   UNL     1     -19.509 -10.949  -3.165  1.00  0.00     0.268 C 
HETATM    3  C   UNL     1     -19.797 -11.688  -4.489  1.00  0.00     0.291 C 
HETATM    4  C   UNL     1     -20.754 -12.850  -4.283  1.00  0.00     0.356 C 
HETATM    5  C   UNL     1     -22.053 -12.382  -3.639  1.00  0.00     0.356 C 
HETATM    6  C   UNL     1     -21.774 -11.704  -2.306  1.00  0.00     0.291 C 
HETATM    7  C   UNL     1     -23.085 -11.329  -1.630  1.00  0.00     0.359 C 
HETATM    8  C   UNL     1     -22.832 -10.673  -0.284  1.00  0.00     0.381 C 
HETATM    9  C   UNL     1     -22.017  -9.418  -0.493  1.00  0.00     0.381 C 
HETATM   10  C   UNL     1     -20.691  -9.748  -1.170  1.00  0.00     0.356 C 
HETATM   11  F   UNL     1     -19.922 -10.502  -0.349  1.00  0.00    -0.195 F 
HETATM   12  F   UNL     1     -20.021  -8.585  -1.368  1.00  0.00    -0.195 F 
HETATM   13  F   UNL     1     -22.709  -8.534  -1.260  1.00  0.00    -0.192 F 
HETATM   14  F   UNL     1     -21.792  -8.793   0.694  1.00  0.00    -0.192 F 
HETATM   15  F   UNL     1     -24.008 -10.382   0.330  1.00  0.00    -0.192 F 
HETATM   16  F   UNL     1     -22.175 -11.530   0.540  1.00  0.00    -0.192 F 
HETATM   17  F   UNL     1     -23.793 -10.497  -2.430  1.00  0.00    -0.195 F 
HETATM   18  F   UNL     1     -23.853 -12.437  -1.455  1.00  0.00    -0.195 F 
HETATM   19  F   UNL     1     -21.121 -12.586  -1.494  1.00  0.00    -0.225 F 
HETATM   20  F   UNL     1     -22.691 -11.518  -4.469  1.00  0.00    -0.195 F 
HETATM   21  F   UNL     1     -22.887 -13.437  -3.476  1.00  0.00    -0.195 F 
HETATM   22  F   UNL     1     -21.025 -13.451  -5.468  1.00  0.00    -0.195 F 
HETATM   23  F   UNL     1     -20.171 -13.792  -3.502  1.00  0.00    -0.195 F 
HETATM   24  C   UNL     1     -18.508 -12.186  -5.130  1.00  0.00     0.359 C 
HETATM   25  C   UNL     1     -17.582 -11.024  -5.442  1.00  0.00     0.381 C 
HETATM   26  C   UNL     1     -17.239 -10.299  -4.162  1.00  0.00     0.381 C 
HETATM   27  C   UNL     1     -18.499  -9.823  -3.444  1.00  0.00     0.356 C 
HETATM   28  F   UNL     1     -19.115  -8.857  -4.166  1.00  0.00    -0.195 F 
HETATM   29  F   UNL     1     -18.120  -9.250  -2.274  1.00  0.00    -0.195 F 
HETATM   30  F   UNL     1     -16.422  -9.242  -4.421  1.00  0.00    -0.192 F 
HETATM   31  F   UNL     1     -16.536 -11.124  -3.339  1.00  0.00    -0.192 F 
HETATM   32  F   UNL     1     -18.178 -10.178  -6.321  1.00  0.00    -0.192 F 
HETATM   33  F   UNL     1     -16.452 -11.470  -6.054  1.00  0.00    -0.192 F 
HETATM   34  F   UNL     1     -18.781 -12.870  -6.269  1.00  0.00    -0.195 F 
HETATM   35  F   UNL     1     -17.892 -13.063  -4.299  1.00  0.00    -0.195 F 
HETATM   36  F   UNL     1     -20.385 -10.794  -5.336  1.00  0.00    -0.225 F 
HETATM   37  F   UNL     1     -18.919 -11.840  -2.320  1.00  0.00    -0.228 F 
HETATM   38  F   UNL     1     -21.473  -9.638  -3.372  1.00  0.00    -0.228 F 
ENDROOT
TORSDOF 0
ENDMDL
MODEL 9
REMARK VINA RESULT:      -9.5      1.442      6.045
REMARK  0 active torsions:
REMARK  status: ('A' for Active; 'I' for Inactive)
ROOT
HETATM    1  C   UNL     1     -19.220 -10.923  -3.287  1.00  0.00     0.268 C 
HETATM    2  C   UNL     1     -20.563 -10.412  -2.666  1.00  0.00     0.268 C 
HETATM    3  C   UNL     1     -21.532 -11.594  -2.456  1.00  0.00     0.291 C 
HETATM    4  C   UNL     1     -21.766 -12.361  -3.747  1.00  0.00     0.356 C 
HETATM    5  C   UNL     1     -20.449 -12.849  -4.339  1.00  0.00     0.356 C 
HETATM    6  C   UNL     1     -19.515 -11.677  -4.600  1.00  0.00     0.291 C 
HETATM    7  C   UNL     1     -18.244 -12.167  -5.280  1.00  0.00     0.359 C 
HETATM    8  C   UNL     1     -17.306 -11.010  -5.574  1.00  0.00     0.381 C 
HETATM    9  C   UNL     1     -16.932 -10.337  -4.273  1.00  0.00     0.381 C 
HETATM   10  C   UNL     1     -18.178  -9.829  -3.556  1.00  0.00     0.356 C 
HETATM   11  F   UNL     1     -18.762  -8.843  -4.277  1.00  0.00    -0.195 F 
HETATM   12  F   UNL     1     -17.788  -9.272  -2.382  1.00  0.00    -0.195 F 
HETATM   13  F   UNL     1     -16.271 -11.211  -3.469  1.00  0.00    -0.192 F 
HETATM   14  F   UNL     1     -16.072  -9.308  -4.500  1.00  0.00    -0.192 F 
HETATM   15  F   UNL     1     -16.196 -11.452  -6.219  1.00  0.00    -0.192 F 
HETATM   16  F   UNL     1     -17.903 -10.122  -6.409  1.00  0.00    -0.192 F 
HETATM   17  F   UNL     1     -17.628 -13.083  -4.495  1.00  0.00    -0.195 F 
HETATM   18  F   UNL     1     -18.553 -12.804  -6.441  1.00  0.00    -0.195 F 
HETATM   19  F   UNL     1     -20.133 -10.803  -5.446  1.00  0.00    -0.225 F 
HETATM   20  F   UNL     1     -19.860 -13.725  -3.488  1.00  0.00    -0.195 F 
HETATM   21  F   UNL     1     -20.690 -13.534  -5.482  1.00  0.00    -0.195 F 
HETATM   22  F   UNL     1     -22.583 -13.420  -3.523  1.00  0.00    -0.195 F 
HETATM   23  F   UNL     1     -22.404 -11.569  -4.643  1.00  0.00    -0.195 F 
HETATM   24  C   UNL     1     -22.864 -11.117  -1.890  1.00  0.00     0.359 C 
HETATM   25  C   UNL     1     -22.662 -10.441  -0.545  1.00  0.00     0.381 C 
HETATM   26  C   UNL     1     -21.751  -9.249  -0.715  1.00  0.00     0.381 C 
HETATM   27  C   UNL     1     -20.416  -9.658  -1.333  1.00  0.00     0.356 C 
HETATM   28  F   UNL     1     -19.718 -10.433  -0.470  1.00  0.00    -0.195 F 
HETATM   29  F   UNL     1     -19.684  -8.532  -1.524  1.00  0.00    -0.195 F 
HETATM   30  F   UNL     1     -21.543  -8.637   0.482  1.00  0.00    -0.192 F 
HETATM   31  F   UNL     1     -22.350  -8.321  -1.511  1.00  0.00    -0.192 F 
HETATM   32  F   UNL     1     -22.129 -11.321   0.342  1.00  0.00    -0.192 F 
HETATM   33  F   UNL     1     -23.857 -10.057  -0.024  1.00  0.00    -0.192 F 
HETATM   34  F   UNL     1     -23.719 -12.161  -1.752  1.00  0.00    -0.195 F 
HETATM   35  F   UNL     1     -23.450 -10.258  -2.759  1.00  0.00    -0.195 F 
HETATM   36  F   UNL     1     -20.956 -12.441  -1.553  1.00  0.00    -0.225 F 
HETATM   37  F   UNL     1     -21.139  -9.566  -3.564  1.00  0.00    -0.228 F 
HETATM   38  F   UNL     1     -18.667 -11.813  -2.418  1.00  0.00    -0.228 F 
ENDROOT
TORSDOF 0
ENDMDL
