MODEL 1
REMARK VINA RESULT:     -10.5      0.000      0.000
REMARK  1 active torsions:
REMARK  status: ('A' for Active; 'I' for Inactive)
REMARK    1  A    between atoms: C_9  and  C_12 
ROOT
HETATM    1  C   UNL     1     -21.364  -8.638  -1.568  1.00  0.00     0.001 A 
HETATM    2  C   UNL     1     -21.944  -7.419  -1.241  1.00  0.00     0.002 A 
HETATM    3  C   UNL     1     -21.921  -6.364  -2.162  1.00  0.00     0.030 A 
HETATM    4  C   UNL     1     -21.332  -6.497  -3.414  1.00  0.00     0.042 A 
HETATM    5  C   UNL     1     -20.744  -7.737  -3.735  1.00  0.00    -0.009 A 
HETATM    6  C   UNL     1     -20.761  -8.799  -2.813  1.00  0.00     0.013 A 
HETATM    7  C   UNL     1     -20.159  -7.879  -4.996  1.00  0.00     0.015 A 
HETATM    8  C   UNL     1     -20.193  -6.819  -5.894  1.00  0.00     0.027 A 
HETATM    9  C   UNL     1     -20.811  -5.634  -5.512  1.00  0.00     0.029 A 
HETATM   10  N   UNL     1     -21.356  -5.462  -4.280  1.00  0.00    -0.358 N 
ATOM     11  HN  UNL     1     -21.776  -4.570  -4.015  1.00  0.00     0.166 HD
ENDROOT
BRANCH   9  12
HETATM   12  C   UNL     1     -20.969  -4.525  -6.514  1.00  0.00     0.185 A 
HETATM   13  C   UNL     1     -22.277  -4.539  -7.278  1.00  0.00     0.177 A 
HETATM   14  O   UNL     1     -23.407  -4.493  -6.824  1.00  0.00    -0.291 OA
HETATM   15  C   UNL     1     -21.973  -4.505  -8.710  1.00  0.00     0.025 A 
HETATM   16  C   UNL     1     -22.843  -4.378  -9.780  1.00  0.00     0.016 A 
HETATM   17  C   UNL     1     -20.598  -4.553  -8.900  1.00  0.00     0.025 A 
HETATM   18  C   UNL     1     -22.288  -4.316 -11.063  1.00  0.00     0.001 A 
HETATM   19  C   UNL     1     -20.894  -4.388 -11.253  1.00  0.00     0.001 A 
HETATM   20  C   UNL     1     -20.031  -4.507 -10.161  1.00  0.00     0.016 A 
HETATM   21  C   UNL     1     -19.920  -4.580  -7.606  1.00  0.00     0.177 A 
HETATM   22  O   UNL     1     -18.708  -4.564  -7.483  1.00  0.00    -0.291 OA
ENDBRANCH   9  12
TORSDOF 1
ENDMDL
MODEL 2
REMARK VINA RESULT:      -9.9      1.864      7.227
REMARK  1 active torsions:
REMARK  status: ('A' for Active; 'I' for Inactive)
REMARK    1  A    between atoms: C_9  and  C_12 
ROOT
HETATM    1  C   UNL     1     -23.601  -2.980 -13.350  1.00  0.00     0.001 A 
HETATM    2  C   UNL     1     -24.617  -3.012 -12.403  1.00  0.00     0.002 A 
HETATM    3  C   UNL     1     -24.320  -3.310 -11.068  1.00  0.00     0.030 A 
HETATM    4  C   UNL     1     -23.023  -3.576 -10.648  1.00  0.00     0.042 A 
HETATM    5  C   UNL     1     -21.998  -3.544 -11.617  1.00  0.00    -0.009 A 
HETATM    6  C   UNL     1     -22.292  -3.248 -12.960  1.00  0.00     0.013 A 
HETATM    7  C   UNL     1     -20.690  -3.802 -11.198  1.00  0.00     0.015 A 
HETATM    8  C   UNL     1     -20.435  -4.055  -9.856  1.00  0.00     0.027 A 
HETATM    9  C   UNL     1     -21.494  -4.048  -8.956  1.00  0.00     0.029 A 
HETATM   10  N   UNL     1     -22.778  -3.833  -9.346  1.00  0.00    -0.358 N 
ATOM     11  HN  UNL     1     -23.541  -3.865  -8.668  1.00  0.00     0.166 HD
ENDROOT
BRANCH   9  12
HETATM   12  C   UNL     1     -21.219  -4.192  -7.486  1.00  0.00     0.185 A 
HETATM   13  C   UNL     1     -20.026  -5.061  -7.144  1.00  0.00     0.177 A 
HETATM   14  O   UNL     1     -18.870  -4.916  -7.499  1.00  0.00    -0.291 OA
HETATM   15  C   UNL     1     -20.464  -6.088  -6.194  1.00  0.00     0.025 A 
HETATM   16  C   UNL     1     -19.701  -7.019  -5.510  1.00  0.00     0.016 A 
HETATM   17  C   UNL     1     -21.832  -5.980  -5.982  1.00  0.00     0.025 A 
HETATM   18  C   UNL     1     -20.360  -7.861  -4.608  1.00  0.00     0.001 A 
HETATM   19  C   UNL     1     -21.752  -7.764  -4.414  1.00  0.00     0.001 A 
HETATM   20  C   UNL     1     -22.505  -6.811  -5.105  1.00  0.00     0.016 A 
HETATM   21  C   UNL     1     -22.364  -4.854  -6.747  1.00  0.00     0.177 A 
HETATM   22  O   UNL     1     -23.529  -4.500  -6.696  1.00  0.00    -0.291 OA
ENDBRANCH   9  12
TORSDOF 1
ENDMDL
MODEL 3
REMARK VINA RESULT:      -9.7      2.000      3.787
REMARK  1 active torsions:
REMARK  status: ('A' for Active; 'I' for Inactive)
REMARK    1  A    between atoms: C_9  and  C_12 
ROOT
HETATM    1  C   UNL     1     -21.175  -9.328   1.109  1.00  0.00     0.001 A 
HETATM    2  C   UNL     1     -20.980 -10.395   0.241  1.00  0.00     0.002 A 
HETATM    3  C   UNL     1     -21.119 -10.208  -1.139  1.00  0.00     0.030 A 
HETATM    4  C   UNL     1     -21.447  -8.972  -1.682  1.00  0.00     0.042 A 
HETATM    5  C   UNL     1     -21.645  -7.895  -0.793  1.00  0.00    -0.009 A 
HETATM    6  C   UNL     1     -21.510  -8.078   0.595  1.00  0.00     0.013 A 
HETATM    7  C   UNL     1     -21.965  -6.647  -1.334  1.00  0.00     0.015 A 
HETATM    8  C   UNL     1     -22.055  -6.498  -2.713  1.00  0.00     0.027 A 
HETATM    9  C   UNL     1     -21.823  -7.601  -3.526  1.00  0.00     0.029 A 
HETATM   10  N   UNL     1     -21.544  -8.831  -3.021  1.00  0.00    -0.358 N 
ATOM     11  HN  UNL     1     -21.410  -9.631  -3.640  1.00  0.00     0.166 HD
ENDROOT
BRANCH   9  12
HETATM   12  C   UNL     1     -21.790  -7.428  -5.018  1.00  0.00     0.185 A 
HETATM   13  C   UNL     1     -20.407  -7.234  -5.606  1.00  0.00     0.177 A 
HETATM   14  O   UNL     1     -19.448  -7.980  -5.520  1.00  0.00    -0.291 OA
HETATM   15  C   UNL     1     -20.421  -6.015  -6.419  1.00  0.00     0.025 A 
HETATM   16  C   UNL     1     -19.429  -5.510  -7.243  1.00  0.00     0.016 A 
HETATM   17  C   UNL     1     -21.661  -5.399  -6.321  1.00  0.00     0.025 A 
HETATM   18  C   UNL     1     -19.715  -4.344  -7.963  1.00  0.00     0.001 A 
HETATM   19  C   UNL     1     -20.967  -3.709  -7.842  1.00  0.00     0.001 A 
HETATM   20  C   UNL     1     -21.959  -4.239  -7.013  1.00  0.00     0.016 A 
HETATM   21  C   UNL     1     -22.545  -6.196  -5.473  1.00  0.00     0.177 A 
HETATM   22  O   UNL     1     -23.712  -5.912  -5.267  1.00  0.00    -0.291 OA
ENDBRANCH   9  12
TORSDOF 1
ENDMDL
MODEL 4
REMARK VINA RESULT:      -9.6      1.104      2.109
REMARK  1 active torsions:
REMARK  status: ('A' for Active; 'I' for Inactive)
REMARK    1  A    between atoms: C_9  and  C_12 
ROOT
HETATM    1  C   UNL     1     -19.182 -10.210  -3.388  1.00  0.00     0.001 A 
HETATM    2  C   UNL     1     -18.629 -10.138  -4.662  1.00  0.00     0.002 A 
HETATM    3  C   UNL     1     -18.940  -9.059  -5.498  1.00  0.00     0.030 A 
HETATM    4  C   UNL     1     -19.793  -8.040  -5.093  1.00  0.00     0.042 A 
HETATM    5  C   UNL     1     -20.350  -8.123  -3.801  1.00  0.00    -0.009 A 
HETATM    6  C   UNL     1     -20.044  -9.206  -2.957  1.00  0.00     0.013 A 
HETATM    7  C   UNL     1     -21.200  -7.095  -3.385  1.00  0.00     0.015 A 
HETATM    8  C   UNL     1     -21.451  -6.024  -4.234  1.00  0.00     0.027 A 
HETATM    9  C   UNL     1     -20.846  -6.001  -5.485  1.00  0.00     0.029 A 
HETATM   10  N   UNL     1     -20.043  -7.005  -5.924  1.00  0.00    -0.358 N 
ATOM     11  HN  UNL     1     -19.638  -6.978  -6.860  1.00  0.00     0.166 HD
ENDROOT
BRANCH   9  12
HETATM   12  C   UNL     1     -21.004  -4.791  -6.362  1.00  0.00     0.185 A 
HETATM   13  C   UNL     1     -22.321  -4.712  -7.107  1.00  0.00     0.177 A 
HETATM   14  O   UNL     1     -23.445  -4.703  -6.637  1.00  0.00    -0.291 OA
HETATM   15  C   UNL     1     -22.032  -4.529  -8.532  1.00  0.00     0.025 A 
HETATM   16  C   UNL     1     -22.913  -4.282  -9.571  1.00  0.00     0.016 A 
HETATM   17  C   UNL     1     -20.660  -4.570  -8.743  1.00  0.00     0.025 A 
HETATM   18  C   UNL     1     -22.372  -4.090 -10.848  1.00  0.00     0.001 A 
HETATM   19  C   UNL     1     -20.981  -4.156 -11.061  1.00  0.00     0.001 A 
HETATM   20  C   UNL     1     -20.107  -4.397  -9.998  1.00  0.00     0.016 A 
HETATM   21  C   UNL     1     -19.968  -4.741  -7.467  1.00  0.00     0.177 A 
HETATM   22  O   UNL     1     -18.755  -4.750  -7.358  1.00  0.00    -0.291 OA
ENDBRANCH   9  12
TORSDOF 1
ENDMDL
MODEL 5
REMARK VINA RESULT:      -8.7      1.707      6.891
REMARK  1 active torsions:
REMARK  status: ('A' for Active; 'I' for Inactive)
REMARK    1  A    between atoms: C_9  and  C_12 
ROOT
HETATM    1  C   UNL     1     -22.403  -3.436 -11.496  1.00  0.00     0.001 A 
HETATM    2  C   UNL     1     -21.081  -3.858 -11.577  1.00  0.00     0.002 A 
HETATM    3  C   UNL     1     -20.458  -4.427 -10.460  1.00  0.00     0.030 A 
HETATM    4  C   UNL     1     -21.127  -4.591  -9.253  1.00  0.00     0.042 A 
HETATM    5  C   UNL     1     -22.467  -4.158  -9.180  1.00  0.00    -0.009 A 
HETATM    6  C   UNL     1     -23.097  -3.583 -10.298  1.00  0.00     0.013 A 
HETATM    7  C   UNL     1     -23.147  -4.330  -7.971  1.00  0.00     0.015 A 
HETATM    8  C   UNL     1     -22.503  -4.935  -6.898  1.00  0.00     0.027 A 
HETATM    9  C   UNL     1     -21.187  -5.356  -7.054  1.00  0.00     0.029 A 
HETATM   10  N   UNL     1     -20.496  -5.169  -8.209  1.00  0.00    -0.358 N 
ATOM     11  HN  UNL     1     -19.521  -5.459  -8.285  1.00  0.00     0.166 HD
ENDROOT
BRANCH   9  12
HETATM   12  C   UNL     1     -20.520  -6.125  -5.950  1.00  0.00     0.185 A 
HETATM   13  C   UNL     1     -21.151  -7.465  -5.636  1.00  0.00     0.177 A 
HETATM   14  O   UNL     1     -21.321  -8.406  -6.391  1.00  0.00    -0.291 OA
HETATM   15  C   UNL     1     -21.443  -7.510  -4.201  1.00  0.00     0.025 A 
HETATM   16  C   UNL     1     -21.903  -8.573  -3.442  1.00  0.00     0.016 A 
HETATM   17  C   UNL     1     -21.125  -6.291  -3.617  1.00  0.00     0.025 A 
HETATM   18  C   UNL     1     -22.050  -8.370  -2.064  1.00  0.00     0.001 A 
HETATM   19  C   UNL     1     -21.748  -7.124  -1.481  1.00  0.00     0.001 A 
HETATM   20  C   UNL     1     -21.277  -6.066  -2.261  1.00  0.00     0.016 A 
HETATM   21  C   UNL     1     -20.568  -5.390  -4.625  1.00  0.00     0.177 A 
HETATM   22  O   UNL     1     -20.150  -4.275  -4.370  1.00  0.00    -0.291 OA
ENDBRANCH   9  12
TORSDOF 1
ENDMDL
MODEL 6
REMARK VINA RESULT:      -8.7      2.012      6.943
REMARK  1 active torsions:
REMARK  status: ('A' for Active; 'I' for Inactive)
REMARK    1  A    between atoms: C_9  and  C_12 
ROOT
HETATM    1  C   UNL     1     -23.076  -3.249 -12.352  1.00  0.00     0.001 A 
HETATM    2  C   UNL     1     -21.694  -3.347 -12.247  1.00  0.00     0.002 A 
HETATM    3  C   UNL     1     -21.107  -3.659 -11.015  1.00  0.00     0.030 A 
HETATM    4  C   UNL     1     -21.870  -3.882  -9.875  1.00  0.00     0.042 A 
HETATM    5  C   UNL     1     -23.271  -3.778  -9.991  1.00  0.00    -0.009 A 
HETATM    6  C   UNL     1     -23.867  -3.462 -11.226  1.00  0.00     0.013 A 
HETATM    7  C   UNL     1     -24.043  -4.011  -8.850  1.00  0.00     0.015 A 
HETATM    8  C   UNL     1     -23.421  -4.356  -7.657  1.00  0.00     0.027 A 
HETATM    9  C   UNL     1     -22.035  -4.461  -7.626  1.00  0.00     0.029 A 
HETATM   10  N   UNL     1     -21.262  -4.207  -8.714  1.00  0.00    -0.358 N 
ATOM     11  HN  UNL     1     -20.245  -4.260  -8.655  1.00  0.00     0.166 HD
ENDROOT
BRANCH   9  12
HETATM   12  C   UNL     1     -21.357  -4.958  -6.381  1.00  0.00     0.185 A 
HETATM   13  C   UNL     1     -20.039  -5.667  -6.613  1.00  0.00     0.177 A 
HETATM   14  O   UNL     1     -19.042  -5.230  -7.162  1.00  0.00    -0.291 OA
HETATM   15  C   UNL     1     -20.100  -6.976  -5.957  1.00  0.00     0.025 A 
HETATM   16  C   UNL     1     -19.094  -7.913  -5.795  1.00  0.00     0.016 A 
HETATM   17  C   UNL     1     -21.363  -7.170  -5.413  1.00  0.00     0.025 A 
HETATM   18  C   UNL     1     -19.399  -9.074  -5.075  1.00  0.00     0.001 A 
HETATM   19  C   UNL     1     -20.688  -9.277  -4.544  1.00  0.00     0.001 A 
HETATM   20  C   UNL     1     -21.688  -8.316  -4.709  1.00  0.00     0.016 A 
HETATM   21  C   UNL     1     -22.189  -5.987  -5.643  1.00  0.00     0.177 A 
HETATM   22  O   UNL     1     -23.324  -5.868  -5.216  1.00  0.00    -0.291 OA
ENDBRANCH   9  12
TORSDOF 1
ENDMDL
MODEL 7
REMARK VINA RESULT:      -8.7      2.196      7.303
REMARK  1 active torsions:
REMARK  status: ('A' for Active; 'I' for Inactive)
REMARK    1  A    between atoms: C_9  and  C_12 
ROOT
HETATM    1  C   UNL     1     -21.266  -4.075  -8.893  1.00  0.00     0.001 A 
HETATM    2  C   UNL     1     -19.981  -3.952  -8.378  1.00  0.00     0.002 A 
HETATM    3  C   UNL     1     -19.688  -4.450  -7.103  1.00  0.00     0.030 A 
HETATM    4  C   UNL     1     -20.651  -5.076  -6.321  1.00  0.00     0.042 A 
HETATM    5  C   UNL     1     -21.952  -5.193  -6.851  1.00  0.00    -0.009 A 
HETATM    6  C   UNL     1     -22.254  -4.692  -8.130  1.00  0.00     0.013 A 
HETATM    7  C   UNL     1     -22.922  -5.830  -6.073  1.00  0.00     0.015 A 
HETATM    8  C   UNL     1     -22.579  -6.344  -4.828  1.00  0.00     0.027 A 
HETATM    9  C   UNL     1     -21.268  -6.209  -4.383  1.00  0.00     0.029 A 
HETATM   10  N   UNL     1     -20.317  -5.564  -5.108  1.00  0.00    -0.358 N 
ATOM     11  HN  UNL     1     -19.371  -5.452  -4.743  1.00  0.00     0.166 HD
ENDROOT
BRANCH   9  12
HETATM   12  C   UNL     1     -20.850  -6.870  -3.100  1.00  0.00     0.185 A 
HETATM   13  C   UNL     1     -20.918  -8.383  -3.112  1.00  0.00     0.177 A 
HETATM   14  O   UNL     1     -20.348  -9.151  -3.867  1.00  0.00    -0.291 OA
HETATM   15  C   UNL     1     -21.718  -8.815  -1.963  1.00  0.00     0.025 A 
HETATM   16  C   UNL     1     -21.946 -10.099  -1.498  1.00  0.00     0.016 A 
HETATM   17  C   UNL     1     -22.216  -7.706  -1.292  1.00  0.00     0.025 A 
HETATM   18  C   UNL     1     -22.711 -10.241  -0.334  1.00  0.00     0.001 A 
HETATM   19  C   UNL     1     -23.233  -9.114   0.330  1.00  0.00     0.001 A 
HETATM   20  C   UNL     1     -22.985  -7.825  -0.149  1.00  0.00     0.016 A 
HETATM   21  C   UNL     1     -21.739  -6.483  -1.936  1.00  0.00     0.177 A 
HETATM   22  O   UNL     1     -21.979  -5.365  -1.514  1.00  0.00    -0.291 OA
ENDBRANCH   9  12
TORSDOF 1
ENDMDL
MODEL 8
REMARK VINA RESULT:      -8.5      3.353      7.054
REMARK  1 active torsions:
REMARK  status: ('A' for Active; 'I' for Inactive)
REMARK    1  A    between atoms: C_9  and  C_12 
ROOT
HETATM    1  C   UNL     1     -21.462  -4.051  -7.749  1.00  0.00     0.001 A 
HETATM    2  C   UNL     1     -20.185  -4.482  -8.089  1.00  0.00     0.002 A 
HETATM    3  C   UNL     1     -19.624  -5.587  -7.437  1.00  0.00     0.030 A 
HETATM    4  C   UNL     1     -20.310  -6.281  -6.448  1.00  0.00     0.042 A 
HETATM    5  C   UNL     1     -21.603  -5.834  -6.108  1.00  0.00    -0.009 A 
HETATM    6  C   UNL     1     -22.171  -4.723  -6.757  1.00  0.00     0.013 A 
HETATM    7  C   UNL     1     -22.301  -6.534  -5.121  1.00  0.00     0.015 A 
HETATM    8  C   UNL     1     -21.721  -7.648  -4.526  1.00  0.00     0.027 A 
HETATM    9  C   UNL     1     -20.451  -8.042  -4.931  1.00  0.00     0.029 A 
HETATM   10  N   UNL     1     -19.740  -7.356  -5.864  1.00  0.00    -0.358 N 
ATOM     11  HN  UNL     1     -18.796  -7.649  -6.119  1.00  0.00     0.166 HD
ENDROOT
BRANCH   9  12
HETATM   12  C   UNL     1     -19.863  -9.315  -4.393  1.00  0.00     0.185 A 
HETATM   13  C   UNL     1     -19.061  -9.157  -3.118  1.00  0.00     0.177 A 
HETATM   14  O   UNL     1     -19.435  -8.703  -2.051  1.00  0.00    -0.291 OA
HETATM   15  C   UNL     1     -17.740  -9.756  -3.329  1.00  0.00     0.025 A 
HETATM   16  C   UNL     1     -16.722  -9.958  -2.413  1.00  0.00     0.016 A 
HETATM   17  C   UNL     1     -17.628 -10.195  -4.642  1.00  0.00     0.025 A 
HETATM   18  C   UNL     1     -15.566 -10.609  -2.861  1.00  0.00     0.001 A 
HETATM   19  C   UNL     1     -15.448 -11.032  -4.199  1.00  0.00     0.001 A 
HETATM   20  C   UNL     1     -16.489 -10.827  -5.108  1.00  0.00     0.016 A 
HETATM   21  C   UNL     1     -18.879  -9.948  -5.356  1.00  0.00     0.177 A 
HETATM   22  O   UNL     1     -19.072 -10.291  -6.508  1.00  0.00    -0.291 OA
ENDBRANCH   9  12
TORSDOF 1
ENDMDL
MODEL 9
REMARK VINA RESULT:      -8.5      2.422      7.317
REMARK  1 active torsions:
REMARK  status: ('A' for Active; 'I' for Inactive)
REMARK    1  A    between atoms: C_9  and  C_12 
ROOT
HETATM    1  C   UNL     1     -20.270  -4.089  -8.150  1.00  0.00     0.001 A 
HETATM    2  C   UNL     1     -21.565  -3.744  -7.783  1.00  0.00     0.002 A 
HETATM    3  C   UNL     1     -22.228  -4.474  -6.790  1.00  0.00     0.030 A 
HETATM    4  C   UNL     1     -21.627  -5.547  -6.144  1.00  0.00     0.042 A 
HETATM    5  C   UNL     1     -20.313  -5.891  -6.525  1.00  0.00    -0.009 A 
HETATM    6  C   UNL     1     -19.643  -5.163  -7.525  1.00  0.00     0.013 A 
HETATM    7  C   UNL     1     -19.700  -6.963  -5.872  1.00  0.00     0.015 A 
HETATM    8  C   UNL     1     -20.381  -7.636  -4.865  1.00  0.00     0.027 A 
HETATM    9  C   UNL     1     -21.666  -7.224  -4.529  1.00  0.00     0.029 A 
HETATM   10  N   UNL     1     -22.294  -6.206  -5.174  1.00  0.00    -0.358 N 
ATOM     11  HN  UNL     1     -23.250  -5.946  -4.929  1.00  0.00     0.166 HD
ENDROOT
BRANCH   9  12
HETATM   12  C   UNL     1     -22.364  -7.856  -3.359  1.00  0.00     0.185 A 
HETATM   13  C   UNL     1     -22.236  -7.096  -2.055  1.00  0.00     0.177 A 
HETATM   14  O   UNL     1     -22.568  -5.947  -1.824  1.00  0.00    -0.291 OA
HETATM   15  C   UNL     1     -21.731  -8.018  -1.034  1.00  0.00     0.025 A 
HETATM   16  C   UNL     1     -21.576  -7.807   0.325  1.00  0.00     0.016 A 
HETATM   17  C   UNL     1     -21.461  -9.253  -1.609  1.00  0.00     0.025 A 
HETATM   18  C   UNL     1     -21.121  -8.880   1.100  1.00  0.00     0.001 A 
HETATM   19  C   UNL     1     -20.825 -10.125   0.509  1.00  0.00     0.001 A 
HETATM   20  C   UNL     1     -20.997 -10.322  -0.863  1.00  0.00     0.016 A 
HETATM   21  C   UNL     1     -21.810  -9.226  -3.028  1.00  0.00     0.177 A 
HETATM   22  O   UNL     1     -21.727 -10.199  -3.757  1.00  0.00    -0.291 OA
ENDBRANCH   9  12
TORSDOF 1
ENDMDL
