MODEL 1
REMARK VINA RESULT:     -10.0      0.000      0.000
REMARK  12 active torsions:
REMARK  status: ('A' for Active; 'I' for Inactive)
REMARK    1  A    between atoms: C_3  and  C_10 
REMARK    2  A    between atoms: C_11  and  C_12 
REMARK    3  A    between atoms: C_13  and  C_14 
REMARK    4  A    between atoms: C_15  and  C_16 
REMARK    5  A    between atoms: C_17  and  C_18 
REMARK    6  A    between atoms: C_18  and  O_19 
REMARK    7  A    between atoms: O_19  and  C_20 
REMARK    8  A    between atoms: C_20  and  C_22 
REMARK    9  A    between atoms: C_23  and  C_25 
REMARK   10  A    between atoms: C_26  and  C_27 
REMARK   11  A    between atoms: C_28  and  C_30 
REMARK   12  A    between atoms: C_31  and  C_32 
ROOT
HETATM    1  O   UNL     1     -21.238  -8.346   0.841  1.00  0.00    -0.314 OA
ENDROOT
BRANCH   1   2
HETATM    2  C   UNL     1     -20.858  -9.706   0.501  1.00  0.00     0.207 C 
BRANCH   2   3
HETATM    3  C   UNL     1     -21.921 -10.761   0.608  1.00  0.00     0.006 C 
HETATM    4  C   UNL     1     -22.784 -11.338  -0.252  1.00  0.00    -0.064 C 
HETATM    5  C   UNL     1     -23.720 -12.399   0.310  1.00  0.00     0.048 C 
BRANCH   4   6
HETATM    6  C   UNL     1     -22.951 -11.097  -1.678  1.00  0.00     0.006 C 
HETATM    7  C   UNL     1     -22.398 -11.804  -2.676  1.00  0.00     0.001 C 
BRANCH   7   8
HETATM    8  C   UNL     1     -22.447 -11.406  -4.076  1.00  0.00     0.007 C 
HETATM    9  C   UNL     1     -21.412 -11.480  -4.940  1.00  0.00    -0.062 C 
HETATM   10  C   UNL     1     -21.574 -11.171  -6.404  1.00  0.00     0.048 C 
BRANCH   9  11
HETATM   11  C   UNL     1     -20.061 -11.858  -4.550  1.00  0.00     0.007 C 
HETATM   12  C   UNL     1     -18.964 -11.210  -4.989  1.00  0.00     0.009 C 
BRANCH  12  13
HETATM   13  C   UNL     1     -17.653 -11.423  -4.388  1.00  0.00    -0.048 C 
HETATM   14  C   UNL     1     -17.444 -11.563  -3.060  1.00  0.00    -0.077 C 
HETATM   15  C   UNL     1     -18.537 -11.746  -2.036  1.00  0.00     0.044 C 
HETATM   16  C   UNL     1     -16.053 -11.562  -2.449  1.00  0.00     0.034 C 
HETATM   17  C   UNL     1     -14.906 -11.323  -3.425  1.00  0.00     0.005 C 
HETATM   18  C   UNL     1     -15.209 -11.980  -4.758  1.00  0.00     0.014 C 
HETATM   19  C   UNL     1     -16.487 -11.391  -5.395  1.00  0.00    -0.020 C 
HETATM   20  C   UNL     1     -16.771 -12.253  -6.649  1.00  0.00     0.020 C 
HETATM   21  C   UNL     1     -16.247  -9.925  -5.808  1.00  0.00     0.020 C 
ENDBRANCH  12  13
ENDBRANCH   9  11
ENDBRANCH   7   8
ENDBRANCH   4   6
ENDBRANCH   2   3
ENDBRANCH   1   2
BRANCH   1  22
HETATM   22  C   UNL     1     -22.332  -7.926   0.163  1.00  0.00     0.283 C 
HETATM   23  O   UNL     1     -23.446  -7.799   0.661  1.00  0.00    -0.260 OA
BRANCH  22  24
HETATM   24  C   UNL     1     -22.140  -7.409  -1.216  1.00  0.00     0.089 C 
HETATM   25  C   UNL     1     -21.377  -7.568  -2.321  1.00  0.00    -0.056 C 
HETATM   26  C   UNL     1     -20.312  -8.573  -2.633  1.00  0.00     0.048 C 
BRANCH  25  27
HETATM   27  C   UNL     1     -21.520  -6.597  -3.405  1.00  0.00     0.007 C 
HETATM   28  C   UNL     1     -21.173  -6.900  -4.664  1.00  0.00     0.001 C 
BRANCH  28  29
HETATM   29  C   UNL     1     -21.549  -6.099  -5.806  1.00  0.00     0.007 C 
HETATM   30  C   UNL     1     -20.872  -5.042  -6.290  1.00  0.00    -0.062 C 
HETATM   31  C   UNL     1     -19.680  -4.390  -5.631  1.00  0.00     0.048 C 
BRANCH  30  32
HETATM   32  C   UNL     1     -21.337  -4.464  -7.553  1.00  0.00     0.007 C 
HETATM   33  C   UNL     1     -21.853  -5.126  -8.600  1.00  0.00     0.009 C 
BRANCH  33  34
HETATM   34  C   UNL     1     -22.210  -4.444  -9.843  1.00  0.00    -0.048 C 
HETATM   35  C   UNL     1     -21.238  -4.048 -10.728  1.00  0.00    -0.077 C 
HETATM   36  C   UNL     1     -21.553  -3.254 -11.956  1.00  0.00     0.034 C 
HETATM   37  C   UNL     1     -19.768  -4.352 -10.579  1.00  0.00     0.044 C 
HETATM   38  C   UNL     1     -22.964  -2.684 -12.003  1.00  0.00     0.005 C 
HETATM   39  C   UNL     1     -23.973  -3.727 -11.548  1.00  0.00     0.014 C 
HETATM   40  C   UNL     1     -23.713  -4.205 -10.093  1.00  0.00    -0.020 C 
HETATM   41  C   UNL     1     -24.555  -5.490  -9.894  1.00  0.00     0.020 C 
HETATM   42  C   UNL     1     -24.244  -3.134  -9.111  1.00  0.00     0.020 C 
ENDBRANCH  33  34
ENDBRANCH  30  32
ENDBRANCH  28  29
ENDBRANCH  25  27
ENDBRANCH  22  24
ENDBRANCH   1  22
TORSDOF 12
ENDMDL
MODEL 2
REMARK VINA RESULT:      -9.9      1.592      2.988
REMARK  12 active torsions:
REMARK  status: ('A' for Active; 'I' for Inactive)
REMARK    1  A    between atoms: C_3  and  C_10 
REMARK    2  A    between atoms: C_11  and  C_12 
REMARK    3  A    between atoms: C_13  and  C_14 
REMARK    4  A    between atoms: C_15  and  C_16 
REMARK    5  A    between atoms: C_17  and  C_18 
REMARK    6  A    between atoms: C_18  and  O_19 
REMARK    7  A    between atoms: O_19  and  C_20 
REMARK    8  A    between atoms: C_20  and  C_22 
REMARK    9  A    between atoms: C_23  and  C_25 
REMARK   10  A    between atoms: C_26  and  C_27 
REMARK   11  A    between atoms: C_28  and  C_30 
REMARK   12  A    between atoms: C_31  and  C_32 
ROOT
HETATM    1  O   UNL     1     -21.286  -7.796   0.517  1.00  0.00    -0.314 OA
ENDROOT
BRANCH   1   2
HETATM    2  C   UNL     1     -21.245  -9.182   0.951  1.00  0.00     0.207 C 
BRANCH   2   3
HETATM    3  C   UNL     1     -21.688 -10.223  -0.036  1.00  0.00     0.006 C 
HETATM    4  C   UNL     1     -21.257 -11.450  -0.389  1.00  0.00    -0.064 C 
HETATM    5  C   UNL     1     -22.033 -12.174  -1.481  1.00  0.00     0.048 C 
BRANCH   4   6
HETATM    6  C   UNL     1     -20.133 -12.210   0.141  1.00  0.00     0.006 C 
HETATM    7  C   UNL     1     -18.839 -11.859   0.089  1.00  0.00     0.001 C 
BRANCH   7   8
HETATM    8  C   UNL     1     -17.743 -12.740   0.466  1.00  0.00     0.007 C 
HETATM    9  C   UNL     1     -16.672 -13.022  -0.307  1.00  0.00    -0.062 C 
HETATM   10  C   UNL     1     -15.517 -13.841   0.202  1.00  0.00     0.048 C 
BRANCH   9  11
HETATM   11  C   UNL     1     -16.531 -12.572  -1.685  1.00  0.00     0.007 C 
HETATM   12  C   UNL     1     -15.452 -11.899  -2.129  1.00  0.00     0.009 C 
BRANCH  12  13
HETATM   13  C   UNL     1     -15.204 -11.694  -3.550  1.00  0.00    -0.048 C 
HETATM   14  C   UNL     1     -15.747 -10.691  -4.275  1.00  0.00    -0.077 C 
HETATM   15  C   UNL     1     -16.496  -9.519  -3.688  1.00  0.00     0.044 C 
HETATM   16  C   UNL     1     -15.647 -10.632  -5.790  1.00  0.00     0.034 C 
HETATM   17  C   UNL     1     -14.951 -11.817  -6.449  1.00  0.00     0.005 C 
HETATM   18  C   UNL     1     -13.811 -12.306  -5.576  1.00  0.00     0.014 C 
HETATM   19  C   UNL     1     -14.323 -12.779  -4.198  1.00  0.00    -0.020 C 
HETATM   20  C   UNL     1     -13.059 -13.088  -3.360  1.00  0.00     0.020 C 
HETATM   21  C   UNL     1     -15.173 -14.057  -4.359  1.00  0.00     0.020 C 
ENDBRANCH  12  13
ENDBRANCH   9  11
ENDBRANCH   7   8
ENDBRANCH   4   6
ENDBRANCH   2   3
ENDBRANCH   1   2
BRANCH   1  22
HETATM   22  C   UNL     1     -22.336  -7.538  -0.299  1.00  0.00     0.283 C 
HETATM   23  O   UNL     1     -23.493  -7.409   0.087  1.00  0.00    -0.260 OA
BRANCH  22  24
HETATM   24  C   UNL     1     -22.050  -7.204  -1.718  1.00  0.00     0.089 C 
HETATM   25  C   UNL     1     -21.178  -7.456  -2.720  1.00  0.00    -0.056 C 
HETATM   26  C   UNL     1     -20.025  -8.409  -2.793  1.00  0.00     0.048 C 
BRANCH  25  27
HETATM   27  C   UNL     1     -21.282  -6.659  -3.941  1.00  0.00     0.007 C 
HETATM   28  C   UNL     1     -20.979  -7.177  -5.141  1.00  0.00     0.001 C 
BRANCH  28  29
HETATM   29  C   UNL     1     -21.326  -6.542  -6.391  1.00  0.00     0.007 C 
HETATM   30  C   UNL     1     -20.693  -5.495  -6.952  1.00  0.00    -0.062 C 
HETATM   31  C   UNL     1     -19.602  -4.681  -6.299  1.00  0.00     0.048 C 
BRANCH  30  32
HETATM   32  C   UNL     1     -21.104  -5.102  -8.301  1.00  0.00     0.007 C 
HETATM   33  C   UNL     1     -22.022  -4.179  -8.627  1.00  0.00     0.009 C 
BRANCH  33  34
HETATM   34  C   UNL     1     -22.405  -3.929 -10.016  1.00  0.00    -0.048 C 
HETATM   35  C   UNL     1     -21.477  -3.498 -10.930  1.00  0.00    -0.077 C 
HETATM   36  C   UNL     1     -21.849  -3.129 -12.331  1.00  0.00     0.034 C 
HETATM   37  C   UNL     1     -20.003  -3.344 -10.648  1.00  0.00     0.044 C 
HETATM   38  C   UNL     1     -23.345  -2.996 -12.580  1.00  0.00     0.005 C 
HETATM   39  C   UNL     1     -24.097  -4.141 -11.919  1.00  0.00     0.014 C 
HETATM   40  C   UNL     1     -23.883  -4.178 -10.381  1.00  0.00    -0.020 C 
HETATM   41  C   UNL     1     -24.385  -5.561  -9.898  1.00  0.00     0.020 C 
HETATM   42  C   UNL     1     -24.773  -3.095  -9.724  1.00  0.00     0.020 C 
ENDBRANCH  33  34
ENDBRANCH  30  32
ENDBRANCH  28  29
ENDBRANCH  25  27
ENDBRANCH  22  24
ENDBRANCH   1  22
TORSDOF 12
ENDMDL
MODEL 3
REMARK VINA RESULT:      -9.8      1.112      2.744
REMARK  12 active torsions:
REMARK  status: ('A' for Active; 'I' for Inactive)
REMARK    1  A    between atoms: C_3  and  C_10 
REMARK    2  A    between atoms: C_11  and  C_12 
REMARK    3  A    between atoms: C_13  and  C_14 
REMARK    4  A    between atoms: C_15  and  C_16 
REMARK    5  A    between atoms: C_17  and  C_18 
REMARK    6  A    between atoms: C_18  and  O_19 
REMARK    7  A    between atoms: O_19  and  C_20 
REMARK    8  A    between atoms: C_20  and  C_22 
REMARK    9  A    between atoms: C_23  and  C_25 
REMARK   10  A    between atoms: C_26  and  C_27 
REMARK   11  A    between atoms: C_28  and  C_30 
REMARK   12  A    between atoms: C_31  and  C_32 
ROOT
HETATM    1  O   UNL     1     -23.452  -8.969   0.361  1.00  0.00    -0.314 OA
ENDROOT
BRANCH   1   2
HETATM    2  C   UNL     1     -23.496 -10.189  -0.427  1.00  0.00     0.207 C 
BRANCH   2   3
HETATM    3  C   UNL     1     -23.315 -11.485   0.307  1.00  0.00     0.006 C 
HETATM    4  C   UNL     1     -22.256 -12.217   0.708  1.00  0.00    -0.064 C 
HETATM    5  C   UNL     1     -22.547 -13.516   1.446  1.00  0.00     0.048 C 
BRANCH   4   6
HETATM    6  C   UNL     1     -20.837 -11.935   0.542  1.00  0.00     0.006 C 
HETATM    7  C   UNL     1     -20.240 -11.480  -0.570  1.00  0.00     0.001 C 
BRANCH   7   8
HETATM    8  C   UNL     1     -18.796 -11.394  -0.739  1.00  0.00     0.007 C 
HETATM    9  C   UNL     1     -18.146 -11.483  -1.919  1.00  0.00    -0.062 C 
HETATM   10  C   UNL     1     -16.662 -11.257  -2.029  1.00  0.00     0.048 C 
BRANCH   9  11
HETATM   11  C   UNL     1     -18.802 -11.804  -3.179  1.00  0.00     0.007 C 
HETATM   12  C   UNL     1     -18.494 -11.195  -4.340  1.00  0.00     0.009 C 
BRANCH  12  13
HETATM   13  C   UNL     1     -18.959 -11.705  -5.624  1.00  0.00    -0.048 C 
HETATM   14  C   UNL     1     -20.230 -11.585  -6.069  1.00  0.00    -0.077 C 
HETATM   15  C   UNL     1     -21.286 -10.723  -5.422  1.00  0.00     0.044 C 
HETATM   16  C   UNL     1     -20.734 -12.315  -7.303  1.00  0.00     0.034 C 
HETATM   17  C   UNL     1     -19.730 -13.249  -7.970  1.00  0.00     0.005 C 
HETATM   18  C   UNL     1     -18.334 -12.663  -7.885  1.00  0.00     0.014 C 
HETATM   19  C   UNL     1     -17.891 -12.483  -6.416  1.00  0.00    -0.020 C 
HETATM   20  C   UNL     1     -16.538 -11.732  -6.471  1.00  0.00     0.020 C 
HETATM   21  C   UNL     1     -17.701 -13.859  -5.746  1.00  0.00     0.020 C 
ENDBRANCH  12  13
ENDBRANCH   9  11
ENDBRANCH   7   8
ENDBRANCH   4   6
ENDBRANCH   2   3
ENDBRANCH   1   2
BRANCH   1  22
HETATM   22  C   UNL     1     -22.371  -8.205   0.078  1.00  0.00     0.283 C 
HETATM   23  O   UNL     1     -21.380  -8.120   0.796  1.00  0.00    -0.260 OA
BRANCH  22  24
HETATM   24  C   UNL     1     -22.294  -7.578  -1.267  1.00  0.00     0.089 C 
HETATM   25  C   UNL     1     -21.525  -7.523  -2.377  1.00  0.00    -0.056 C 
HETATM   26  C   UNL     1     -20.292  -8.288  -2.748  1.00  0.00     0.048 C 
BRANCH  25  27
HETATM   27  C   UNL     1     -21.859  -6.533  -3.400  1.00  0.00     0.007 C 
HETATM   28  C   UNL     1     -21.147  -6.431  -4.532  1.00  0.00     0.001 C 
BRANCH  28  29
HETATM   29  C   UNL     1     -21.590  -5.680  -5.684  1.00  0.00     0.007 C 
HETATM   30  C   UNL     1     -20.806  -4.981  -6.524  1.00  0.00    -0.062 C 
HETATM   31  C   UNL     1     -19.333  -4.712  -6.327  1.00  0.00     0.048 C 
BRANCH  30  32
HETATM   32  C   UNL     1     -21.433  -4.422  -7.724  1.00  0.00     0.007 C 
HETATM   33  C   UNL     1     -21.623  -5.043  -8.898  1.00  0.00     0.009 C 
BRANCH  33  34
HETATM   34  C   UNL     1     -22.193  -4.350 -10.053  1.00  0.00    -0.048 C 
HETATM   35  C   UNL     1     -21.379  -3.811 -11.017  1.00  0.00    -0.077 C 
HETATM   36  C   UNL     1     -21.918  -3.004 -12.155  1.00  0.00     0.034 C 
HETATM   37  C   UNL     1     -19.878  -3.958 -11.052  1.00  0.00     0.044 C 
HETATM   38  C   UNL     1     -23.376  -2.591 -12.011  1.00  0.00     0.005 C 
HETATM   39  C   UNL     1     -24.210  -3.758 -11.506  1.00  0.00     0.014 C 
HETATM   40  C   UNL     1     -23.732  -4.268 -10.119  1.00  0.00    -0.020 C 
HETATM   41  C   UNL     1     -24.406  -5.645  -9.899  1.00  0.00     0.020 C 
HETATM   42  C   UNL     1     -24.253  -3.306  -9.024  1.00  0.00     0.020 C 
ENDBRANCH  33  34
ENDBRANCH  30  32
ENDBRANCH  28  29
ENDBRANCH  25  27
ENDBRANCH  22  24
ENDBRANCH   1  22
TORSDOF 12
ENDMDL
MODEL 4
REMARK VINA RESULT:      -9.7      1.262      2.920
REMARK  12 active torsions:
REMARK  status: ('A' for Active; 'I' for Inactive)
REMARK    1  A    between atoms: C_3  and  C_10 
REMARK    2  A    between atoms: C_11  and  C_12 
REMARK    3  A    between atoms: C_13  and  C_14 
REMARK    4  A    between atoms: C_15  and  C_16 
REMARK    5  A    between atoms: C_17  and  C_18 
REMARK    6  A    between atoms: C_18  and  O_19 
REMARK    7  A    between atoms: O_19  and  C_20 
REMARK    8  A    between atoms: C_20  and  C_22 
REMARK    9  A    between atoms: C_23  and  C_25 
REMARK   10  A    between atoms: C_26  and  C_27 
REMARK   11  A    between atoms: C_28  and  C_30 
REMARK   12  A    between atoms: C_31  and  C_32 
ROOT
HETATM    1  O   UNL     1     -23.447  -9.213   0.006  1.00  0.00    -0.314 OA
ENDROOT
BRANCH   1   2
HETATM    2  C   UNL     1     -23.310 -10.642   0.228  1.00  0.00     0.207 C 
BRANCH   2   3
HETATM    3  C   UNL     1     -22.761 -11.461  -0.904  1.00  0.00     0.006 C 
HETATM    4  C   UNL     1     -21.581 -12.056  -1.168  1.00  0.00    -0.064 C 
HETATM    5  C   UNL     1     -21.459 -12.807  -2.486  1.00  0.00     0.048 C 
BRANCH   4   6
HETATM    6  C   UNL     1     -20.375 -12.094  -0.351  1.00  0.00     0.006 C 
HETATM    7  C   UNL     1     -19.153 -11.677  -0.715  1.00  0.00     0.001 C 
BRANCH   7   8
HETATM    8  C   UNL     1     -17.949 -11.909   0.070  1.00  0.00     0.007 C 
HETATM    9  C   UNL     1     -16.723 -12.149  -0.443  1.00  0.00    -0.062 C 
HETATM   10  C   UNL     1     -15.501 -12.253   0.430  1.00  0.00     0.048 C 
BRANCH   9  11
HETATM   11  C   UNL     1     -16.463 -12.328  -1.865  1.00  0.00     0.007 C 
HETATM   12  C   UNL     1     -15.572 -11.584  -2.547  1.00  0.00     0.009 C 
BRANCH  12  13
HETATM   13  C   UNL     1     -15.131 -11.948  -3.888  1.00  0.00    -0.048 C 
HETATM   14  C   UNL     1     -14.041 -12.705  -4.145  1.00  0.00    -0.077 C 
HETATM   15  C   UNL     1     -13.261 -13.466  -3.101  1.00  0.00     0.044 C 
HETATM   16  C   UNL     1     -13.484 -12.883  -5.547  1.00  0.00     0.034 C 
HETATM   17  C   UNL     1     -14.194 -12.092  -6.642  1.00  0.00     0.005 C 
HETATM   18  C   UNL     1     -15.683 -12.030  -6.359  1.00  0.00     0.014 C 
HETATM   19  C   UNL     1     -15.969 -11.320  -5.017  1.00  0.00    -0.020 C 
HETATM   20  C   UNL     1     -17.490 -11.473  -4.774  1.00  0.00     0.020 C 
HETATM   21  C   UNL     1     -15.600  -9.826  -5.118  1.00  0.00     0.020 C 
ENDBRANCH  12  13
ENDBRANCH   9  11
ENDBRANCH   7   8
ENDBRANCH   4   6
ENDBRANCH   2   3
ENDBRANCH   1   2
BRANCH   1  22
HETATM   22  C   UNL     1     -22.260  -8.608  -0.234  1.00  0.00     0.283 C 
HETATM   23  O   UNL     1     -21.284  -8.687   0.506  1.00  0.00    -0.260 OA
BRANCH  22  24
HETATM   24  C   UNL     1     -22.061  -7.964  -1.558  1.00  0.00     0.089 C 
HETATM   25  C   UNL     1     -21.222  -7.939  -2.618  1.00  0.00    -0.056 C 
HETATM   26  C   UNL     1     -20.018  -8.773  -2.928  1.00  0.00     0.048 C 
BRANCH  25  27
HETATM   27  C   UNL     1     -21.431  -6.912  -3.638  1.00  0.00     0.007 C 
HETATM   28  C   UNL     1     -21.009  -7.086  -4.899  1.00  0.00     0.001 C 
BRANCH  28  29
HETATM   29  C   UNL     1     -21.428  -6.248  -5.999  1.00  0.00     0.007 C 
HETATM   30  C   UNL     1     -20.800  -5.142  -6.437  1.00  0.00    -0.062 C 
HETATM   31  C   UNL     1     -19.630  -4.472  -5.757  1.00  0.00     0.048 C 
BRANCH  30  32
HETATM   32  C   UNL     1     -21.300  -4.525  -7.668  1.00  0.00     0.007 C 
HETATM   33  C   UNL     1     -21.843  -5.154  -8.721  1.00  0.00     0.009 C 
BRANCH  33  34
HETATM   34  C   UNL     1     -22.235  -4.433  -9.932  1.00  0.00    -0.048 C 
HETATM   35  C   UNL     1     -21.287  -3.981 -10.814  1.00  0.00    -0.077 C 
HETATM   36  C   UNL     1     -21.639  -3.148 -12.006  1.00  0.00     0.034 C 
HETATM   37  C   UNL     1     -19.808  -4.256 -10.699  1.00  0.00     0.044 C 
HETATM   38  C   UNL     1     -23.063  -2.610 -12.010  1.00  0.00     0.005 C 
HETATM   39  C   UNL     1     -24.041  -3.693 -11.581  1.00  0.00     0.014 C 
HETATM   40  C   UNL     1     -23.748  -4.221 -10.150  1.00  0.00    -0.020 C 
HETATM   41  C   UNL     1     -24.557  -5.531  -9.988  1.00  0.00     0.020 C 
HETATM   42  C   UNL     1     -24.287  -3.201  -9.119  1.00  0.00     0.020 C 
ENDBRANCH  33  34
ENDBRANCH  30  32
ENDBRANCH  28  29
ENDBRANCH  25  27
ENDBRANCH  22  24
ENDBRANCH   1  22
TORSDOF 12
ENDMDL
MODEL 5
REMARK VINA RESULT:      -9.5      1.342      3.621
REMARK  12 active torsions:
REMARK  status: ('A' for Active; 'I' for Inactive)
REMARK    1  A    between atoms: C_3  and  C_10 
REMARK    2  A    between atoms: C_11  and  C_12 
REMARK    3  A    between atoms: C_13  and  C_14 
REMARK    4  A    between atoms: C_15  and  C_16 
REMARK    5  A    between atoms: C_17  and  C_18 
REMARK    6  A    between atoms: C_18  and  O_19 
REMARK    7  A    between atoms: O_19  and  C_20 
REMARK    8  A    between atoms: C_20  and  C_22 
REMARK    9  A    between atoms: C_23  and  C_25 
REMARK   10  A    between atoms: C_26  and  C_27 
REMARK   11  A    between atoms: C_28  and  C_30 
REMARK   12  A    between atoms: C_31  and  C_32 
ROOT
HETATM    1  O   UNL     1     -23.374  -8.871   0.431  1.00  0.00    -0.314 OA
ENDROOT
BRANCH   1   2
HETATM    2  C   UNL     1     -23.524 -10.055  -0.398  1.00  0.00     0.207 C 
BRANCH   2   3
HETATM    3  C   UNL     1     -23.375 -11.387   0.277  1.00  0.00     0.006 C 
HETATM    4  C   UNL     1     -22.334 -12.138   0.690  1.00  0.00    -0.064 C 
HETATM    5  C   UNL     1     -22.657 -13.473   1.346  1.00  0.00     0.048 C 
BRANCH   4   6
HETATM    6  C   UNL     1     -20.910 -11.849   0.606  1.00  0.00     0.006 C 
HETATM    7  C   UNL     1     -20.192 -11.701  -0.518  1.00  0.00     0.001 C 
BRANCH   7   8
HETATM    8  C   UNL     1     -18.739 -11.598  -0.546  1.00  0.00     0.007 C 
HETATM    9  C   UNL     1     -17.991 -11.488  -1.664  1.00  0.00    -0.062 C 
HETATM   10  C   UNL     1     -16.504 -11.258  -1.607  1.00  0.00     0.048 C 
BRANCH   9  11
HETATM   11  C   UNL     1     -18.534 -11.581  -3.012  1.00  0.00     0.007 C 
HETATM   12  C   UNL     1     -19.281 -12.620  -3.430  1.00  0.00     0.009 C 
BRANCH  12  13
HETATM   13  C   UNL     1     -20.034 -12.574  -4.678  1.00  0.00    -0.048 C 
HETATM   14  C   UNL     1     -19.467 -12.605  -5.904  1.00  0.00    -0.077 C 
HETATM   15  C   UNL     1     -18.014 -12.917  -6.168  1.00  0.00     0.044 C 
HETATM   16  C   UNL     1     -20.255 -12.335  -7.175  1.00  0.00     0.034 C 
HETATM   17  C   UNL     1     -21.719 -11.957  -6.973  1.00  0.00     0.005 C 
HETATM   18  C   UNL     1     -22.300 -12.726  -5.802  1.00  0.00     0.014 C 
HETATM   19  C   UNL     1     -21.553 -12.399  -4.490  1.00  0.00    -0.020 C 
HETATM   20  C   UNL     1     -22.128 -13.363  -3.423  1.00  0.00     0.020 C 
HETATM   21  C   UNL     1     -21.822 -10.937  -4.077  1.00  0.00     0.020 C 
ENDBRANCH  12  13
ENDBRANCH   9  11
ENDBRANCH   7   8
ENDBRANCH   4   6
ENDBRANCH   2   3
ENDBRANCH   1   2
BRANCH   1  22
HETATM   22  C   UNL     1     -22.237  -8.187   0.161  1.00  0.00     0.283 C 
HETATM   23  O   UNL     1     -21.237  -8.204   0.872  1.00  0.00    -0.260 OA
BRANCH  22  24
HETATM   24  C   UNL     1     -22.119  -7.527  -1.164  1.00  0.00     0.089 C 
HETATM   25  C   UNL     1     -21.307  -7.428  -2.240  1.00  0.00    -0.056 C 
HETATM   26  C   UNL     1     -20.042  -8.156  -2.577  1.00  0.00     0.048 C 
BRANCH  25  27
HETATM   27  C   UNL     1     -21.622  -6.421  -3.252  1.00  0.00     0.007 C 
HETATM   28  C   UNL     1     -21.241  -6.572  -4.530  1.00  0.00     0.001 C 
BRANCH  28  29
HETATM   29  C   UNL     1     -21.757  -5.768  -5.613  1.00  0.00     0.007 C 
HETATM   30  C   UNL     1     -21.030  -5.012  -6.456  1.00  0.00    -0.062 C 
HETATM   31  C   UNL     1     -19.552  -4.730  -6.324  1.00  0.00     0.048 C 
BRANCH  30  32
HETATM   32  C   UNL     1     -21.729  -4.399  -7.586  1.00  0.00     0.007 C 
HETATM   33  C   UNL     1     -21.645  -4.757  -8.877  1.00  0.00     0.009 C 
BRANCH  33  34
HETATM   34  C   UNL     1     -22.335  -4.014  -9.930  1.00  0.00    -0.048 C 
HETATM   35  C   UNL     1     -23.689  -3.803  -9.865  1.00  0.00    -0.077 C 
HETATM   36  C   UNL     1     -24.447  -3.142 -10.972  1.00  0.00     0.034 C 
HETATM   37  C   UNL     1     -24.564  -4.200  -8.702  1.00  0.00     0.044 C 
HETATM   38  C   UNL     1     -23.670  -2.983 -12.271  1.00  0.00     0.005 C 
HETATM   39  C   UNL     1     -22.256  -2.500 -11.988  1.00  0.00     0.014 C 
HETATM   40  C   UNL     1     -21.463  -3.491 -11.091  1.00  0.00    -0.020 C 
HETATM   41  C   UNL     1     -20.211  -2.729 -10.592  1.00  0.00     0.020 C 
HETATM   42  C   UNL     1     -20.981  -4.678 -11.959  1.00  0.00     0.020 C 
ENDBRANCH  33  34
ENDBRANCH  30  32
ENDBRANCH  28  29
ENDBRANCH  25  27
ENDBRANCH  22  24
ENDBRANCH   1  22
TORSDOF 12
ENDMDL
MODEL 6
REMARK VINA RESULT:      -9.4      1.135      3.058
REMARK  12 active torsions:
REMARK  status: ('A' for Active; 'I' for Inactive)
REMARK    1  A    between atoms: C_3  and  C_10 
REMARK    2  A    between atoms: C_11  and  C_12 
REMARK    3  A    between atoms: C_13  and  C_14 
REMARK    4  A    between atoms: C_15  and  C_16 
REMARK    5  A    between atoms: C_17  and  C_18 
REMARK    6  A    between atoms: C_18  and  O_19 
REMARK    7  A    between atoms: O_19  and  C_20 
REMARK    8  A    between atoms: C_20  and  C_22 
REMARK    9  A    between atoms: C_23  and  C_25 
REMARK   10  A    between atoms: C_26  and  C_27 
REMARK   11  A    between atoms: C_28  and  C_30 
REMARK   12  A    between atoms: C_31  and  C_32 
ROOT
HETATM    1  O   UNL     1     -23.288  -9.068   0.339  1.00  0.00    -0.314 OA
ENDROOT
BRANCH   1   2
HETATM    2  C   UNL     1     -23.458 -10.208  -0.544  1.00  0.00     0.207 C 
BRANCH   2   3
HETATM    3  C   UNL     1     -23.583 -11.559   0.099  1.00  0.00     0.006 C 
HETATM    4  C   UNL     1     -22.740 -12.397   0.733  1.00  0.00    -0.064 C 
HETATM    5  C   UNL     1     -23.315 -13.713   1.239  1.00  0.00     0.048 C 
BRANCH   4   6
HETATM    6  C   UNL     1     -21.323 -12.221   1.022  1.00  0.00     0.006 C 
HETATM    7  C   UNL     1     -20.350 -11.993   0.126  1.00  0.00     0.001 C 
BRANCH   7   8
HETATM    8  C   UNL     1     -18.930 -12.011   0.448  1.00  0.00     0.007 C 
HETATM    9  C   UNL     1     -17.929 -12.022  -0.458  1.00  0.00    -0.062 C 
HETATM   10  C   UNL     1     -16.485 -11.911  -0.049  1.00  0.00     0.048 C 
BRANCH   9  11
HETATM   11  C   UNL     1     -18.141 -12.143  -1.894  1.00  0.00     0.007 C 
HETATM   12  C   UNL     1     -18.129 -11.085  -2.727  1.00  0.00     0.009 C 
BRANCH  12  13
HETATM   13  C   UNL     1     -18.074 -11.247  -4.175  1.00  0.00    -0.048 C 
HETATM   14  C   UNL     1     -19.150 -11.518  -4.946  1.00  0.00    -0.077 C 
HETATM   15  C   UNL     1     -20.581 -11.470  -4.467  1.00  0.00     0.044 C 
HETATM   16  C   UNL     1     -19.029 -11.897  -6.413  1.00  0.00     0.034 C 
HETATM   17  C   UNL     1     -17.604 -12.020  -6.944  1.00  0.00     0.005 C 
HETATM   18  C   UNL     1     -16.713 -10.978  -6.295  1.00  0.00     0.014 C 
HETATM   19  C   UNL     1     -16.653 -11.167  -4.764  1.00  0.00    -0.020 C 
HETATM   20  C   UNL     1     -15.858  -9.956  -4.218  1.00  0.00     0.020 C 
HETATM   21  C   UNL     1     -15.914 -12.477  -4.420  1.00  0.00     0.020 C 
ENDBRANCH  12  13
ENDBRANCH   9  11
ENDBRANCH   7   8
ENDBRANCH   4   6
ENDBRANCH   2   3
ENDBRANCH   1   2
BRANCH   1  22
HETATM   22  C   UNL     1     -22.170  -8.356   0.061  1.00  0.00     0.283 C 
HETATM   23  O   UNL     1     -21.157  -8.364   0.753  1.00  0.00    -0.260 OA
BRANCH  22  24
HETATM   24  C   UNL     1     -22.090  -7.672  -1.256  1.00  0.00     0.089 C 
HETATM   25  C   UNL     1     -21.293  -7.527  -2.338  1.00  0.00    -0.056 C 
HETATM   26  C   UNL     1     -20.005  -8.202  -2.697  1.00  0.00     0.048 C 
BRANCH  25  27
HETATM   27  C   UNL     1     -21.655  -6.518  -3.332  1.00  0.00     0.007 C 
HETATM   28  C   UNL     1     -21.225  -6.601  -4.599  1.00  0.00     0.001 C 
BRANCH  28  29
HETATM   29  C   UNL     1     -21.769  -5.806  -5.676  1.00  0.00     0.007 C 
HETATM   30  C   UNL     1     -21.080  -4.964  -6.467  1.00  0.00    -0.062 C 
HETATM   31  C   UNL     1     -19.638  -4.563  -6.271  1.00  0.00     0.048 C 
BRANCH  30  32
HETATM   32  C   UNL     1     -21.790  -4.373  -7.604  1.00  0.00     0.007 C 
HETATM   33  C   UNL     1     -21.663  -4.712  -8.897  1.00  0.00     0.009 C 
BRANCH  33  34
HETATM   34  C   UNL     1     -22.371  -3.992  -9.955  1.00  0.00    -0.048 C 
HETATM   35  C   UNL     1     -23.726  -3.791  -9.878  1.00  0.00    -0.077 C 
HETATM   36  C   UNL     1     -24.502  -3.155 -10.987  1.00  0.00     0.034 C 
HETATM   37  C   UNL     1     -24.585  -4.175  -8.698  1.00  0.00     0.044 C 
HETATM   38  C   UNL     1     -23.741  -3.012 -12.298  1.00  0.00     0.005 C 
HETATM   39  C   UNL     1     -22.328  -2.514 -12.039  1.00  0.00     0.014 C 
HETATM   40  C   UNL     1     -21.517  -3.483 -11.134  1.00  0.00    -0.020 C 
HETATM   41  C   UNL     1     -20.266  -2.702 -10.662  1.00  0.00     0.020 C 
HETATM   42  C   UNL     1     -21.035  -4.680 -11.987  1.00  0.00     0.020 C 
ENDBRANCH  33  34
ENDBRANCH  30  32
ENDBRANCH  28  29
ENDBRANCH  25  27
ENDBRANCH  22  24
ENDBRANCH   1  22
TORSDOF 12
ENDMDL
MODEL 7
REMARK VINA RESULT:      -9.4      4.076      8.881
REMARK  12 active torsions:
REMARK  status: ('A' for Active; 'I' for Inactive)
REMARK    1  A    between atoms: C_3  and  C_10 
REMARK    2  A    between atoms: C_11  and  C_12 
REMARK    3  A    between atoms: C_13  and  C_14 
REMARK    4  A    between atoms: C_15  and  C_16 
REMARK    5  A    between atoms: C_17  and  C_18 
REMARK    6  A    between atoms: C_18  and  O_19 
REMARK    7  A    between atoms: O_19  and  C_20 
REMARK    8  A    between atoms: C_20  and  C_22 
REMARK    9  A    between atoms: C_23  and  C_25 
REMARK   10  A    between atoms: C_26  and  C_27 
REMARK   11  A    between atoms: C_28  and  C_30 
REMARK   12  A    between atoms: C_31  and  C_32 
ROOT
HETATM    1  O   UNL     1     -22.457  -6.721  -0.271  1.00  0.00    -0.314 OA
ENDROOT
BRANCH   1   2
HETATM    2  C   UNL     1     -22.172  -8.033   0.284  1.00  0.00     0.207 C 
BRANCH   2   3
HETATM    3  C   UNL     1     -23.144  -9.134  -0.026  1.00  0.00     0.006 C 
HETATM    4  C   UNL     1     -23.094 -10.481  -0.028  1.00  0.00    -0.064 C 
HETATM    5  C   UNL     1     -24.361 -11.224  -0.427  1.00  0.00     0.048 C 
BRANCH   4   6
HETATM    6  C   UNL     1     -21.978 -11.353   0.313  1.00  0.00     0.006 C 
HETATM    7  C   UNL     1     -20.768 -11.362  -0.267  1.00  0.00     0.001 C 
BRANCH   7   8
HETATM    8  C   UNL     1     -19.755 -12.377  -0.015  1.00  0.00     0.007 C 
HETATM    9  C   UNL     1     -19.307 -13.269  -0.925  1.00  0.00    -0.062 C 
HETATM   10  C   UNL     1     -18.166 -14.205  -0.628  1.00  0.00     0.048 C 
BRANCH   9  11
HETATM   11  C   UNL     1     -19.873 -13.414  -2.259  1.00  0.00     0.007 C 
HETATM   12  C   UNL     1     -19.385 -12.769  -3.336  1.00  0.00     0.009 C 
BRANCH  12  13
HETATM   13  C   UNL     1     -19.782 -13.125  -4.692  1.00  0.00    -0.048 C 
HETATM   14  C   UNL     1     -21.009 -12.885  -5.208  1.00  0.00    -0.077 C 
HETATM   15  C   UNL     1     -22.060 -12.024  -4.551  1.00  0.00     0.044 C 
HETATM   16  C   UNL     1     -21.461 -13.461  -6.539  1.00  0.00     0.034 C 
HETATM   17  C   UNL     1     -20.464 -14.387  -7.227  1.00  0.00     0.005 C 
HETATM   18  C   UNL     1     -19.048 -13.899  -6.990  1.00  0.00     0.014 C 
HETATM   19  C   UNL     1     -18.704 -13.887  -5.485  1.00  0.00    -0.020 C 
HETATM   20  C   UNL     1     -17.312 -13.220  -5.373  1.00  0.00     0.020 C 
HETATM   21  C   UNL     1     -18.639 -15.331  -4.944  1.00  0.00     0.020 C 
ENDBRANCH  12  13
ENDBRANCH   9  11
ENDBRANCH   7   8
ENDBRANCH   4   6
ENDBRANCH   2   3
ENDBRANCH   1   2
BRANCH   1  22
HETATM   22  C   UNL     1     -22.067  -6.607  -1.562  1.00  0.00     0.283 C 
HETATM   23  O   UNL     1     -22.320  -5.641  -2.276  1.00  0.00    -0.260 OA
BRANCH  22  24
HETATM   24  C   UNL     1     -21.120  -7.618  -2.096  1.00  0.00     0.089 C 
HETATM   25  C   UNL     1     -20.817  -8.313  -3.216  1.00  0.00    -0.056 C 
HETATM   26  C   UNL     1     -21.383  -8.227  -4.600  1.00  0.00     0.048 C 
BRANCH  25  27
HETATM   27  C   UNL     1     -19.826  -9.384  -3.117  1.00  0.00     0.007 C 
HETATM   28  C   UNL     1     -18.517  -9.114  -2.999  1.00  0.00     0.001 C 
BRANCH  28  29
HETATM   29  C   UNL     1     -17.534 -10.102  -2.618  1.00  0.00     0.007 C 
HETATM   30  C   UNL     1     -16.352 -10.318  -3.223  1.00  0.00    -0.062 C 
HETATM   31  C   UNL     1     -15.901  -9.682  -4.516  1.00  0.00     0.048 C 
BRANCH  30  32
HETATM   32  C   UNL     1     -15.430 -11.259  -2.584  1.00  0.00     0.007 C 
HETATM   33  C   UNL     1     -15.733 -12.461  -2.068  1.00  0.00     0.009 C 
BRANCH  33  34
HETATM   34  C   UNL     1     -14.735 -13.280  -1.382  1.00  0.00    -0.048 C 
HETATM   35  C   UNL     1     -14.549 -13.168  -0.027  1.00  0.00    -0.077 C 
HETATM   36  C   UNL     1     -13.468 -13.908   0.694  1.00  0.00     0.034 C 
HETATM   37  C   UNL     1     -15.389 -12.307   0.885  1.00  0.00     0.044 C 
HETATM   38  C   UNL     1     -12.428 -14.558  -0.209  1.00  0.00     0.005 C 
HETATM   39  C   UNL     1     -13.104 -15.247  -1.385  1.00  0.00     0.014 C 
HETATM   40  C   UNL     1     -13.923 -14.257  -2.258  1.00  0.00    -0.020 C 
HETATM   41  C   UNL     1     -14.828 -15.120  -3.172  1.00  0.00     0.020 C 
HETATM   42  C   UNL     1     -12.952 -13.464  -3.165  1.00  0.00     0.020 C 
ENDBRANCH  33  34
ENDBRANCH  30  32
ENDBRANCH  28  29
ENDBRANCH  25  27
ENDBRANCH  22  24
ENDBRANCH   1  22
TORSDOF 12
ENDMDL
MODEL 8
REMARK VINA RESULT:      -9.2      3.046      8.579
REMARK  12 active torsions:
REMARK  status: ('A' for Active; 'I' for Inactive)
REMARK    1  A    between atoms: C_3  and  C_10 
REMARK    2  A    between atoms: C_11  and  C_12 
REMARK    3  A    between atoms: C_13  and  C_14 
REMARK    4  A    between atoms: C_15  and  C_16 
REMARK    5  A    between atoms: C_17  and  C_18 
REMARK    6  A    between atoms: C_18  and  O_19 
REMARK    7  A    between atoms: O_19  and  C_20 
REMARK    8  A    between atoms: C_20  and  C_22 
REMARK    9  A    between atoms: C_23  and  C_25 
REMARK   10  A    between atoms: C_26  and  C_27 
REMARK   11  A    between atoms: C_28  and  C_30 
REMARK   12  A    between atoms: C_31  and  C_32 
ROOT
HETATM    1  O   UNL     1     -22.386  -5.880  -3.122  1.00  0.00    -0.314 OA
ENDROOT
BRANCH   1   2
HETATM    2  C   UNL     1     -21.629  -6.620  -2.126  1.00  0.00     0.207 C 
BRANCH   2   3
HETATM    3  C   UNL     1     -22.364  -7.054  -0.891  1.00  0.00     0.006 C 
HETATM    4  C   UNL     1     -22.160  -7.981   0.066  1.00  0.00    -0.064 C 
HETATM    5  C   UNL     1     -23.203  -8.082   1.170  1.00  0.00     0.048 C 
BRANCH   4   6
HETATM    6  C   UNL     1     -21.056  -8.919   0.207  1.00  0.00     0.006 C 
HETATM    7  C   UNL     1     -21.092 -10.236  -0.046  1.00  0.00     0.001 C 
BRANCH   7   8
HETATM    8  C   UNL     1     -20.014 -11.157   0.290  1.00  0.00     0.007 C 
HETATM    9  C   UNL     1     -19.260 -11.829  -0.607  1.00  0.00    -0.062 C 
HETATM   10  C   UNL     1     -18.081 -12.665  -0.187  1.00  0.00     0.048 C 
BRANCH   9  11
HETATM   11  C   UNL     1     -19.508 -11.814  -2.042  1.00  0.00     0.007 C 
HETATM   12  C   UNL     1     -20.040 -12.860  -2.704  1.00  0.00     0.009 C 
BRANCH  12  13
HETATM   13  C   UNL     1     -20.526 -12.737  -4.073  1.00  0.00    -0.048 C 
HETATM   14  C   UNL     1     -19.791 -13.041  -5.166  1.00  0.00    -0.077 C 
HETATM   15  C   UNL     1     -18.463 -13.756  -5.132  1.00  0.00     0.044 C 
HETATM   16  C   UNL     1     -20.244 -12.697  -6.575  1.00  0.00     0.034 C 
HETATM   17  C   UNL     1     -21.553 -11.921  -6.673  1.00  0.00     0.005 C 
HETATM   18  C   UNL     1     -22.518 -12.385  -5.599  1.00  0.00     0.014 C 
HETATM   19  C   UNL     1     -21.942 -12.142  -4.186  1.00  0.00    -0.020 C 
HETATM   20  C   UNL     1     -22.938 -12.805  -3.203  1.00  0.00     0.020 C 
HETATM   21  C   UNL     1     -21.854 -10.628  -3.903  1.00  0.00     0.020 C 
ENDBRANCH  12  13
ENDBRANCH   9  11
ENDBRANCH   7   8
ENDBRANCH   4   6
ENDBRANCH   2   3
ENDBRANCH   1   2
BRANCH   1  22
HETATM   22  C   UNL     1     -22.293  -6.427  -4.357  1.00  0.00     0.283 C 
HETATM   23  O   UNL     1     -23.160  -6.334  -5.220  1.00  0.00    -0.260 OA
BRANCH  22  24
HETATM   24  C   UNL     1     -20.990  -7.013  -4.763  1.00  0.00     0.089 C 
HETATM   25  C   UNL     1     -20.092  -7.026  -5.774  1.00  0.00    -0.056 C 
HETATM   26  C   UNL     1     -20.043  -6.235  -7.044  1.00  0.00     0.048 C 
BRANCH  25  27
HETATM   27  C   UNL     1     -18.995  -7.991  -5.710  1.00  0.00     0.007 C 
HETATM   28  C   UNL     1     -18.878  -8.848  -4.685  1.00  0.00     0.001 C 
BRANCH  28  29
HETATM   29  C   UNL     1     -17.998  -9.993  -4.704  1.00  0.00     0.007 C 
HETATM   30  C   UNL     1     -16.975 -10.222  -3.860  1.00  0.00    -0.062 C 
HETATM   31  C   UNL     1     -16.449  -9.243  -2.838  1.00  0.00     0.048 C 
BRANCH  30  32
HETATM   32  C   UNL     1     -16.305 -11.521  -3.948  1.00  0.00     0.007 C 
HETATM   33  C   UNL     1     -15.200 -11.904  -3.290  1.00  0.00     0.009 C 
BRANCH  33  34
HETATM   34  C   UNL     1     -14.578 -13.207  -3.522  1.00  0.00    -0.048 C 
HETATM   35  C   UNL     1     -13.837 -13.437  -4.654  1.00  0.00    -0.077 C 
HETATM   36  C   UNL     1     -13.274 -14.784  -4.979  1.00  0.00     0.034 C 
HETATM   37  C   UNL     1     -13.505 -12.389  -5.688  1.00  0.00     0.044 C 
HETATM   38  C   UNL     1     -13.814 -15.923  -4.127  1.00  0.00     0.005 C 
HETATM   39  C   UNL     1     -13.875 -15.509  -2.664  1.00  0.00     0.014 C 
HETATM   40  C   UNL     1     -14.798 -14.281  -2.437  1.00  0.00    -0.020 C 
HETATM   41  C   UNL     1     -14.489 -13.754  -1.014  1.00  0.00     0.020 C 
HETATM   42  C   UNL     1     -16.273 -14.751  -2.458  1.00  0.00     0.020 C 
ENDBRANCH  33  34
ENDBRANCH  30  32
ENDBRANCH  28  29
ENDBRANCH  25  27
ENDBRANCH  22  24
ENDBRANCH   1  22
TORSDOF 12
ENDMDL
MODEL 9
REMARK VINA RESULT:      -9.0      3.328      8.897
REMARK  12 active torsions:
REMARK  status: ('A' for Active; 'I' for Inactive)
REMARK    1  A    between atoms: C_3  and  C_10 
REMARK    2  A    between atoms: C_11  and  C_12 
REMARK    3  A    between atoms: C_13  and  C_14 
REMARK    4  A    between atoms: C_15  and  C_16 
REMARK    5  A    between atoms: C_17  and  C_18 
REMARK    6  A    between atoms: C_18  and  O_19 
REMARK    7  A    between atoms: O_19  and  C_20 
REMARK    8  A    between atoms: C_20  and  C_22 
REMARK    9  A    between atoms: C_23  and  C_25 
REMARK   10  A    between atoms: C_26  and  C_27 
REMARK   11  A    between atoms: C_28  and  C_30 
REMARK   12  A    between atoms: C_31  and  C_32 
ROOT
HETATM    1  O   UNL     1     -22.098  -6.452  -1.347  1.00  0.00    -0.314 OA
ENDROOT
BRANCH   1   2
HETATM    2  C   UNL     1     -22.506  -6.728  -2.714  1.00  0.00     0.207 C 
BRANCH   2   3
HETATM    3  C   UNL     1     -21.504  -6.448  -3.797  1.00  0.00     0.006 C 
HETATM    4  C   UNL     1     -21.059  -7.113  -4.882  1.00  0.00    -0.064 C 
HETATM    5  C   UNL     1     -19.995  -6.430  -5.729  1.00  0.00     0.048 C 
BRANCH   4   6
HETATM    6  C   UNL     1     -21.463  -8.421  -5.380  1.00  0.00     0.006 C 
HETATM    7  C   UNL     1     -20.941  -9.605  -5.026  1.00  0.00     0.001 C 
BRANCH   7   8
HETATM    8  C   UNL     1     -21.254 -10.862  -5.691  1.00  0.00     0.007 C 
HETATM    9  C   UNL     1     -21.811 -11.938  -5.095  1.00  0.00    -0.062 C 
HETATM   10  C   UNL     1     -22.222 -13.157  -5.877  1.00  0.00     0.048 C 
BRANCH   9  11
HETATM   11  C   UNL     1     -22.062 -12.028  -3.664  1.00  0.00     0.007 C 
HETATM   12  C   UNL     1     -22.736 -13.049  -3.102  1.00  0.00     0.009 C 
BRANCH  12  13
HETATM   13  C   UNL     1     -22.748 -13.263  -1.660  1.00  0.00    -0.048 C 
HETATM   14  C   UNL     1     -23.339 -12.427  -0.777  1.00  0.00    -0.077 C 
HETATM   15  C   UNL     1     -24.256 -11.290  -1.157  1.00  0.00     0.044 C 
HETATM   16  C   UNL     1     -23.147 -12.557   0.725  1.00  0.00     0.034 C 
HETATM   17  C   UNL     1     -22.185 -13.653   1.171  1.00  0.00     0.005 C 
HETATM   18  C   UNL     1     -22.304 -14.858   0.258  1.00  0.00     0.014 C 
HETATM   19  C   UNL     1     -21.945 -14.494  -1.199  1.00  0.00    -0.020 C 
HETATM   20  C   UNL     1     -22.267 -15.753  -2.042  1.00  0.00     0.020 C 
HETATM   21  C   UNL     1     -20.444 -14.159  -1.308  1.00  0.00     0.020 C 
ENDBRANCH  12  13
ENDBRANCH   9  11
ENDBRANCH   7   8
ENDBRANCH   4   6
ENDBRANCH   2   3
ENDBRANCH   1   2
BRANCH   1  22
HETATM   22  C   UNL     1     -22.271  -7.517  -0.529  1.00  0.00     0.283 C 
HETATM   23  O   UNL     1     -23.107  -7.570   0.367  1.00  0.00    -0.260 OA
BRANCH  22  24
HETATM   24  C   UNL     1     -21.536  -8.768  -0.849  1.00  0.00     0.089 C 
HETATM   25  C   UNL     1     -20.825  -9.766  -0.277  1.00  0.00    -0.056 C 
HETATM   26  C   UNL     1     -20.551 -10.066   1.164  1.00  0.00     0.048 C 
BRANCH  25  27
HETATM   27  C   UNL     1     -20.133 -10.710  -1.154  1.00  0.00     0.007 C 
HETATM   28  C   UNL     1     -19.150 -10.308  -1.973  1.00  0.00     0.001 C 
BRANCH  28  29
HETATM   29  C   UNL     1     -18.251 -11.220  -2.642  1.00  0.00     0.007 C 
HETATM   30  C   UNL     1     -16.967 -10.977  -2.962  1.00  0.00    -0.062 C 
HETATM   31  C   UNL     1     -16.270  -9.644  -2.831  1.00  0.00     0.048 C 
BRANCH  30  32
HETATM   32  C   UNL     1     -16.182 -12.092  -3.495  1.00  0.00     0.007 C 
HETATM   33  C   UNL     1     -14.845 -12.160  -3.597  1.00  0.00     0.009 C 
BRANCH  33  34
HETATM   34  C   UNL     1     -14.177 -13.301  -4.223  1.00  0.00    -0.048 C 
HETATM   35  C   UNL     1     -13.904 -13.301  -5.567  1.00  0.00    -0.077 C 
HETATM   36  C   UNL     1     -13.320 -14.489  -6.263  1.00  0.00     0.034 C 
HETATM   37  C   UNL     1     -14.151 -12.134  -6.492  1.00  0.00     0.044 C 
HETATM   38  C   UNL     1     -13.319 -15.772  -5.443  1.00  0.00     0.005 C 
HETATM   39  C   UNL     1     -12.873 -15.489  -4.016  1.00  0.00     0.014 C 
HETATM   40  C   UNL     1     -13.806 -14.477  -3.296  1.00  0.00    -0.020 C 
HETATM   41  C   UNL     1     -13.053 -14.011  -2.025  1.00  0.00     0.020 C 
HETATM   42  C   UNL     1     -15.089 -15.213  -2.843  1.00  0.00     0.020 C 
ENDBRANCH  33  34
ENDBRANCH  30  32
ENDBRANCH  28  29
ENDBRANCH  25  27
ENDBRANCH  22  24
ENDBRANCH   1  22
TORSDOF 12
ENDMDL
