MODEL 1
REMARK VINA RESULT:     -10.1      0.000      0.000
REMARK  5 active torsions:
REMARK  status: ('A' for Active; 'I' for Inactive)
REMARK    1  A    between atoms: C_4  and  N_7 
REMARK    2  A    between atoms: N_9  and  C_11 
REMARK    3  A    between atoms: C_14  and  N_17 
REMARK    4  A    between atoms: N_19  and  C_21 
REMARK    5  A    between atoms: C_22  and  O_31 
ROOT
HETATM    1  C   UNL     1     -21.279  -4.769  -7.477  1.00  0.00     0.048 A 
HETATM    2  C   UNL     1     -20.273  -4.317  -6.617  1.00  0.00     0.033 A 
HETATM    3  C   UNL     1     -20.116  -4.856  -5.322  1.00  0.00     0.033 A 
HETATM    4  C   UNL     1     -20.952  -5.863  -4.837  1.00  0.00     0.048 A 
HETATM    5  C   UNL     1     -21.953  -6.322  -5.701  1.00  0.00     0.033 A 
HETATM    6  C   UNL     1     -22.119  -5.777  -6.991  1.00  0.00     0.033 A 
ENDROOT
BRANCH   4   7
HETATM    7  N   UNL     1     -20.882  -6.428  -3.539  1.00  0.00    -0.300 N 
HETATM    8  N   UNL     1     -21.389  -7.573  -3.429  1.00  0.00    -0.297 N 
ATOM      9  HN  UNL     1     -21.689  -8.156  -4.210  1.00  0.00     0.187 HD
ATOM     10  HN  UNL     1     -20.452  -5.941  -2.752  1.00  0.00     0.187 HD
BRANCH   8  11
HETATM   11  C   UNL     1     -21.482  -7.940  -2.052  1.00  0.00     0.092 C 
HETATM   12  C   UNL     1     -22.178  -7.117  -1.146  1.00  0.00     0.094 C 
HETATM   13  C   UNL     1     -22.292  -7.441   0.213  1.00  0.00     0.040 C 
HETATM   14  C   UNL     1     -21.842  -8.682   0.651  1.00  0.00     0.015 C 
HETATM   15  C   UNL     1     -21.148  -9.530  -0.223  1.00  0.00    -0.024 C 
HETATM   16  C   UNL     1     -20.706 -10.778   0.216  1.00  0.00     0.012 C 
HETATM   17  C   UNL     1     -20.824  -9.092  -1.534  1.00  0.00     0.005 C 
HETATM   18  C   UNL     1     -19.628 -11.389  -0.413  1.00  0.00     0.001 C 
HETATM   19  C   UNL     1     -19.159 -10.879  -1.615  1.00  0.00     0.001 C 
HETATM   20  C   UNL     1     -19.829  -9.815  -2.221  1.00  0.00     0.014 C 
BRANCH  12  21
HETATM   21  O   UNL     1     -22.754  -5.944  -1.530  1.00  0.00    -0.358 OA
HETATM   22  H   UNL     1     -22.140  -5.238  -1.271  1.00  0.00     0.217 HD
ENDBRANCH  12  21
ENDBRANCH   8  11
ENDBRANCH   4   7
BRANCH   1  23
HETATM   23  N   UNL     1     -21.545  -4.224  -8.758  1.00  0.00    -0.300 N 
HETATM   24  N   UNL     1     -22.737  -4.355  -9.119  1.00  0.00    -0.300 N 
ATOM     25  HN  UNL     1     -23.462  -4.748  -8.518  1.00  0.00     0.187 HD
ATOM     26  HN  UNL     1     -20.835  -3.769  -9.331  1.00  0.00     0.187 HD
BRANCH  24  27
HETATM   27  C   UNL     1     -22.985  -3.904 -10.446  1.00  0.00     0.048 A 
HETATM   28  C   UNL     1     -24.259  -3.563 -10.932  1.00  0.00     0.031 A 
HETATM   29  C   UNL     1     -24.415  -3.076 -12.233  1.00  0.00     0.002 A 
HETATM   30  C   UNL     1     -23.316  -2.890 -13.066  1.00  0.00     0.000 A 
HETATM   31  C   UNL     1     -22.048  -3.231 -12.597  1.00  0.00     0.002 A 
HETATM   32  C   UNL     1     -21.891  -3.733 -11.300  1.00  0.00     0.031 A 
ENDBRANCH  24  27
ENDBRANCH   1  23
TORSDOF 5
ENDMDL
MODEL 2
REMARK VINA RESULT:      -9.5      1.549      2.787
REMARK  5 active torsions:
REMARK  status: ('A' for Active; 'I' for Inactive)
REMARK    1  A    between atoms: C_4  and  N_7 
REMARK    2  A    between atoms: N_9  and  C_11 
REMARK    3  A    between atoms: C_14  and  N_17 
REMARK    4  A    between atoms: N_19  and  C_21 
REMARK    5  A    between atoms: C_22  and  O_31 
ROOT
HETATM    1  C   UNL     1     -21.270  -5.334  -7.255  1.00  0.00     0.048 A 
HETATM    2  C   UNL     1     -22.228  -5.492  -6.248  1.00  0.00     0.033 A 
HETATM    3  C   UNL     1     -21.985  -6.309  -5.125  1.00  0.00     0.033 A 
HETATM    4  C   UNL     1     -20.782  -6.999  -4.961  1.00  0.00     0.048 A 
HETATM    5  C   UNL     1     -19.820  -6.834  -5.965  1.00  0.00     0.033 A 
HETATM    6  C   UNL     1     -20.065  -6.026  -7.094  1.00  0.00     0.033 A 
ENDROOT
BRANCH   4   7
HETATM    7  N   UNL     1     -20.478  -7.867  -3.882  1.00  0.00    -0.300 N 
HETATM    8  N   UNL     1     -21.189  -8.902  -3.817  1.00  0.00    -0.297 N 
ATOM      9  HN  UNL     1     -21.831  -9.217  -4.544  1.00  0.00     0.187 HD
ATOM     10  HN  UNL     1     -19.738  -7.666  -3.210  1.00  0.00     0.187 HD
BRANCH   8  11
HETATM   11  C   UNL     1     -20.967  -9.573  -2.576  1.00  0.00     0.092 C 
HETATM   12  C   UNL     1     -20.396 -10.860  -2.560  1.00  0.00     0.094 C 
HETATM   13  C   UNL     1     -20.162 -11.553  -1.364  1.00  0.00     0.040 C 
HETATM   14  C   UNL     1     -20.354 -10.894  -0.155  1.00  0.00     0.015 C 
HETATM   15  C   UNL     1     -20.917  -9.610  -0.131  1.00  0.00    -0.024 C 
HETATM   16  C   UNL     1     -21.101  -8.949   1.083  1.00  0.00     0.012 C 
HETATM   17  C   UNL     1     -21.376  -9.012  -1.333  1.00  0.00     0.005 C 
HETATM   18  C   UNL     1     -22.073  -7.963   1.192  1.00  0.00     0.001 C 
HETATM   19  C   UNL     1     -22.683  -7.474   0.046  1.00  0.00     0.001 C 
HETATM   20  C   UNL     1     -22.250  -7.914  -1.206  1.00  0.00     0.014 C 
BRANCH  12  21
HETATM   21  O   UNL     1     -20.065 -11.519  -3.706  1.00  0.00    -0.358 OA
HETATM   22  H   UNL     1     -19.958 -12.453  -3.464  1.00  0.00     0.217 HD
ENDBRANCH  12  21
ENDBRANCH   8  11
ENDBRANCH   4   7
BRANCH   1  23
HETATM   23  N   UNL     1     -21.472  -4.592  -8.447  1.00  0.00    -0.300 N 
HETATM   24  N   UNL     1     -22.623  -4.721  -8.926  1.00  0.00    -0.300 N 
ATOM     25  HN  UNL     1     -23.364  -5.248  -8.463  1.00  0.00     0.187 HD
ATOM     26  HN  UNL     1     -20.751  -4.011  -8.872  1.00  0.00     0.187 HD
BRANCH  24  27
HETATM   27  C   UNL     1     -22.797  -4.064 -10.176  1.00  0.00     0.048 A 
HETATM   28  C   UNL     1     -21.746  -3.779 -11.064  1.00  0.00     0.031 A 
HETATM   29  C   UNL     1     -22.005  -3.179 -12.300  1.00  0.00     0.002 A 
HETATM   30  C   UNL     1     -23.304  -2.875 -12.692  1.00  0.00     0.000 A 
HETATM   31  C   UNL     1     -24.355  -3.148 -11.816  1.00  0.00     0.002 A 
HETATM   32  C   UNL     1     -24.097  -3.735 -10.573  1.00  0.00     0.031 A 
ENDBRANCH  24  27
ENDBRANCH   1  23
TORSDOF 5
ENDMDL
MODEL 3
REMARK VINA RESULT:      -9.0      1.712      2.521
REMARK  5 active torsions:
REMARK  status: ('A' for Active; 'I' for Inactive)
REMARK    1  A    between atoms: C_4  and  N_7 
REMARK    2  A    between atoms: N_9  and  C_11 
REMARK    3  A    between atoms: C_14  and  N_17 
REMARK    4  A    between atoms: N_19  and  C_21 
REMARK    5  A    between atoms: C_22  and  O_31 
ROOT
HETATM    1  C   UNL     1     -21.259  -5.333  -7.400  1.00  0.00     0.048 A 
HETATM    2  C   UNL     1     -22.202  -5.571  -6.396  1.00  0.00     0.033 A 
HETATM    3  C   UNL     1     -21.885  -6.341  -5.257  1.00  0.00     0.033 A 
HETATM    4  C   UNL     1     -20.619  -6.901  -5.075  1.00  0.00     0.048 A 
HETATM    5  C   UNL     1     -19.672  -6.656  -6.077  1.00  0.00     0.033 A 
HETATM    6  C   UNL     1     -19.991  -5.896  -7.222  1.00  0.00     0.033 A 
ENDROOT
BRANCH   4   7
HETATM    7  N   UNL     1     -20.235  -7.715  -3.980  1.00  0.00    -0.300 N 
HETATM    8  N   UNL     1     -19.708  -8.813  -4.294  1.00  0.00    -0.297 N 
ATOM      9  HN  UNL     1     -19.411  -9.071  -5.234  1.00  0.00     0.187 HD
ATOM     10  HN  UNL     1     -20.377  -7.432  -3.011  1.00  0.00     0.187 HD
BRANCH   8  11
HETATM   11  C   UNL     1     -19.585  -9.647  -3.140  1.00  0.00     0.092 C 
HETATM   12  C   UNL     1     -20.726  -9.981  -2.385  1.00  0.00     0.094 C 
HETATM   13  C   UNL     1     -20.648 -10.795  -1.247  1.00  0.00     0.040 C 
HETATM   14  C   UNL     1     -19.442 -11.417  -0.943  1.00  0.00     0.015 C 
HETATM   15  C   UNL     1     -18.286 -11.112  -1.675  1.00  0.00    -0.024 C 
HETATM   16  C   UNL     1     -17.080 -11.744  -1.374  1.00  0.00     0.012 C 
HETATM   17  C   UNL     1     -18.321 -10.103  -2.673  1.00  0.00     0.005 C 
HETATM   18  C   UNL     1     -15.878 -11.128  -1.700  1.00  0.00     0.001 C 
HETATM   19  C   UNL     1     -15.882 -10.019  -2.534  1.00  0.00     0.001 C 
HETATM   20  C   UNL     1     -17.081  -9.589  -3.103  1.00  0.00     0.014 C 
BRANCH  12  21
HETATM   21  O   UNL     1     -21.965  -9.508  -2.697  1.00  0.00    -0.358 OA
HETATM   22  H   UNL     1     -22.518  -9.647  -1.912  1.00  0.00     0.217 HD
ENDBRANCH  12  21
ENDBRANCH   8  11
ENDBRANCH   4   7
BRANCH   1  23
HETATM   23  N   UNL     1     -21.528  -4.636  -8.605  1.00  0.00    -0.300 N 
HETATM   24  N   UNL     1     -22.743  -4.609  -8.906  1.00  0.00    -0.300 N 
ATOM     25  HN  UNL     1     -23.476  -4.986  -8.304  1.00  0.00     0.187 HD
ATOM     26  HN  UNL     1     -20.801  -4.200  -9.173  1.00  0.00     0.187 HD
BRANCH  24  27
HETATM   27  C   UNL     1     -23.006  -4.003 -10.167  1.00  0.00     0.048 A 
HETATM   28  C   UNL     1     -24.297  -3.745 -10.658  1.00  0.00     0.031 A 
HETATM   29  C   UNL     1     -24.474  -3.096 -11.883  1.00  0.00     0.002 A 
HETATM   30  C   UNL     1     -23.382  -2.666 -12.631  1.00  0.00     0.000 A 
HETATM   31  C   UNL     1     -22.096  -2.922 -12.157  1.00  0.00     0.002 A 
HETATM   32  C   UNL     1     -21.917  -3.584 -10.937  1.00  0.00     0.031 A 
ENDBRANCH  24  27
ENDBRANCH   1  23
TORSDOF 5
ENDMDL
MODEL 4
REMARK VINA RESULT:      -8.8      1.764      1.967
REMARK  5 active torsions:
REMARK  status: ('A' for Active; 'I' for Inactive)
REMARK    1  A    between atoms: C_4  and  N_7 
REMARK    2  A    between atoms: N_9  and  C_11 
REMARK    3  A    between atoms: C_14  and  N_17 
REMARK    4  A    between atoms: N_19  and  C_21 
REMARK    5  A    between atoms: C_22  and  O_31 
ROOT
HETATM    1  C   UNL     1     -21.373  -5.566  -7.294  1.00  0.00     0.048 A 
HETATM    2  C   UNL     1     -20.192  -6.202  -6.900  1.00  0.00     0.033 A 
HETATM    3  C   UNL     1     -20.090  -6.858  -5.655  1.00  0.00     0.033 A 
HETATM    4  C   UNL     1     -21.160  -6.905  -4.758  1.00  0.00     0.048 A 
HETATM    5  C   UNL     1     -22.344  -6.275  -5.156  1.00  0.00     0.033 A 
HETATM    6  C   UNL     1     -22.444  -5.610  -6.396  1.00  0.00     0.033 A 
ENDROOT
BRANCH   4   7
HETATM    7  N   UNL     1     -21.124  -7.509  -3.476  1.00  0.00    -0.300 N 
HETATM    8  N   UNL     1     -21.486  -8.713  -3.447  1.00  0.00    -0.297 N 
ATOM      9  HN  UNL     1     -21.644  -9.296  -4.268  1.00  0.00     0.187 HD
ATOM     10  HN  UNL     1     -20.826  -7.005  -2.641  1.00  0.00     0.187 HD
BRANCH   8  11
HETATM   11  C   UNL     1     -21.644  -9.146  -2.094  1.00  0.00     0.092 C 
HETATM   12  C   UNL     1     -20.974  -8.474  -1.054  1.00  0.00     0.094 C 
HETATM   13  C   UNL     1     -21.101  -8.867   0.285  1.00  0.00     0.040 C 
HETATM   14  C   UNL     1     -22.032  -9.845   0.615  1.00  0.00     0.015 C 
HETATM   15  C   UNL     1     -22.722 -10.533  -0.393  1.00  0.00    -0.024 C 
HETATM   16  C   UNL     1     -23.662 -11.508  -0.059  1.00  0.00     0.012 C 
HETATM   17  C   UNL     1     -22.410 -10.297  -1.757  1.00  0.00     0.005 C 
HETATM   18  C   UNL     1     -23.963 -12.516  -0.966  1.00  0.00     0.001 C 
HETATM   19  C   UNL     1     -23.519 -12.412  -2.276  1.00  0.00     0.001 C 
HETATM   20  C   UNL     1     -22.852 -11.258  -2.688  1.00  0.00     0.014 C 
BRANCH  12  21
HETATM   21  O   UNL     1     -20.139  -7.423  -1.291  1.00  0.00    -0.358 OA
HETATM   22  H   UNL     1     -20.540  -6.909  -2.009  1.00  0.00     0.217 HD
ENDBRANCH  12  21
ENDBRANCH   8  11
ENDBRANCH   4   7
BRANCH   1  23
HETATM   23  N   UNL     1     -21.524  -4.824  -8.493  1.00  0.00    -0.300 N 
HETATM   24  N   UNL     1     -22.715  -4.711  -8.865  1.00  0.00    -0.300 N 
ATOM     25  HN  UNL     1     -23.505  -5.055  -8.318  1.00  0.00     0.187 HD
ATOM     26  HN  UNL     1     -20.739  -4.421  -9.004  1.00  0.00     0.187 HD
BRANCH  24  27
HETATM   27  C   UNL     1     -22.862  -4.059 -10.121  1.00  0.00     0.048 A 
HETATM   28  C   UNL     1     -24.103  -3.723 -10.687  1.00  0.00     0.031 A 
HETATM   29  C   UNL     1     -24.165  -3.033 -11.902  1.00  0.00     0.002 A 
HETATM   30  C   UNL     1     -23.006  -2.640 -12.563  1.00  0.00     0.000 A 
HETATM   31  C   UNL     1     -21.769  -2.974 -12.014  1.00  0.00     0.002 A 
HETATM   32  C   UNL     1     -21.705  -3.677 -10.805  1.00  0.00     0.031 A 
ENDBRANCH  24  27
ENDBRANCH   1  23
TORSDOF 5
ENDMDL
MODEL 5
REMARK VINA RESULT:      -8.6      1.089      1.757
REMARK  5 active torsions:
REMARK  status: ('A' for Active; 'I' for Inactive)
REMARK    1  A    between atoms: C_4  and  N_7 
REMARK    2  A    between atoms: N_9  and  C_11 
REMARK    3  A    between atoms: C_14  and  N_17 
REMARK    4  A    between atoms: N_19  and  C_21 
REMARK    5  A    between atoms: C_22  and  O_31 
ROOT
HETATM    1  C   UNL     1     -21.078  -5.543  -6.695  1.00  0.00     0.048 A 
HETATM    2  C   UNL     1     -20.699  -4.923  -5.501  1.00  0.00     0.033 A 
HETATM    3  C   UNL     1     -20.769  -5.601  -4.266  1.00  0.00     0.033 A 
HETATM    4  C   UNL     1     -21.217  -6.921  -4.174  1.00  0.00     0.048 A 
HETATM    5  C   UNL     1     -21.588  -7.545  -5.371  1.00  0.00     0.033 A 
HETATM    6  C   UNL     1     -21.529  -6.864  -6.605  1.00  0.00     0.033 A 
ENDROOT
BRANCH   4   7
HETATM    7  N   UNL     1     -21.351  -7.656  -2.970  1.00  0.00    -0.300 N 
HETATM    8  N   UNL     1     -20.267  -8.021  -2.447  1.00  0.00    -0.297 N 
ATOM      9  HN  UNL     1     -19.343  -7.701  -2.735  1.00  0.00     0.187 HD
ATOM     10  HN  UNL     1     -22.258  -7.873  -2.559  1.00  0.00     0.187 HD
BRANCH   8  11
HETATM   11  C   UNL     1     -20.518  -8.947  -1.388  1.00  0.00     0.092 C 
HETATM   12  C   UNL     1     -21.362  -8.587  -0.320  1.00  0.00     0.094 C 
HETATM   13  C   UNL     1     -21.634  -9.466   0.738  1.00  0.00     0.040 C 
HETATM   14  C   UNL     1     -21.187 -10.780   0.654  1.00  0.00     0.015 C 
HETATM   15  C   UNL     1     -20.349 -11.176  -0.397  1.00  0.00    -0.024 C 
HETATM   16  C   UNL     1     -19.909 -12.497  -0.483  1.00  0.00     0.012 C 
HETATM   17  C   UNL     1     -19.881 -10.218  -1.333  1.00  0.00     0.005 C 
HETATM   18  C   UNL     1     -18.734 -12.790  -1.161  1.00  0.00     0.001 C 
HETATM   19  C   UNL     1     -18.139 -11.817  -1.951  1.00  0.00     0.001 C 
HETATM   20  C   UNL     1     -18.773 -10.587  -2.123  1.00  0.00     0.014 C 
BRANCH  12  21
HETATM   21  O   UNL     1     -21.938  -7.355  -0.235  1.00  0.00    -0.358 OA
HETATM   22  H   UNL     1     -21.434  -6.774  -0.827  1.00  0.00     0.217 HD
ENDBRANCH  12  21
ENDBRANCH   8  11
ENDBRANCH   4   7
BRANCH   1  23
HETATM   23  N   UNL     1     -21.108  -4.902  -7.959  1.00  0.00    -0.300 N 
HETATM   24  N   UNL     1     -22.262  -4.594  -8.336  1.00  0.00    -0.300 N 
ATOM     25  HN  UNL     1     -23.092  -4.724  -7.757  1.00  0.00     0.187 HD
ATOM     26  HN  UNL     1     -20.270  -4.709  -8.509  1.00  0.00     0.187 HD
BRANCH  24  27
HETATM   27  C   UNL     1     -22.307  -4.046  -9.649  1.00  0.00     0.048 A 
HETATM   28  C   UNL     1     -21.206  -4.009 -10.520  1.00  0.00     0.031 A 
HETATM   29  C   UNL     1     -21.342  -3.503 -11.816  1.00  0.00     0.002 A 
HETATM   30  C   UNL     1     -22.572  -3.051 -12.284  1.00  0.00     0.000 A 
HETATM   31  C   UNL     1     -23.671  -3.077 -11.426  1.00  0.00     0.002 A 
HETATM   32  C   UNL     1     -23.533  -3.569 -10.123  1.00  0.00     0.031 A 
ENDBRANCH  24  27
ENDBRANCH   1  23
TORSDOF 5
ENDMDL
MODEL 6
REMARK VINA RESULT:      -8.5     16.429     19.029
REMARK  5 active torsions:
REMARK  status: ('A' for Active; 'I' for Inactive)
REMARK    1  A    between atoms: C_4  and  N_7 
REMARK    2  A    between atoms: N_9  and  C_11 
REMARK    3  A    between atoms: C_14  and  N_17 
REMARK    4  A    between atoms: N_19  and  C_21 
REMARK    5  A    between atoms: C_22  and  O_31 
ROOT
HETATM    1  C   UNL     1     -18.730   9.877   2.816  1.00  0.00     0.048 A 
HETATM    2  C   UNL     1     -19.209  10.920   2.018  1.00  0.00     0.033 A 
HETATM    3  C   UNL     1     -20.528  10.917   1.517  1.00  0.00     0.033 A 
HETATM    4  C   UNL     1     -21.418   9.876   1.794  1.00  0.00     0.048 A 
HETATM    5  C   UNL     1     -20.941   8.837   2.600  1.00  0.00     0.033 A 
HETATM    6  C   UNL     1     -19.619   8.833   3.092  1.00  0.00     0.033 A 
ENDROOT
BRANCH   4   7
HETATM    7  N   UNL     1     -22.743   9.782   1.298  1.00  0.00    -0.300 N 
HETATM    8  N   UNL     1     -23.358   8.734   1.622  1.00  0.00    -0.297 N 
ATOM      9  HN  UNL     1     -23.035   8.057   2.313  1.00  0.00     0.187 HD
ATOM     10  HN  UNL     1     -23.166  10.510   0.723  1.00  0.00     0.187 HD
BRANCH   8  11
HETATM   11  C   UNL     1     -24.575   8.629   0.882  1.00  0.00     0.092 C 
HETATM   12  C   UNL     1     -25.764   9.183   1.394  1.00  0.00     0.094 C 
HETATM   13  C   UNL     1     -26.979   9.101   0.700  1.00  0.00     0.040 C 
HETATM   14  C   UNL     1     -26.982   8.599  -0.597  1.00  0.00     0.015 C 
HETATM   15  C   UNL     1     -25.817   8.043  -1.143  1.00  0.00    -0.024 C 
HETATM   16  C   UNL     1     -25.820   7.549  -2.446  1.00  0.00     0.012 C 
HETATM   17  C   UNL     1     -24.651   7.910  -0.344  1.00  0.00     0.005 C 
HETATM   18  C   UNL     1     -24.900   6.577  -2.819  1.00  0.00     0.001 C 
HETATM   19  C   UNL     1     -23.837   6.284  -1.977  1.00  0.00     0.001 C 
HETATM   20  C   UNL     1     -23.655   7.028  -0.811  1.00  0.00     0.014 C 
BRANCH  12  21
HETATM   21  O   UNL     1     -25.811   9.802   2.607  1.00  0.00    -0.358 OA
HETATM   22  H   UNL     1     -25.131   9.382   3.157  1.00  0.00     0.217 HD
ENDBRANCH  12  21
ENDBRANCH   8  11
ENDBRANCH   4   7
BRANCH   1  23
HETATM   23  N   UNL     1     -17.397   9.775   3.289  1.00  0.00    -0.300 N 
HETATM   24  N   UNL     1     -17.294   9.127   4.356  1.00  0.00    -0.300 N 
ATOM     25  HN  UNL     1     -18.082   8.654   4.800  1.00  0.00     0.187 HD
ATOM     26  HN  UNL     1     -16.600  10.190   2.808  1.00  0.00     0.187 HD
BRANCH  24  27
HETATM   27  C   UNL     1     -15.975   9.111   4.890  1.00  0.00     0.048 A 
HETATM   28  C   UNL     1     -15.688   9.037   6.263  1.00  0.00     0.031 A 
HETATM   29  C   UNL     1     -14.364   8.971   6.708  1.00  0.00     0.002 A 
HETATM   30  C   UNL     1     -13.304   8.951   5.807  1.00  0.00     0.000 A 
HETATM   31  C   UNL     1     -13.578   9.031   4.442  1.00  0.00     0.002 A 
HETATM   32  C   UNL     1     -14.901   9.111   3.995  1.00  0.00     0.031 A 
ENDBRANCH  24  27
ENDBRANCH   1  23
TORSDOF 5
ENDMDL
MODEL 7
REMARK VINA RESULT:      -8.3     16.964     18.272
REMARK  5 active torsions:
REMARK  status: ('A' for Active; 'I' for Inactive)
REMARK    1  A    between atoms: C_4  and  N_7 
REMARK    2  A    between atoms: N_9  and  C_11 
REMARK    3  A    between atoms: C_14  and  N_17 
REMARK    4  A    between atoms: N_19  and  C_21 
REMARK    5  A    between atoms: C_22  and  O_31 
ROOT
HETATM    1  C   UNL     1     -23.471   9.490   2.411  1.00  0.00     0.048 A 
HETATM    2  C   UNL     1     -23.423   9.868   3.756  1.00  0.00     0.033 A 
HETATM    3  C   UNL     1     -22.228   9.781   4.502  1.00  0.00     0.033 A 
HETATM    4  C   UNL     1     -21.039   9.315   3.937  1.00  0.00     0.048 A 
HETATM    5  C   UNL     1     -21.085   8.944   2.589  1.00  0.00     0.033 A 
HETATM    6  C   UNL     1     -22.281   9.020   1.844  1.00  0.00     0.033 A 
ENDROOT
BRANCH   4   7
HETATM    7  N   UNL     1     -19.812   9.162   4.629  1.00  0.00    -0.300 N 
HETATM    8  N   UNL     1     -18.919   9.992   4.318  1.00  0.00    -0.297 N 
ATOM      9  HN  UNL     1     -19.068  10.822   3.744  1.00  0.00     0.187 HD
ATOM     10  HN  UNL     1     -19.663   8.434   5.327  1.00  0.00     0.187 HD
BRANCH   8  11
HETATM   11  C   UNL     1     -17.667   9.604   4.885  1.00  0.00     0.092 C 
HETATM   12  C   UNL     1     -17.437   9.759   6.265  1.00  0.00     0.094 C 
HETATM   13  C   UNL     1     -16.223   9.392   6.860  1.00  0.00     0.040 C 
HETATM   14  C   UNL     1     -15.277   8.713   6.099  1.00  0.00     0.015 C 
HETATM   15  C   UNL     1     -15.473   8.536   4.723  1.00  0.00    -0.024 C 
HETATM   16  C   UNL     1     -14.527   7.847   3.964  1.00  0.00     0.012 C 
HETATM   17  C   UNL     1     -16.594   9.124   4.082  1.00  0.00     0.005 C 
HETATM   18  C   UNL     1     -14.427   8.090   2.600  1.00  0.00     0.001 C 
HETATM   19  C   UNL     1     -15.417   8.822   1.961  1.00  0.00     0.001 C 
HETATM   20  C   UNL     1     -16.543   9.230   2.677  1.00  0.00     0.014 C 
BRANCH  12  21
HETATM   21  O   UNL     1     -18.369  10.303   7.098  1.00  0.00    -0.358 OA
HETATM   22  H   UNL     1     -18.386  11.255   6.907  1.00  0.00     0.217 HD
ENDBRANCH  12  21
ENDBRANCH   8  11
ENDBRANCH   4   7
BRANCH   1  23
HETATM   23  N   UNL     1     -24.648   9.478   1.622  1.00  0.00    -0.300 N 
HETATM   24  N   UNL     1     -24.757   8.458   0.902  1.00  0.00    -0.300 N 
ATOM     25  HN  UNL     1     -24.101   7.678   0.937  1.00  0.00     0.187 HD
ATOM     26  HN  UNL     1     -25.340  10.227   1.638  1.00  0.00     0.187 HD
BRANCH  24  27
HETATM   27  C   UNL     1     -25.882   8.491   0.032  1.00  0.00     0.048 A 
HETATM   28  C   UNL     1     -25.808   8.266  -1.353  1.00  0.00     0.031 A 
HETATM   29  C   UNL     1     -26.967   8.261  -2.135  1.00  0.00     0.002 A 
HETATM   30  C   UNL     1     -28.220   8.450  -1.561  1.00  0.00     0.000 A 
HETATM   31  C   UNL     1     -28.306   8.681  -0.188  1.00  0.00     0.002 A 
HETATM   32  C   UNL     1     -27.146   8.701   0.594  1.00  0.00     0.031 A 
ENDBRANCH  24  27
ENDBRANCH   1  23
TORSDOF 5
ENDMDL
MODEL 8
REMARK VINA RESULT:      -8.1      8.209     12.876
REMARK  5 active torsions:
REMARK  status: ('A' for Active; 'I' for Inactive)
REMARK    1  A    between atoms: C_4  and  N_7 
REMARK    2  A    between atoms: N_9  and  C_11 
REMARK    3  A    between atoms: C_14  and  N_17 
REMARK    4  A    between atoms: N_19  and  C_21 
REMARK    5  A    between atoms: C_22  and  O_31 
ROOT
HETATM    1  C   UNL     1     -14.733 -13.403   0.586  1.00  0.00     0.048 A 
HETATM    2  C   UNL     1     -15.069 -13.384  -0.771  1.00  0.00     0.033 A 
HETATM    3  C   UNL     1     -16.298 -12.854  -1.217  1.00  0.00     0.033 A 
HETATM    4  C   UNL     1     -17.237 -12.323  -0.329  1.00  0.00     0.048 A 
HETATM    5  C   UNL     1     -16.898 -12.335   1.028  1.00  0.00     0.033 A 
HETATM    6  C   UNL     1     -15.674 -12.875   1.477  1.00  0.00     0.033 A 
ENDROOT
BRANCH   4   7
HETATM    7  N   UNL     1     -18.506 -11.809  -0.695  1.00  0.00    -0.300 N 
HETATM    8  N   UNL     1     -19.402 -11.933   0.179  1.00  0.00    -0.297 N 
ATOM      9  HN  UNL     1     -19.240 -12.222   1.143  1.00  0.00     0.187 HD
ATOM     10  HN  UNL     1     -18.680 -11.371  -1.599  1.00  0.00     0.187 HD
BRANCH   8  11
HETATM   11  C   UNL     1     -20.678 -11.608  -0.374  1.00  0.00     0.092 C 
HETATM   12  C   UNL     1     -21.228 -12.405  -1.396  1.00  0.00     0.094 C 
HETATM   13  C   UNL     1     -22.477 -12.121  -1.967  1.00  0.00     0.040 C 
HETATM   14  C   UNL     1     -23.263 -11.121  -1.405  1.00  0.00     0.015 C 
HETATM   15  C   UNL     1     -22.751 -10.310  -0.383  1.00  0.00    -0.024 C 
HETATM   16  C   UNL     1     -23.544  -9.314   0.185  1.00  0.00     0.012 C 
HETATM   17  C   UNL     1     -21.398 -10.447   0.024  1.00  0.00     0.005 C 
HETATM   18  C   UNL     1     -22.946  -8.216   0.790  1.00  0.00     0.001 C 
HETATM   19  C   UNL     1     -21.583  -8.233   1.043  1.00  0.00     0.001 C 
HETATM   20  C   UNL     1     -20.845  -9.385   0.768  1.00  0.00     0.014 C 
BRANCH  12  21
HETATM   21  O   UNL     1     -20.567 -13.480  -1.913  1.00  0.00    -0.358 OA
HETATM   22  H   UNL     1     -20.192 -13.960  -1.158  1.00  0.00     0.217 HD
ENDBRANCH  12  21
ENDBRANCH   8  11
ENDBRANCH   4   7
BRANCH   1  23
HETATM   23  N   UNL     1     -13.554 -13.987   1.114  1.00  0.00    -0.300 N 
HETATM   24  N   UNL     1     -12.501 -13.457   0.689  1.00  0.00    -0.300 N 
ATOM     25  HN  UNL     1     -12.495 -12.637   0.082  1.00  0.00     0.187 HD
ATOM     26  HN  UNL     1     -13.562 -14.764   1.775  1.00  0.00     0.187 HD
BRANCH  24  27
HETATM   27  C   UNL     1     -11.316 -14.107   1.133  1.00  0.00     0.048 A 
HETATM   28  C   UNL     1     -11.245 -15.473   1.454  1.00  0.00     0.031 A 
HETATM   29  C   UNL     1     -10.029 -16.051   1.831  1.00  0.00     0.002 A 
HETATM   30  C   UNL     1      -8.859 -15.300   1.872  1.00  0.00     0.000 A 
HETATM   31  C   UNL     1      -8.919 -13.942   1.562  1.00  0.00     0.002 A 
HETATM   32  C   UNL     1     -10.137 -13.358   1.198  1.00  0.00     0.031 A 
ENDBRANCH  24  27
ENDBRANCH   1  23
TORSDOF 5
ENDMDL
MODEL 9
REMARK VINA RESULT:      -7.7      3.015      4.004
REMARK  5 active torsions:
REMARK  status: ('A' for Active; 'I' for Inactive)
REMARK    1  A    between atoms: C_4  and  N_7 
REMARK    2  A    between atoms: N_9  and  C_11 
REMARK    3  A    between atoms: C_14  and  N_17 
REMARK    4  A    between atoms: N_19  and  C_21 
REMARK    5  A    between atoms: C_22  and  O_31 
ROOT
HETATM    1  C   UNL     1     -20.626  -7.227  -5.862  1.00  0.00     0.048 A 
HETATM    2  C   UNL     1     -19.637  -8.102  -5.403  1.00  0.00     0.033 A 
HETATM    3  C   UNL     1     -19.855  -8.938  -4.288  1.00  0.00     0.033 A 
HETATM    4  C   UNL     1     -21.065  -8.935  -3.590  1.00  0.00     0.048 A 
HETATM    5  C   UNL     1     -22.058  -8.065  -4.055  1.00  0.00     0.033 A 
HETATM    6  C   UNL     1     -21.838  -7.220  -5.163  1.00  0.00     0.033 A 
ENDROOT
BRANCH   4   7
HETATM    7  N   UNL     1     -21.347  -9.716  -2.442  1.00  0.00    -0.300 N 
HETATM    8  N   UNL     1     -21.022 -10.928  -2.530  1.00  0.00    -0.297 N 
ATOM      9  HN  UNL     1     -20.455 -11.327  -3.277  1.00  0.00     0.187 HD
ATOM     10  HN  UNL     1     -21.780  -9.324  -1.606  1.00  0.00     0.187 HD
BRANCH   8  11
HETATM   11  C   UNL     1     -21.563 -11.663  -1.432  1.00  0.00     0.092 C 
HETATM   12  C   UNL     1     -21.195 -11.337  -0.112  1.00  0.00     0.094 C 
HETATM   13  C   UNL     1     -21.702 -12.034   0.993  1.00  0.00     0.040 C 
HETATM   14  C   UNL     1     -22.713 -12.968   0.795  1.00  0.00     0.015 C 
HETATM   15  C   UNL     1     -23.109 -13.316  -0.504  1.00  0.00    -0.024 C 
HETATM   16  C   UNL     1     -24.129 -14.246  -0.699  1.00  0.00     0.012 C 
HETATM   17  C   UNL     1     -22.421 -12.782  -1.625  1.00  0.00     0.005 C 
HETATM   18  C   UNL     1     -24.189 -14.965  -1.886  1.00  0.00     0.001 C 
HETATM   19  C   UNL     1     -23.394 -14.586  -2.957  1.00  0.00     0.001 C 
HETATM   20  C   UNL     1     -22.609 -13.436  -2.859  1.00  0.00     0.014 C 
BRANCH  12  21
HETATM   21  O   UNL     1     -20.301 -10.347   0.166  1.00  0.00    -0.358 OA
HETATM   22  H   UNL     1     -20.217 -10.315   1.133  1.00  0.00     0.217 HD
ENDBRANCH  12  21
ENDBRANCH   8  11
ENDBRANCH   4   7
BRANCH   1  23
HETATM   23  N   UNL     1     -20.453  -6.304  -6.925  1.00  0.00    -0.300 N 
HETATM   24  N   UNL     1     -21.529  -5.836  -7.362  1.00  0.00    -0.300 N 
ATOM     25  HN  UNL     1     -22.437  -6.041  -6.943  1.00  0.00     0.187 HD
ATOM     26  HN  UNL     1     -19.539  -6.047  -7.299  1.00  0.00     0.187 HD
BRANCH  24  27
HETATM   27  C   UNL     1     -21.367  -4.992  -8.496  1.00  0.00     0.048 A 
HETATM   28  C   UNL     1     -20.141  -4.785  -9.148  1.00  0.00     0.031 A 
HETATM   29  C   UNL     1     -20.071  -3.983 -10.291  1.00  0.00     0.002 A 
HETATM   30  C   UNL     1     -21.214  -3.395 -10.825  1.00  0.00     0.000 A 
HETATM   31  C   UNL     1     -22.436  -3.589 -10.183  1.00  0.00     0.002 A 
HETATM   32  C   UNL     1     -22.505  -4.380  -9.030  1.00  0.00     0.031 A 
ENDBRANCH  24  27
ENDBRANCH   1  23
TORSDOF 5
ENDMDL
