REMARK  6 active torsions:
REMARK  status: ('A' for Active; 'I' for Inactive)
REMARK       I    between atoms: C_2  and  N_4 
REMARK    1  A    between atoms: N_4  and  C_5 
REMARK    2  A    between atoms: C_9  and  O_10 
REMARK    3  A    between atoms: O_10  and  C_11 
REMARK    4  A    between atoms: C_13  and  N_14 
REMARK    5  A    between atoms: N_17  and  C_18 
REMARK    6  A    between atoms: C_18  and  C_20 
ROOT
HETATM    1  C   UNL     1       9.654   5.145  -3.610  1.00  0.00     0.152 A 
HETATM    2  C   UNL     1      10.704   4.657  -4.358  1.00  0.00     0.104 A 
HETATM    3  C   UNL     1      10.524   3.434  -4.982  1.00  0.00     0.108 A 
HETATM    4  N   UNL     1       9.374   2.755  -4.832  1.00  0.00    -0.339 N 
ATOM      5  HN  UNL     1       9.233   1.849  -5.279  1.00  0.00     0.168 HD
HETATM    6  C   UNL     1       8.418   3.311  -4.074  1.00  0.00     0.183 A 
HETATM    7  N   UNL     1       8.488   4.494  -3.461  1.00  0.00    -0.333 N 
ATOM      8  HN  UNL     1       7.713   4.876  -2.919  1.00  0.00     0.168 HD
ENDROOT
BRANCH   1   9
HETATM    9  O   UNL     1       9.827   6.400  -3.030  1.00  0.00    -0.291 OA
BRANCH   9  10
HETATM   10  C   UNL     1       9.080   6.711  -1.903  1.00  0.00     0.105 A 
HETATM   11  C   UNL     1       8.640   8.047  -1.697  1.00  0.00     0.085 A 
HETATM   12  N   UNL     1       8.849   9.160  -2.525  1.00  0.00    -0.333 N 
HETATM   13  C   UNL     1       7.925   8.330  -0.530  1.00  0.00     0.038 A 
HETATM   14  C   UNL     1       8.388  10.241  -1.937  1.00  0.00     0.152 C 
ATOM     15  HN  UNL     1       9.291   9.134  -3.444  1.00  0.00     0.168 HD
HETATM   16  S   UNL     1       7.518   9.993  -0.497  1.00  0.00    -0.052 SA
HETATM   17  C   UNL     1       7.629   7.358   0.438  1.00  0.00     0.021 A 
HETATM   18  C   UNL     1       8.116   6.071   0.248  1.00  0.00     0.004 A 
HETATM   19  C   UNL     1       8.851   5.758  -0.889  1.00  0.00     0.040 A 
BRANCH  14  20
HETATM   20  N   UNL     1       8.533  11.500  -2.474  1.00  0.00    -0.307 N 
HETATM   21  C   UNL     1       8.419  12.679  -1.768  1.00  0.00     0.219 C 
HETATM   22  C   UNL     1       8.595  13.900  -2.634  1.00  0.00     0.117 C 
HETATM   23  O   UNL     1       8.212  12.811  -0.564  1.00  0.00    -0.274 OA
HETATM   24  H   UNL     1       8.943  11.506  -3.397  1.00  0.00     0.171 HD
ENDBRANCH  14  20
ENDBRANCH   9  10
ENDBRANCH   1   9
BRANCH   3  25
HETATM   25  N   UNL     1      11.500   2.922  -5.821  1.00  0.00    -0.364 N 
HETATM   26  C   UNL     1      11.088   2.028  -6.915  1.00  0.00     0.154 C 
HETATM   27  C   UNL     1      11.682   0.614  -6.779  1.00  0.00     0.293 C 
HETATM   28  N   UNL     1      13.156   0.573  -6.569  1.00  0.00     0.100 N 
HETATM   29  C   UNL     1      13.393   1.356  -5.325  1.00  0.00     0.293 C 
HETATM   30  C   UNL     1      12.889   2.824  -5.351  1.00  0.00     0.154 C 
BRANCH  28  31
HETATM   31  C   UNL     1      13.924   1.095  -7.735  1.00  0.00     0.252 C 
HETATM   32  C   UNL     1      15.444   0.994  -7.504  1.00  0.00     0.048 C 
BRANCH  31  33
HETATM   33  C   UNL     1      13.575   0.396  -9.055  1.00  0.00    -0.025 A 
HETATM   34  C   UNL     1      13.023   1.142 -10.115  1.00  0.00     0.012 A 
HETATM   35  C   UNL     1      12.634   0.520 -11.303  1.00  0.00     0.043 A 
HETATM   36  C   UNL     1      12.810  -0.850 -11.448  1.00  0.00     0.116 A 
HETATM   37  F   UNL     1      12.419  -1.448 -12.580  1.00  0.00    -0.206 F 
HETATM   38  C   UNL     1      13.381  -1.604 -10.431  1.00  0.00     0.043 A 
HETATM   39  C   UNL     1      13.761  -0.985  -9.235  1.00  0.00     0.012 A 
ENDBRANCH  31  33
ENDBRANCH  28  31
ENDBRANCH   3  25
TORSDOF 6
