MODEL 1
REMARK VINA RESULT:      -9.4      0.000      0.000
REMARK  6 active torsions:
REMARK  status: ('A' for Active; 'I' for Inactive)
REMARK       I    between atoms: C_2  and  N_4 
REMARK    1  A    between atoms: N_4  and  C_5 
REMARK    2  A    between atoms: C_9  and  O_10 
REMARK    3  A    between atoms: O_10  and  C_11 
REMARK    4  A    between atoms: C_13  and  N_14 
REMARK    5  A    between atoms: N_17  and  C_18 
REMARK    6  A    between atoms: C_18  and  C_20 
ROOT
HETATM    1  C   UNL     1     -21.380  -8.394  -1.999  1.00  0.00     0.152 A 
HETATM    2  C   UNL     1     -21.259  -7.790  -3.232  1.00  0.00     0.104 A 
HETATM    3  C   UNL     1     -21.711  -6.486  -3.347  1.00  0.00     0.108 A 
HETATM    4  N   UNL     1     -22.264  -5.861  -2.293  1.00  0.00    -0.339 N 
ATOM      5  HN  UNL     1     -22.609  -4.904  -2.368  1.00  0.00     0.168 HD
HETATM    6  C   UNL     1     -22.346  -6.540  -1.140  1.00  0.00     0.183 A 
HETATM    7  N   UNL     1     -21.912  -7.784  -0.926  1.00  0.00    -0.333 N 
ATOM      8  HN  UNL     1     -21.978  -8.237  -0.015  1.00  0.00     0.168 HD
ENDROOT
BRANCH   1   9
HETATM    9  O   UNL     1     -20.875  -9.687  -1.881  1.00  0.00    -0.291 OA
BRANCH   9  10
HETATM   10  C   UNL     1     -21.771 -10.726  -1.673  1.00  0.00     0.105 A 
HETATM   11  C   UNL     1     -21.845 -11.791  -2.613  1.00  0.00     0.085 A 
HETATM   12  N   UNL     1     -21.086 -11.963  -3.780  1.00  0.00    -0.333 N 
HETATM   13  C   UNL     1     -22.788 -12.798  -2.391  1.00  0.00     0.038 A 
HETATM   14  C   UNL     1     -21.527 -13.009  -4.443  1.00  0.00     0.152 C 
ATOM     15  HN  UNL     1     -20.311 -11.367  -4.070  1.00  0.00     0.168 HD
HETATM   16  S   UNL     1     -22.699 -13.953  -3.652  1.00  0.00    -0.052 SA
HETATM   17  C   UNL     1     -23.658 -12.799  -1.290  1.00  0.00     0.021 A 
HETATM   18  C   UNL     1     -23.611 -11.722  -0.413  1.00  0.00     0.004 A 
HETATM   19  C   UNL     1     -22.703 -10.690  -0.615  1.00  0.00     0.040 A 
BRANCH  14  20
HETATM   20  N   UNL     1     -21.032 -13.372  -5.675  1.00  0.00    -0.307 N 
HETATM   21  C   UNL     1     -20.762 -12.499  -6.707  1.00  0.00     0.219 C 
HETATM   22  C   UNL     1     -20.262 -13.195  -7.947  1.00  0.00     0.117 C 
HETATM   23  O   UNL     1     -20.876 -11.276  -6.700  1.00  0.00    -0.274 OA
HETATM   24  H   UNL     1     -20.673 -14.316  -5.709  1.00  0.00     0.171 HD
ENDBRANCH  14  20
ENDBRANCH   9  10
ENDBRANCH   1   9
BRANCH   3  25
HETATM   25  N   UNL     1     -21.542  -5.785  -4.529  1.00  0.00    -0.364 N 
HETATM   26  C   UNL     1     -22.515  -5.992  -5.614  1.00  0.00     0.154 C 
HETATM   27  C   UNL     1     -21.872  -6.586  -6.880  1.00  0.00     0.293 C 
HETATM   28  N   UNL     1     -20.663  -5.864  -7.365  1.00  0.00     0.100 N 
HETATM   29  C   UNL     1     -19.703  -5.908  -6.227  1.00  0.00     0.293 C 
HETATM   30  C   UNL     1     -20.210  -5.286  -4.898  1.00  0.00     0.154 C 
BRANCH  28  31
HETATM   31  C   UNL     1     -20.958  -4.475  -7.818  1.00  0.00     0.252 C 
HETATM   32  C   UNL     1     -19.666  -3.675  -8.072  1.00  0.00     0.048 C 
BRANCH  31  33
HETATM   33  C   UNL     1     -21.831  -4.420  -9.078  1.00  0.00    -0.025 A 
HETATM   34  C   UNL     1     -21.230  -4.520 -10.349  1.00  0.00     0.012 A 
HETATM   35  C   UNL     1     -21.992  -4.406 -11.513  1.00  0.00     0.043 A 
HETATM   36  C   UNL     1     -23.363  -4.208 -11.418  1.00  0.00     0.116 A 
HETATM   37  F   UNL     1     -24.089  -4.079 -12.535  1.00  0.00    -0.206 F 
HETATM   38  C   UNL     1     -23.985  -4.137 -10.178  1.00  0.00     0.043 A 
HETATM   39  C   UNL     1     -23.223  -4.239  -9.009  1.00  0.00     0.012 A 
ENDBRANCH  31  33
ENDBRANCH  28  31
ENDBRANCH   3  25
TORSDOF 6
ENDMDL
MODEL 2
REMARK VINA RESULT:      -9.2      2.020      2.776
REMARK  6 active torsions:
REMARK  status: ('A' for Active; 'I' for Inactive)
REMARK       I    between atoms: C_2  and  N_4 
REMARK    1  A    between atoms: N_4  and  C_5 
REMARK    2  A    between atoms: C_9  and  O_10 
REMARK    3  A    between atoms: O_10  and  C_11 
REMARK    4  A    between atoms: C_13  and  N_14 
REMARK    5  A    between atoms: N_17  and  C_18 
REMARK    6  A    between atoms: C_18  and  C_20 
ROOT
HETATM    1  C   UNL     1     -20.891  -8.336  -2.198  1.00  0.00     0.152 A 
HETATM    2  C   UNL     1     -20.820  -7.692  -3.415  1.00  0.00     0.104 A 
HETATM    3  C   UNL     1     -21.482  -6.482  -3.533  1.00  0.00     0.108 A 
HETATM    4  N   UNL     1     -22.181  -5.984  -2.499  1.00  0.00    -0.339 N 
ATOM      5  HN  UNL     1     -22.681  -5.098  -2.576  1.00  0.00     0.168 HD
HETATM    6  C   UNL     1     -22.198  -6.693  -1.361  1.00  0.00     0.183 A 
HETATM    7  N   UNL     1     -21.568  -7.849  -1.144  1.00  0.00    -0.333 N 
ATOM      8  HN  UNL     1     -21.597  -8.327  -0.244  1.00  0.00     0.168 HD
ENDROOT
BRANCH   1   9
HETATM    9  O   UNL     1     -20.178  -9.526  -2.075  1.00  0.00    -0.291 OA
BRANCH   9  10
HETATM   10  C   UNL     1     -19.201  -9.807  -3.019  1.00  0.00     0.105 A 
HETATM   11  C   UNL     1     -19.519 -10.624  -4.139  1.00  0.00     0.085 A 
HETATM   12  N   UNL     1     -20.754 -11.209  -4.455  1.00  0.00    -0.333 N 
HETATM   13  C   UNL     1     -18.499 -10.919  -5.047  1.00  0.00     0.038 A 
HETATM   14  C   UNL     1     -20.619 -11.986  -5.506  1.00  0.00     0.152 C 
ATOM     15  HN  UNL     1     -21.625 -11.054  -3.947  1.00  0.00     0.168 HD
HETATM   16  S   UNL     1     -19.113 -11.921  -6.292  1.00  0.00    -0.052 SA
HETATM   17  C   UNL     1     -17.186 -10.447  -4.899  1.00  0.00     0.021 A 
HETATM   18  C   UNL     1     -16.880  -9.698  -3.769  1.00  0.00     0.004 A 
HETATM   19  C   UNL     1     -17.863  -9.405  -2.832  1.00  0.00     0.040 A 
BRANCH  14  20
HETATM   20  N   UNL     1     -21.645 -12.762  -5.996  1.00  0.00    -0.307 N 
HETATM   21  C   UNL     1     -22.549 -13.459  -5.221  1.00  0.00     0.219 C 
HETATM   22  C   UNL     1     -23.538 -14.247  -6.041  1.00  0.00     0.117 C 
HETATM   23  O   UNL     1     -22.620 -13.480  -3.995  1.00  0.00    -0.274 OA
HETATM   24  H   UNL     1     -21.831 -12.622  -6.979  1.00  0.00     0.171 HD
ENDBRANCH  14  20
ENDBRANCH   9  10
ENDBRANCH   1   9
BRANCH   3  25
HETATM   25  N   UNL     1     -21.382  -5.736  -4.696  1.00  0.00    -0.364 N 
HETATM   26  C   UNL     1     -22.472  -5.821  -5.681  1.00  0.00     0.154 C 
HETATM   27  C   UNL     1     -22.006  -6.394  -7.032  1.00  0.00     0.293 C 
HETATM   28  N   UNL     1     -20.802  -5.733  -7.608  1.00  0.00     0.100 N 
HETATM   29  C   UNL     1     -19.738  -5.899  -6.580  1.00  0.00     0.293 C 
HETATM   30  C   UNL     1     -20.061  -5.312  -5.180  1.00  0.00     0.154 C 
BRANCH  28  31
HETATM   31  C   UNL     1     -21.038  -4.306  -7.969  1.00  0.00     0.252 C 
HETATM   32  C   UNL     1     -19.729  -3.598  -8.368  1.00  0.00     0.048 C 
BRANCH  31  33
HETATM   33  C   UNL     1     -22.063  -4.126  -9.095  1.00  0.00    -0.025 A 
HETATM   34  C   UNL     1     -21.660  -4.275 -10.437  1.00  0.00     0.012 A 
HETATM   35  C   UNL     1     -22.556  -4.051 -11.484  1.00  0.00     0.043 A 
HETATM   36  C   UNL     1     -23.867  -3.693 -11.198  1.00  0.00     0.116 A 
HETATM   37  F   UNL     1     -24.720  -3.460 -12.204  1.00  0.00    -0.206 F 
HETATM   38  C   UNL     1     -24.299  -3.570  -9.884  1.00  0.00     0.043 A 
HETATM   39  C   UNL     1     -23.401  -3.783  -8.833  1.00  0.00     0.012 A 
ENDBRANCH  31  33
ENDBRANCH  28  31
ENDBRANCH   3  25
TORSDOF 6
ENDMDL
MODEL 3
REMARK VINA RESULT:      -9.2      1.829      1.967
REMARK  6 active torsions:
REMARK  status: ('A' for Active; 'I' for Inactive)
REMARK       I    between atoms: C_2  and  N_4 
REMARK    1  A    between atoms: N_4  and  C_5 
REMARK    2  A    between atoms: C_9  and  O_10 
REMARK    3  A    between atoms: O_10  and  C_11 
REMARK    4  A    between atoms: C_13  and  N_14 
REMARK    5  A    between atoms: N_17  and  C_18 
REMARK    6  A    between atoms: C_18  and  C_20 
ROOT
HETATM    1  C   UNL     1     -21.051  -8.232  -1.979  1.00  0.00     0.152 A 
HETATM    2  C   UNL     1     -20.956  -7.640  -3.220  1.00  0.00     0.104 A 
HETATM    3  C   UNL     1     -21.588  -6.419  -3.390  1.00  0.00     0.108 A 
HETATM    4  N   UNL     1     -22.280  -5.864  -2.381  1.00  0.00    -0.339 N 
ATOM      5  HN  UNL     1     -22.757  -4.970  -2.497  1.00  0.00     0.168 HD
HETATM    6  C   UNL     1     -22.321  -6.526  -1.216  1.00  0.00     0.183 A 
HETATM    7  N   UNL     1     -21.721  -7.688  -0.950  1.00  0.00    -0.333 N 
ATOM      8  HN  UNL     1     -21.767  -8.129  -0.032  1.00  0.00     0.168 HD
ENDROOT
BRANCH   1   9
HETATM    9  O   UNL     1     -20.368  -9.434  -1.804  1.00  0.00    -0.291 OA
BRANCH   9  10
HETATM   10  C   UNL     1     -20.920 -10.588  -2.342  1.00  0.00     0.105 A 
HETATM   11  C   UNL     1     -20.134 -11.416  -3.188  1.00  0.00     0.085 A 
HETATM   12  N   UNL     1     -18.795 -11.236  -3.568  1.00  0.00    -0.333 N 
HETATM   13  C   UNL     1     -20.737 -12.548  -3.744  1.00  0.00     0.038 A 
HETATM   14  C   UNL     1     -18.459 -12.150  -4.450  1.00  0.00     0.152 C 
ATOM     15  HN  UNL     1     -18.177 -10.506  -3.213  1.00  0.00     0.168 HD
HETATM   16  S   UNL     1     -19.607 -13.374  -4.730  1.00  0.00    -0.052 SA
HETATM   17  C   UNL     1     -22.076 -12.894  -3.504  1.00  0.00     0.021 A 
HETATM   18  C   UNL     1     -22.845 -12.042  -2.722  1.00  0.00     0.004 A 
HETATM   19  C   UNL     1     -22.286 -10.895  -2.171  1.00  0.00     0.040 A 
BRANCH  14  20
HETATM   20  N   UNL     1     -17.231 -12.170  -5.070  1.00  0.00    -0.307 N 
HETATM   21  C   UNL     1     -16.698 -11.131  -5.805  1.00  0.00     0.219 C 
HETATM   22  C   UNL     1     -15.349 -11.460  -6.392  1.00  0.00     0.117 C 
HETATM   23  O   UNL     1     -17.193 -10.024  -5.998  1.00  0.00    -0.274 OA
HETATM   24  H   UNL     1     -16.637 -12.932  -4.777  1.00  0.00     0.171 HD
ENDBRANCH  14  20
ENDBRANCH   9  10
ENDBRANCH   1   9
BRANCH   3  25
HETATM   25  N   UNL     1     -21.463  -5.722  -4.581  1.00  0.00    -0.364 N 
HETATM   26  C   UNL     1     -22.425  -5.997  -5.660  1.00  0.00     0.154 C 
HETATM   27  C   UNL     1     -21.752  -6.567  -6.922  1.00  0.00     0.293 C 
HETATM   28  N   UNL     1     -20.587  -5.781  -7.418  1.00  0.00     0.100 N 
HETATM   29  C   UNL     1     -19.624  -5.756  -6.283  1.00  0.00     0.293 C 
HETATM   30  C   UNL     1     -20.163  -5.151  -4.960  1.00  0.00     0.154 C 
BRANCH  28  31
HETATM   31  C   UNL     1     -20.964  -4.417  -7.886  1.00  0.00     0.252 C 
HETATM   32  C   UNL     1     -19.722  -3.532  -8.110  1.00  0.00     0.048 C 
BRANCH  31  33
HETATM   33  C   UNL     1     -21.806  -4.424  -9.168  1.00  0.00    -0.025 A 
HETATM   34  C   UNL     1     -21.166  -4.463 -10.423  1.00  0.00     0.012 A 
HETATM   35  C   UNL     1     -21.905  -4.403 -11.606  1.00  0.00     0.043 A 
HETATM   36  C   UNL     1     -23.290  -4.322 -11.545  1.00  0.00     0.116 A 
HETATM   37  F   UNL     1     -23.996  -4.245 -12.680  1.00  0.00    -0.206 F 
HETATM   38  C   UNL     1     -23.948  -4.314 -10.322  1.00  0.00     0.043 A 
HETATM   39  C   UNL     1     -23.209  -4.362  -9.134  1.00  0.00     0.012 A 
ENDBRANCH  31  33
ENDBRANCH  28  31
ENDBRANCH   3  25
TORSDOF 6
ENDMDL
MODEL 4
REMARK VINA RESULT:      -9.1      2.575      3.341
REMARK  6 active torsions:
REMARK  status: ('A' for Active; 'I' for Inactive)
REMARK       I    between atoms: C_2  and  N_4 
REMARK    1  A    between atoms: N_4  and  C_5 
REMARK    2  A    between atoms: C_9  and  O_10 
REMARK    3  A    between atoms: O_10  and  C_11 
REMARK    4  A    between atoms: C_13  and  N_14 
REMARK    5  A    between atoms: N_17  and  C_18 
REMARK    6  A    between atoms: C_18  and  C_20 
ROOT
HETATM    1  C   UNL     1     -20.917  -8.209  -2.066  1.00  0.00     0.152 A 
HETATM    2  C   UNL     1     -20.822  -7.593  -3.296  1.00  0.00     0.104 A 
HETATM    3  C   UNL     1     -21.538  -6.422  -3.475  1.00  0.00     0.108 A 
HETATM    4  N   UNL     1     -22.308  -5.935  -2.487  1.00  0.00    -0.339 N 
ATOM      5  HN  UNL     1     -22.848  -5.079  -2.610  1.00  0.00     0.168 HD
HETATM    6  C   UNL     1     -22.342  -6.617  -1.332  1.00  0.00     0.183 A 
HETATM    7  N   UNL     1     -21.664  -7.733  -1.057  1.00  0.00    -0.333 N 
ATOM      8  HN  UNL     1     -21.711  -8.190  -0.146  1.00  0.00     0.168 HD
ENDROOT
BRANCH   1   9
HETATM    9  O   UNL     1     -20.151  -9.358  -1.880  1.00  0.00    -0.291 OA
BRANCH   9  10
HETATM   10  C   UNL     1     -20.811 -10.561  -1.673  1.00  0.00     0.105 A 
HETATM   11  C   UNL     1     -20.169 -11.599  -0.944  1.00  0.00     0.085 A 
HETATM   12  N   UNL     1     -18.897 -11.578  -0.354  1.00  0.00    -0.333 N 
HETATM   13  C   UNL     1     -20.849 -12.811  -0.791  1.00  0.00     0.038 A 
HETATM   14  C   UNL     1     -18.614 -12.767   0.130  1.00  0.00     0.152 C 
ATOM     15  HN  UNL     1     -18.284 -10.764  -0.307  1.00  0.00     0.168 HD
HETATM   16  S   UNL     1     -19.879 -13.903   0.102  1.00  0.00    -0.052 SA
HETATM   17  C   UNL     1     -22.126 -13.041  -1.325  1.00  0.00     0.021 A 
HETATM   18  C   UNL     1     -22.714 -12.036  -2.083  1.00  0.00     0.004 A 
HETATM   19  C   UNL     1     -22.057 -10.827  -2.276  1.00  0.00     0.040 A 
BRANCH  14  20
HETATM   20  N   UNL     1     -17.395 -13.072   0.691  1.00  0.00    -0.307 N 
HETATM   21  C   UNL     1     -16.204 -12.450   0.381  1.00  0.00     0.219 C 
HETATM   22  C   UNL     1     -15.030 -13.023   1.132  1.00  0.00     0.117 C 
HETATM   23  O   UNL     1     -16.030 -11.516  -0.399  1.00  0.00    -0.274 OA
HETATM   24  H   UNL     1     -17.457 -13.652   1.515  1.00  0.00     0.171 HD
ENDBRANCH  14  20
ENDBRANCH   9  10
ENDBRANCH   1   9
BRANCH   3  25
HETATM   25  N   UNL     1     -21.423  -5.700  -4.651  1.00  0.00    -0.364 N 
HETATM   26  C   UNL     1     -22.460  -5.865  -5.682  1.00  0.00     0.154 C 
HETATM   27  C   UNL     1     -21.902  -6.445  -6.995  1.00  0.00     0.293 C 
HETATM   28  N   UNL     1     -20.708  -5.737  -7.534  1.00  0.00     0.100 N 
HETATM   29  C   UNL     1     -19.686  -5.822  -6.454  1.00  0.00     0.293 C 
HETATM   30  C   UNL     1     -20.104  -5.218  -5.086  1.00  0.00     0.154 C 
BRANCH  28  31
HETATM   31  C   UNL     1     -21.000  -4.333  -7.943  1.00  0.00     0.252 C 
HETATM   32  C   UNL     1     -19.709  -3.552  -8.253  1.00  0.00     0.048 C 
BRANCH  31  33
HETATM   33  C   UNL     1     -21.942  -4.235  -9.150  1.00  0.00    -0.025 A 
HETATM   34  C   UNL     1     -21.427  -4.401 -10.451  1.00  0.00     0.012 A 
HETATM   35  C   UNL     1     -22.248  -4.250 -11.570  1.00  0.00     0.043 A 
HETATM   36  C   UNL     1     -23.593  -3.951 -11.398  1.00  0.00     0.116 A 
HETATM   37  F   UNL     1     -24.375  -3.789 -12.473  1.00  0.00    -0.206 F 
HETATM   38  C   UNL     1     -24.133  -3.814 -10.126  1.00  0.00     0.043 A 
HETATM   39  C   UNL     1     -23.310  -3.953  -9.002  1.00  0.00     0.012 A 
ENDBRANCH  31  33
ENDBRANCH  28  31
ENDBRANCH   3  25
TORSDOF 6
ENDMDL
MODEL 5
REMARK VINA RESULT:      -9.0      2.557      2.731
REMARK  6 active torsions:
REMARK  status: ('A' for Active; 'I' for Inactive)
REMARK       I    between atoms: C_2  and  N_4 
REMARK    1  A    between atoms: N_4  and  C_5 
REMARK    2  A    between atoms: C_9  and  O_10 
REMARK    3  A    between atoms: O_10  and  C_11 
REMARK    4  A    between atoms: C_13  and  N_14 
REMARK    5  A    between atoms: N_17  and  C_18 
REMARK    6  A    between atoms: C_18  and  C_20 
ROOT
HETATM    1  C   UNL     1     -21.538  -8.640  -2.667  1.00  0.00     0.152 A 
HETATM    2  C   UNL     1     -21.450  -7.923  -3.841  1.00  0.00     0.104 A 
HETATM    3  C   UNL     1     -21.660  -6.557  -3.767  1.00  0.00     0.108 A 
HETATM    4  N   UNL     1     -21.960  -5.976  -2.593  1.00  0.00    -0.339 N 
ATOM      5  HN  UNL     1     -22.126  -4.971  -2.527  1.00  0.00     0.168 HD
HETATM    6  C   UNL     1     -22.033  -6.763  -1.510  1.00  0.00     0.183 A 
HETATM    7  N   UNL     1     -21.817  -8.079  -1.478  1.00  0.00    -0.333 N 
ATOM      8  HN  UNL     1     -21.861  -8.620  -0.614  1.00  0.00     0.168 HD
ENDROOT
BRANCH   1   9
HETATM    9  O   UNL     1     -21.273 -10.006  -2.745  1.00  0.00    -0.291 OA
BRANCH   9  10
HETATM   10  C   UNL     1     -20.466 -10.575  -1.770  1.00  0.00     0.105 A 
HETATM   11  C   UNL     1     -19.180 -11.069  -2.122  1.00  0.00     0.085 A 
HETATM   12  N   UNL     1     -18.565 -11.049  -3.382  1.00  0.00    -0.333 N 
HETATM   13  C   UNL     1     -18.412 -11.671  -1.121  1.00  0.00     0.038 A 
HETATM   14  C   UNL     1     -17.426 -11.703  -3.329  1.00  0.00     0.152 C 
ATOM     15  HN  UNL     1     -18.943 -10.595  -4.214  1.00  0.00     0.168 HD
HETATM   16  S   UNL     1     -16.922 -12.196  -1.782  1.00  0.00    -0.052 SA
HETATM   17  C   UNL     1     -18.857 -11.809   0.203  1.00  0.00     0.021 A 
HETATM   18  C   UNL     1     -20.138 -11.373   0.515  1.00  0.00     0.004 A 
HETATM   19  C   UNL     1     -20.939 -10.789  -0.459  1.00  0.00     0.040 A 
BRANCH  14  20
HETATM   20  N   UNL     1     -16.643 -11.925  -4.438  1.00  0.00    -0.307 N 
HETATM   21  C   UNL     1     -16.011 -10.943  -5.171  1.00  0.00     0.219 C 
HETATM   22  C   UNL     1     -15.251 -11.489  -6.352  1.00  0.00     0.117 C 
HETATM   23  O   UNL     1     -16.003  -9.734  -4.948  1.00  0.00    -0.274 OA
HETATM   24  H   UNL     1     -16.382 -12.892  -4.567  1.00  0.00     0.171 HD
ENDBRANCH  14  20
ENDBRANCH   9  10
ENDBRANCH   1   9
BRANCH   3  25
HETATM   25  N   UNL     1     -21.501  -5.759  -4.888  1.00  0.00    -0.364 N 
HETATM   26  C   UNL     1     -22.539  -5.798  -5.931  1.00  0.00     0.154 C 
HETATM   27  C   UNL     1     -22.002  -6.310  -7.281  1.00  0.00     0.293 C 
HETATM   28  N   UNL     1     -20.771  -5.625  -7.764  1.00  0.00     0.100 N 
HETATM   29  C   UNL     1     -19.761  -5.839  -6.691  1.00  0.00     0.293 C 
HETATM   30  C   UNL     1     -20.158  -5.314  -5.284  1.00  0.00     0.154 C 
BRANCH  28  31
HETATM   31  C   UNL     1     -20.991  -4.184  -8.072  1.00  0.00     0.252 C 
HETATM   32  C   UNL     1     -19.682  -3.489  -8.496  1.00  0.00     0.048 C 
BRANCH  31  33
HETATM   33  C   UNL     1     -22.051  -3.948  -9.154  1.00  0.00    -0.025 A 
HETATM   34  C   UNL     1     -21.677  -3.957 -10.512  1.00  0.00     0.012 A 
HETATM   35  C   UNL     1     -22.608  -3.680 -11.515  1.00  0.00     0.043 A 
HETATM   36  C   UNL     1     -23.925  -3.408 -11.170  1.00  0.00     0.116 A 
HETATM   37  F   UNL     1     -24.813  -3.123 -12.130  1.00  0.00    -0.206 F 
HETATM   38  C   UNL     1     -24.329  -3.424  -9.841  1.00  0.00     0.043 A 
HETATM   39  C   UNL     1     -23.395  -3.690  -8.833  1.00  0.00     0.012 A 
ENDBRANCH  31  33
ENDBRANCH  28  31
ENDBRANCH   3  25
TORSDOF 6
ENDMDL
MODEL 6
REMARK VINA RESULT:      -8.7      2.715      4.001
REMARK  6 active torsions:
REMARK  status: ('A' for Active; 'I' for Inactive)
REMARK       I    between atoms: C_2  and  N_4 
REMARK    1  A    between atoms: N_4  and  C_5 
REMARK    2  A    between atoms: C_9  and  O_10 
REMARK    3  A    between atoms: O_10  and  C_11 
REMARK    4  A    between atoms: C_13  and  N_14 
REMARK    5  A    between atoms: N_17  and  C_18 
REMARK    6  A    between atoms: C_18  and  C_20 
ROOT
HETATM    1  C   UNL     1     -20.411  -8.865  -3.174  1.00  0.00     0.152 A 
HETATM    2  C   UNL     1     -20.578  -8.057  -4.278  1.00  0.00     0.104 A 
HETATM    3  C   UNL     1     -21.013  -6.761  -4.056  1.00  0.00     0.108 A 
HETATM    4  N   UNL     1     -21.279  -6.336  -2.810  1.00  0.00    -0.339 N 
ATOM      5  HN  UNL     1     -21.609  -5.386  -2.635  1.00  0.00     0.168 HD
HETATM    6  C   UNL     1     -21.095  -7.203  -1.804  1.00  0.00     0.183 A 
HETATM    7  N   UNL     1     -20.652  -8.456  -1.917  1.00  0.00    -0.333 N 
ATOM      8  HN  UNL     1     -20.507  -9.060  -1.107  1.00  0.00     0.168 HD
ENDROOT
BRANCH   1   9
HETATM    9  O   UNL     1     -19.923 -10.150  -3.404  1.00  0.00    -0.291 OA
BRANCH   9  10
HETATM   10  C   UNL     1     -18.741 -10.524  -2.783  1.00  0.00     0.105 A 
HETATM   11  C   UNL     1     -18.773 -11.463  -1.716  1.00  0.00     0.085 A 
HETATM   12  N   UNL     1     -19.891 -12.118  -1.178  1.00  0.00    -0.333 N 
HETATM   13  C   UNL     1     -17.567 -11.784  -1.088  1.00  0.00     0.038 A 
HETATM   14  C   UNL     1     -19.529 -12.820  -0.128  1.00  0.00     0.152 C 
ATOM     15  HN  UNL     1     -20.840 -12.058  -1.547  1.00  0.00     0.168 HD
HETATM   16  S   UNL     1     -17.857 -12.915   0.165  1.00  0.00    -0.052 SA
HETATM   17  C   UNL     1     -16.337 -11.222  -1.464  1.00  0.00     0.021 A 
HETATM   18  C   UNL     1     -16.332 -10.264  -2.470  1.00  0.00     0.004 A 
HETATM   19  C   UNL     1     -17.516  -9.901  -3.101  1.00  0.00     0.040 A 
BRANCH  14  20
HETATM   20  N   UNL     1     -20.431 -13.500   0.659  1.00  0.00    -0.307 N 
HETATM   21  C   UNL     1     -21.672 -13.027   1.029  1.00  0.00     0.219 C 
HETATM   22  C   UNL     1     -22.420 -13.982   1.924  1.00  0.00     0.117 C 
HETATM   23  O   UNL     1     -22.194 -11.964   0.701  1.00  0.00    -0.274 OA
HETATM   24  H   UNL     1     -20.209 -14.477   0.784  1.00  0.00     0.171 HD
ENDBRANCH  14  20
ENDBRANCH   9  10
ENDBRANCH   1   9
BRANCH   3  25
HETATM   25  N   UNL     1     -21.119  -5.865  -5.107  1.00  0.00    -0.364 N 
HETATM   26  C   UNL     1     -22.287  -5.960  -5.997  1.00  0.00     0.154 C 
HETATM   27  C   UNL     1     -21.900  -6.291  -7.450  1.00  0.00     0.293 C 
HETATM   28  N   UNL     1     -20.844  -5.415  -8.030  1.00  0.00     0.100 N 
HETATM   29  C   UNL     1     -19.668  -5.575  -7.131  1.00  0.00     0.293 C 
HETATM   30  C   UNL     1     -19.911  -5.218  -5.640  1.00  0.00     0.154 C 
BRANCH  28  31
HETATM   31  C   UNL     1     -21.278  -3.995  -8.166  1.00  0.00     0.252 C 
HETATM   32  C   UNL     1     -20.082  -3.060  -8.428  1.00  0.00     0.048 C 
BRANCH  31  33
HETATM   33  C   UNL     1     -22.325  -3.782  -9.266  1.00  0.00    -0.025 A 
HETATM   34  C   UNL     1     -21.912  -3.641 -10.605  1.00  0.00     0.012 A 
HETATM   35  C   UNL     1     -22.838  -3.379 -11.617  1.00  0.00     0.043 A 
HETATM   36  C   UNL     1     -24.186  -3.274 -11.301  1.00  0.00     0.116 A 
HETATM   37  F   UNL     1     -25.070  -3.004 -12.270  1.00  0.00    -0.206 F 
HETATM   38  C   UNL     1     -24.624  -3.440  -9.994  1.00  0.00     0.043 A 
HETATM   39  C   UNL     1     -23.697  -3.691  -8.976  1.00  0.00     0.012 A 
ENDBRANCH  31  33
ENDBRANCH  28  31
ENDBRANCH   3  25
TORSDOF 6
ENDMDL
MODEL 7
REMARK VINA RESULT:      -8.5      2.807      3.390
REMARK  6 active torsions:
REMARK  status: ('A' for Active; 'I' for Inactive)
REMARK       I    between atoms: C_2  and  N_4 
REMARK    1  A    between atoms: N_4  and  C_5 
REMARK    2  A    between atoms: C_9  and  O_10 
REMARK    3  A    between atoms: O_10  and  C_11 
REMARK    4  A    between atoms: C_13  and  N_14 
REMARK    5  A    between atoms: N_17  and  C_18 
REMARK    6  A    between atoms: C_18  and  C_20 
ROOT
HETATM    1  C   UNL     1     -21.221  -9.277   0.278  1.00  0.00     0.152 A 
HETATM    2  C   UNL     1     -20.838  -8.883  -0.986  1.00  0.00     0.104 A 
HETATM    3  C   UNL     1     -21.498  -7.799  -1.540  1.00  0.00     0.108 A 
HETATM    4  N   UNL     1     -22.485  -7.185  -0.866  1.00  0.00    -0.339 N 
ATOM      5  HN  UNL     1     -22.985  -6.391  -1.268  1.00  0.00     0.168 HD
HETATM    6  C   UNL     1     -22.790  -7.652   0.353  1.00  0.00     0.183 A 
HETATM    7  N   UNL     1     -22.191  -8.666   0.980  1.00  0.00    -0.333 N 
ATOM      8  HN  UNL     1     -22.452  -8.958   1.922  1.00  0.00     0.168 HD
ENDROOT
BRANCH   1   9
HETATM    9  O   UNL     1     -20.515 -10.335   0.847  1.00  0.00    -0.291 OA
BRANCH   9  10
HETATM   10  C   UNL     1     -20.831 -11.625   0.446  1.00  0.00     0.105 A 
HETATM   11  C   UNL     1     -19.963 -12.319  -0.441  1.00  0.00     0.085 A 
HETATM   12  N   UNL     1     -18.754 -11.869  -0.990  1.00  0.00    -0.333 N 
HETATM   13  C   UNL     1     -20.336 -13.601  -0.854  1.00  0.00     0.038 A 
HETATM   14  C   UNL     1     -18.304 -12.752  -1.854  1.00  0.00     0.152 C 
ATOM     15  HN  UNL     1     -18.292 -10.990  -0.755  1.00  0.00     0.168 HD
HETATM   16  S   UNL     1     -19.151 -14.225  -1.922  1.00  0.00    -0.052 SA
HETATM   17  C   UNL     1     -21.521 -14.224  -0.434  1.00  0.00     0.021 A 
HETATM   18  C   UNL     1     -22.384 -13.509   0.387  1.00  0.00     0.004 A 
HETATM   19  C   UNL     1     -22.058 -12.222   0.799  1.00  0.00     0.040 A 
BRANCH  14  20
HETATM   20  N   UNL     1     -17.178 -12.541  -2.617  1.00  0.00    -0.307 N 
HETATM   21  C   UNL     1     -16.048 -11.875  -2.192  1.00  0.00     0.219 C 
HETATM   22  C   UNL     1     -14.992 -11.772  -3.262  1.00  0.00     0.117 C 
HETATM   23  O   UNL     1     -15.837 -11.398  -1.079  1.00  0.00    -0.274 OA
HETATM   24  H   UNL     1     -17.146 -13.097  -3.459  1.00  0.00     0.171 HD
ENDBRANCH  14  20
ENDBRANCH   9  10
ENDBRANCH   1   9
BRANCH   3  25
HETATM   25  N   UNL     1     -21.109  -7.291  -2.769  1.00  0.00    -0.364 N 
HETATM   26  C   UNL     1     -21.881  -6.180  -3.347  1.00  0.00     0.154 C 
HETATM   27  C   UNL     1     -22.549  -6.556  -4.682  1.00  0.00     0.293 C 
HETATM   28  N   UNL     1     -21.636  -7.165  -5.689  1.00  0.00     0.100 N 
HETATM   29  C   UNL     1     -21.083  -8.378  -5.027  1.00  0.00     0.293 C 
HETATM   30  C   UNL     1     -20.331  -8.130  -3.692  1.00  0.00     0.154 C 
BRANCH  28  31
HETATM   31  C   UNL     1     -20.575  -6.226  -6.154  1.00  0.00     0.252 C 
HETATM   32  C   UNL     1     -19.264  -6.968  -6.478  1.00  0.00     0.048 C 
BRANCH  31  33
HETATM   33  C   UNL     1     -20.991  -5.396  -7.375  1.00  0.00    -0.025 A 
HETATM   34  C   UNL     1     -20.081  -5.208  -8.434  1.00  0.00     0.012 A 
HETATM   35  C   UNL     1     -20.408  -4.402  -9.526  1.00  0.00     0.043 A 
HETATM   36  C   UNL     1     -21.654  -3.792  -9.577  1.00  0.00     0.116 A 
HETATM   37  F   UNL     1     -21.960  -3.004 -10.615  1.00  0.00    -0.206 F 
HETATM   38  C   UNL     1     -22.582  -3.985  -8.562  1.00  0.00     0.043 A 
HETATM   39  C   UNL     1     -22.252  -4.783  -7.461  1.00  0.00     0.012 A 
ENDBRANCH  31  33
ENDBRANCH  28  31
ENDBRANCH   3  25
TORSDOF 6
ENDMDL
MODEL 8
REMARK VINA RESULT:      -8.5      2.884      3.439
REMARK  6 active torsions:
REMARK  status: ('A' for Active; 'I' for Inactive)
REMARK       I    between atoms: C_2  and  N_4 
REMARK    1  A    between atoms: N_4  and  C_5 
REMARK    2  A    between atoms: C_9  and  O_10 
REMARK    3  A    between atoms: O_10  and  C_11 
REMARK    4  A    between atoms: C_13  and  N_14 
REMARK    5  A    between atoms: N_17  and  C_18 
REMARK    6  A    between atoms: C_18  and  C_20 
ROOT
HETATM    1  C   UNL     1     -20.454 -10.330  -0.978  1.00  0.00     0.152 A 
HETATM    2  C   UNL     1     -20.393  -9.623  -2.160  1.00  0.00     0.104 A 
HETATM    3  C   UNL     1     -20.834  -8.310  -2.137  1.00  0.00     0.108 A 
HETATM    4  N   UNL     1     -21.321  -7.774  -1.005  1.00  0.00    -0.339 N 
ATOM      5  HN  UNL     1     -21.657  -6.812  -0.978  1.00  0.00     0.168 HD
HETATM    6  C   UNL     1     -21.348  -8.550   0.089  1.00  0.00     0.183 A 
HETATM    7  N   UNL     1     -20.918  -9.810   0.171  1.00  0.00    -0.333 N 
ATOM      8  HN  UNL     1     -20.940 -10.340   1.042  1.00  0.00     0.168 HD
ENDROOT
BRANCH   1   9
HETATM    9  O   UNL     1     -19.958 -11.632  -1.001  1.00  0.00    -0.291 OA
BRANCH   9  10
HETATM   10  C   UNL     1     -18.583 -11.811  -1.041  1.00  0.00     0.105 A 
HETATM   11  C   UNL     1     -17.943 -12.064  -2.285  1.00  0.00     0.085 A 
HETATM   12  N   UNL     1     -18.532 -12.148  -3.555  1.00  0.00    -0.333 N 
HETATM   13  C   UNL     1     -16.562 -12.280  -2.280  1.00  0.00     0.038 A 
HETATM   14  C   UNL     1     -17.628 -12.510  -4.438  1.00  0.00     0.152 C 
ATOM     15  HN  UNL     1     -19.512 -11.957  -3.763  1.00  0.00     0.168 HD
HETATM   16  S   UNL     1     -16.024 -12.576  -3.879  1.00  0.00    -0.052 SA
HETATM   17  C   UNL     1     -15.791 -12.259  -1.108  1.00  0.00     0.021 A 
HETATM   18  C   UNL     1     -16.441 -12.067   0.104  1.00  0.00     0.004 A 
HETATM   19  C   UNL     1     -17.816 -11.872   0.141  1.00  0.00     0.040 A 
BRANCH  14  20
HETATM   20  N   UNL     1     -17.934 -12.760  -5.757  1.00  0.00    -0.307 N 
HETATM   21  C   UNL     1     -18.455 -11.835  -6.637  1.00  0.00     0.219 C 
HETATM   22  C   UNL     1     -18.718 -12.411  -8.005  1.00  0.00     0.117 C 
HETATM   23  O   UNL     1     -18.696 -10.650  -6.418  1.00  0.00    -0.274 OA
HETATM   24  H   UNL     1     -17.551 -13.626  -6.108  1.00  0.00     0.171 HD
ENDBRANCH  14  20
ENDBRANCH   9  10
ENDBRANCH   1   9
BRANCH   3  25
HETATM   25  N   UNL     1     -20.722  -7.511  -3.263  1.00  0.00    -0.364 N 
HETATM   26  C   UNL     1     -21.577  -6.318  -3.366  1.00  0.00     0.154 C 
HETATM   27  C   UNL     1     -22.541  -6.383  -4.565  1.00  0.00     0.293 C 
HETATM   28  N   UNL     1     -21.895  -6.703  -5.868  1.00  0.00     0.100 N 
HETATM   29  C   UNL     1     -21.236  -8.022  -5.662  1.00  0.00     0.293 C 
HETATM   30  C   UNL     1     -20.195  -8.078  -4.512  1.00  0.00     0.154 C 
BRANCH  28  31
HETATM   31  C   UNL     1     -20.945  -5.648  -6.322  1.00  0.00     0.252 C 
HETATM   32  C   UNL     1     -19.522  -6.208  -6.508  1.00  0.00     0.048 C 
BRANCH  31  33
HETATM   33  C   UNL     1     -21.380  -4.955  -7.619  1.00  0.00    -0.025 A 
HETATM   34  C   UNL     1     -20.460  -4.815  -8.677  1.00  0.00     0.012 A 
HETATM   35  C   UNL     1     -20.808  -4.131  -9.844  1.00  0.00     0.043 A 
HETATM   36  C   UNL     1     -22.083  -3.595  -9.969  1.00  0.00     0.116 A 
HETATM   37  F   UNL     1     -22.409  -2.923 -11.079  1.00  0.00    -0.206 F 
HETATM   38  C   UNL     1     -23.019  -3.746  -8.954  1.00  0.00     0.043 A 
HETATM   39  C   UNL     1     -22.670  -4.422  -7.780  1.00  0.00     0.012 A 
ENDBRANCH  31  33
ENDBRANCH  28  31
ENDBRANCH   3  25
TORSDOF 6
ENDMDL
MODEL 9
REMARK VINA RESULT:      -8.3     17.344     20.423
REMARK  6 active torsions:
REMARK  status: ('A' for Active; 'I' for Inactive)
REMARK       I    between atoms: C_2  and  N_4 
REMARK    1  A    between atoms: N_4  and  C_5 
REMARK    2  A    between atoms: C_9  and  O_10 
REMARK    3  A    between atoms: O_10  and  C_11 
REMARK    4  A    between atoms: C_13  and  N_14 
REMARK    5  A    between atoms: N_17  and  C_18 
REMARK    6  A    between atoms: C_18  and  C_20 
ROOT
HETATM    1  C   UNL     1     -23.292   9.390   0.804  1.00  0.00     0.152 A 
HETATM    2  C   UNL     1     -22.340   9.242   1.790  1.00  0.00     0.104 A 
HETATM    3  C   UNL     1     -21.508  10.321   2.036  1.00  0.00     0.108 A 
HETATM    4  N   UNL     1     -21.625  11.450   1.316  1.00  0.00    -0.339 N 
ATOM      5  HN  UNL     1     -21.012  12.249   1.482  1.00  0.00     0.168 HD
HETATM    6  C   UNL     1     -22.576  11.490   0.372  1.00  0.00     0.183 A 
HETATM    7  N   UNL     1     -23.441  10.515   0.084  1.00  0.00    -0.333 N 
ATOM      8  HN  UNL     1     -24.162  10.617  -0.630  1.00  0.00     0.168 HD
ENDROOT
BRANCH   1   9
HETATM    9  O   UNL     1     -24.157   8.317   0.601  1.00  0.00    -0.291 OA
BRANCH   9  10
HETATM   10  C   UNL     1     -25.522   8.551   0.676  1.00  0.00     0.105 A 
HETATM   11  C   UNL     1     -26.329   8.385  -0.483  1.00  0.00     0.085 A 
HETATM   12  N   UNL     1     -25.925   7.979  -1.764  1.00  0.00    -0.333 N 
HETATM   13  C   UNL     1     -27.694   8.670  -0.379  1.00  0.00     0.038 A 
HETATM   14  C   UNL     1     -26.940   8.058  -2.594  1.00  0.00     0.152 C 
ATOM     15  HN  UNL     1     -24.985   7.669  -2.012  1.00  0.00     0.168 HD
HETATM   16  S   UNL     1     -28.449   8.412  -1.894  1.00  0.00    -0.052 SA
HETATM   17  C   UNL     1     -28.292   9.110   0.811  1.00  0.00     0.021 A 
HETATM   18  C   UNL     1     -27.479   9.321   1.918  1.00  0.00     0.004 A 
HETATM   19  C   UNL     1     -26.114   9.072   1.845  1.00  0.00     0.040 A 
BRANCH  14  20
HETATM   20  N   UNL     1     -26.821   7.807  -3.942  1.00  0.00    -0.307 N 
HETATM   21  C   UNL     1     -26.022   6.830  -4.497  1.00  0.00     0.219 C 
HETATM   22  C   UNL     1     -26.073   6.817  -6.003  1.00  0.00     0.117 C 
HETATM   23  O   UNL     1     -25.325   6.010  -3.904  1.00  0.00    -0.274 OA
HETATM   24  H   UNL     1     -27.530   8.255  -4.505  1.00  0.00     0.171 HD
ENDBRANCH  14  20
ENDBRANCH   9  10
ENDBRANCH   1   9
BRANCH   3  25
HETATM   25  N   UNL     1     -20.587  10.278   3.070  1.00  0.00    -0.364 N 
HETATM   26  C   UNL     1     -19.155  10.347   2.738  1.00  0.00     0.154 C 
HETATM   27  C   UNL     1     -18.390   9.077   3.154  1.00  0.00     0.293 C 
HETATM   28  N   UNL     1     -18.601   8.655   4.567  1.00  0.00     0.100 N 
HETATM   29  C   UNL     1     -20.069   8.439   4.692  1.00  0.00     0.293 C 
HETATM   30  C   UNL     1     -20.958   9.666   4.353  1.00  0.00     0.154 C 
BRANCH  28  31
HETATM   31  C   UNL     1     -18.076   9.641   5.553  1.00  0.00     0.252 C 
HETATM   32  C   UNL     1     -18.743   9.474   6.932  1.00  0.00     0.048 C 
BRANCH  31  33
HETATM   33  C   UNL     1     -16.554   9.576   5.727  1.00  0.00    -0.025 A 
HETATM   34  C   UNL     1     -15.851   8.431   5.301  1.00  0.00     0.012 A 
HETATM   35  C   UNL     1     -14.475   8.317   5.507  1.00  0.00     0.043 A 
HETATM   36  C   UNL     1     -13.787   9.353   6.125  1.00  0.00     0.116 A 
HETATM   37  F   UNL     1     -12.471   9.234   6.339  1.00  0.00    -0.206 F 
HETATM   38  C   UNL     1     -14.449  10.506   6.526  1.00  0.00     0.043 A 
HETATM   39  C   UNL     1     -15.830  10.618   6.331  1.00  0.00     0.012 A 
ENDBRANCH  31  33
ENDBRANCH  28  31
ENDBRANCH   3  25
TORSDOF 6
ENDMDL
