REMARK  3 active torsions:
REMARK  status: ('A' for Active; 'I' for Inactive)
REMARK    1  A    between atoms: C_2  and  C_5 
REMARK    2  A    between atoms: C_13  and  N_14 
REMARK       I    between atoms: N_14  and  C_15 
REMARK       I    between atoms: C_15  and  N_17 
REMARK    3  A    between atoms: N_17  and  C_18 
ROOT
HETATM    1  N   UNL     1       5.924   0.570  -5.639  1.00  0.00    -0.334 N 
HETATM    2  C   UNL     1       6.362   0.476  -6.940  1.00  0.00     0.321 C 
HETATM    3  O   UNL     1       5.555   0.469  -7.865  1.00  0.00    -0.247 OA
HETATM    4  N   UNL     1       7.729   0.346  -7.058  1.00  0.00    -0.308 N 
HETATM    5  H   UNL     1       6.551   0.918  -4.926  1.00  0.00     0.165 HD
HETATM    6  H   UNL     1       8.214   0.112  -6.209  1.00  0.00     0.170 HD
ENDROOT
BRANCH   1   7
HETATM    7  C   UNL     1       4.493   0.699  -5.420  1.00  0.00     0.120 C 
HETATM    8  C   UNL     1       4.077   0.336  -4.029  1.00  0.00    -0.029 A 
HETATM    9  C   UNL     1       3.924  -0.928  -3.493  1.00  0.00     0.010 A 
HETATM   10  C   UNL     1       3.764   1.470  -3.280  1.00  0.00    -0.049 A 
HETATM   11  C   UNL     1       3.437  -1.044  -2.186  1.00  0.00     0.008 A 
HETATM   12  C   UNL     1       3.101   0.090  -1.405  1.00  0.00    -0.050 A 
HETATM   13  C   UNL     1       3.300   1.364  -1.977  1.00  0.00     0.015 A 
HETATM   14  C   UNL     1       3.995   2.715  -4.078  1.00  0.00     0.041 C 
HETATM   15  C   UNL     1       3.986   2.156  -5.509  1.00  0.00     0.035 C 
BRANCH  12  16
HETATM   16  C   UNL     1       2.568  -0.063   0.034  1.00  0.00    -0.024 C 
HETATM   17  C   UNL     1       3.769  -0.103   0.998  1.00  0.00     0.019 C 
HETATM   18  C   UNL     1       1.740  -1.355   0.225  1.00  0.00     0.019 C 
HETATM   19  C   UNL     1       1.646   1.107   0.452  1.00  0.00     0.019 C 
ENDBRANCH  12  16
ENDBRANCH   1   7
BRANCH   4  20
HETATM   20  C   UNL     1       8.437   0.196  -8.292  1.00  0.00     0.047 A 
HETATM   21  C   UNL     1       7.820   0.534  -9.510  1.00  0.00     0.030 A 
HETATM   22  C   UNL     1       8.445   0.328 -10.734  1.00  0.00     0.003 A 
HETATM   23  C   UNL     1       9.725  -0.202 -10.771  1.00  0.00     0.014 A 
HETATM   24  C   UNL     1      10.393  -0.513  -9.581  1.00  0.00    -0.008 A 
HETATM   25  C   UNL     1      11.687  -1.039  -9.620  1.00  0.00     0.100 A 
HETATM   26  C   UNL     1       9.773  -0.314  -8.318  1.00  0.00     0.004 A 
HETATM   27  N   UNL     1      12.414  -1.374  -8.537  1.00  0.00    -0.374 N 
HETATM   28  C   UNL     1      11.825  -1.178  -7.344  1.00  0.00     0.088 A 
ATOM     29  HN  UNL     1      13.357  -1.754  -8.617  1.00  0.00     0.164 HD
HETATM   30  C   UNL     1      10.544  -0.664  -7.183  1.00  0.00     0.031 A 
ENDBRANCH   4  20
TORSDOF 3
