MODEL 1
REMARK VINA RESULT:      -9.1      0.000      0.000
REMARK  3 active torsions:
REMARK  status: ('A' for Active; 'I' for Inactive)
REMARK    1  A    between atoms: C_2  and  C_5 
REMARK    2  A    between atoms: C_13  and  N_14 
REMARK       I    between atoms: N_14  and  C_15 
REMARK       I    between atoms: C_15  and  N_17 
REMARK    3  A    between atoms: N_17  and  C_18 
ROOT
HETATM    1  N   UNL     1     -21.223  -6.259  -4.860  1.00  0.00    -0.334 N 
HETATM    2  C   UNL     1     -21.319  -6.243  -6.233  1.00  0.00     0.321 C 
HETATM    3  O   UNL     1     -21.614  -7.266  -6.844  1.00  0.00    -0.247 OA
HETATM    4  N   UNL     1     -21.008  -5.025  -6.797  1.00  0.00    -0.308 N 
HETATM    5  H   UNL     1     -21.326  -5.396  -4.343  1.00  0.00     0.165 HD
HETATM    6  H   UNL     1     -20.542  -4.374  -6.188  1.00  0.00     0.170 HD
ENDROOT
BRANCH   1   7
HETATM    7  C   UNL     1     -21.523  -7.509  -4.181  1.00  0.00     0.120 C 
HETATM    8  C   UNL     1     -20.318  -8.375  -3.987  1.00  0.00    -0.029 A 
HETATM    9  C   UNL     1     -19.689  -9.174  -4.923  1.00  0.00     0.010 A 
HETATM   10  C   UNL     1     -19.891  -8.363  -2.660  1.00  0.00    -0.049 A 
HETATM   11  C   UNL     1     -18.622  -9.977  -4.506  1.00  0.00     0.008 A 
HETATM   12  C   UNL     1     -18.173  -9.993  -3.161  1.00  0.00    -0.050 A 
HETATM   13  C   UNL     1     -18.821  -9.141  -2.242  1.00  0.00     0.015 A 
HETATM   14  C   UNL     1     -20.734  -7.438  -1.838  1.00  0.00     0.041 C 
HETATM   15  C   UNL     1     -21.987  -7.318  -2.719  1.00  0.00     0.035 C 
BRANCH  12  16
HETATM   16  C   UNL     1     -16.994 -10.886  -2.726  1.00  0.00    -0.024 C 
HETATM   17  C   UNL     1     -15.746  -9.998  -2.555  1.00  0.00     0.019 C 
HETATM   18  C   UNL     1     -16.674 -11.992  -3.758  1.00  0.00     0.019 C 
HETATM   19  C   UNL     1     -17.263 -11.611  -1.386  1.00  0.00     0.019 C 
ENDBRANCH  12  16
ENDBRANCH   1   7
BRANCH   4  20
HETATM   20  C   UNL     1     -20.995  -4.748  -8.200  1.00  0.00     0.047 A 
HETATM   21  C   UNL     1     -19.808  -4.890  -8.941  1.00  0.00     0.030 A 
HETATM   22  C   UNL     1     -19.736  -4.555 -10.288  1.00  0.00     0.003 A 
HETATM   23  C   UNL     1     -20.866  -4.090 -10.941  1.00  0.00     0.014 A 
HETATM   24  C   UNL     1     -22.079  -3.974 -10.254  1.00  0.00    -0.008 A 
HETATM   25  C   UNL     1     -23.220  -3.514 -10.917  1.00  0.00     0.100 A 
HETATM   26  C   UNL     1     -22.176  -4.308  -8.876  1.00  0.00     0.004 A 
HETATM   27  N   UNL     1     -24.432  -3.363 -10.348  1.00  0.00    -0.374 N 
HETATM   28  C   UNL     1     -24.520  -3.686  -9.046  1.00  0.00     0.088 A 
ATOM     29  HN  UNL     1     -25.236  -3.024 -10.875  1.00  0.00     0.164 HD
HETATM   30  C   UNL     1     -23.454  -4.151  -8.285  1.00  0.00     0.031 A 
ENDBRANCH   4  20
TORSDOF 3
ENDMDL
MODEL 2
REMARK VINA RESULT:      -8.9      2.215      3.395
REMARK  3 active torsions:
REMARK  status: ('A' for Active; 'I' for Inactive)
REMARK    1  A    between atoms: C_2  and  C_5 
REMARK    2  A    between atoms: C_13  and  N_14 
REMARK       I    between atoms: N_14  and  C_15 
REMARK       I    between atoms: C_15  and  N_17 
REMARK    3  A    between atoms: N_17  and  C_18 
ROOT
HETATM    1  N   UNL     1     -20.825  -6.175  -5.192  1.00  0.00    -0.334 N 
HETATM    2  C   UNL     1     -20.633  -6.031  -6.547  1.00  0.00     0.321 C 
HETATM    3  O   UNL     1     -19.826  -6.743  -7.137  1.00  0.00    -0.247 OA
HETATM    4  N   UNL     1     -21.377  -5.015  -7.108  1.00  0.00    -0.308 N 
HETATM    5  H   UNL     1     -21.691  -5.862  -4.775  1.00  0.00     0.165 HD
HETATM    6  H   UNL     1     -21.785  -4.369  -6.455  1.00  0.00     0.170 HD
ENDROOT
BRANCH   1   7
HETATM    7  C   UNL     1     -20.071  -7.216  -4.515  1.00  0.00     0.120 C 
HETATM    8  C   UNL     1     -20.823  -7.843  -3.382  1.00  0.00    -0.029 A 
HETATM    9  C   UNL     1     -21.026  -7.332  -2.115  1.00  0.00     0.010 A 
HETATM   10  C   UNL     1     -21.277  -9.118  -3.718  1.00  0.00    -0.049 A 
HETATM   11  C   UNL     1     -21.689  -8.128  -1.173  1.00  0.00     0.008 A 
HETATM   12  C   UNL     1     -22.152  -9.431  -1.483  1.00  0.00    -0.050 A 
HETATM   13  C   UNL     1     -21.952  -9.905  -2.797  1.00  0.00     0.015 A 
HETATM   14  C   UNL     1     -20.925  -9.453  -5.134  1.00  0.00     0.041 C 
HETATM   15  C   UNL     1     -19.792  -8.450  -5.402  1.00  0.00     0.035 C 
BRANCH  12  16
HETATM   16  C   UNL     1     -22.881 -10.289  -0.429  1.00  0.00    -0.024 C 
HETATM   17  C   UNL     1     -23.678  -9.351   0.498  1.00  0.00     0.019 C 
HETATM   18  C   UNL     1     -21.906 -11.122   0.434  1.00  0.00     0.019 C 
HETATM   19  C   UNL     1     -23.867 -11.299  -1.065  1.00  0.00     0.019 C 
ENDBRANCH  12  16
ENDBRANCH   1   7
BRANCH   4  20
HETATM   20  C   UNL     1     -21.339  -4.633  -8.487  1.00  0.00     0.047 A 
HETATM   21  C   UNL     1     -20.120  -4.627  -9.188  1.00  0.00     0.030 A 
HETATM   22  C   UNL     1     -20.029  -4.187 -10.503  1.00  0.00     0.003 A 
HETATM   23  C   UNL     1     -21.170  -3.763 -11.166  1.00  0.00     0.014 A 
HETATM   24  C   UNL     1     -22.412  -3.793 -10.520  1.00  0.00    -0.008 A 
HETATM   25  C   UNL     1     -23.562  -3.373 -11.192  1.00  0.00     0.100 A 
HETATM   26  C   UNL     1     -22.528  -4.235  -9.174  1.00  0.00     0.004 A 
HETATM   27  N   UNL     1     -24.801  -3.359 -10.662  1.00  0.00    -0.374 N 
HETATM   28  C   UNL     1     -24.906  -3.785  -9.391  1.00  0.00     0.088 A 
ATOM     29  HN  UNL     1     -25.611  -3.044 -11.195  1.00  0.00     0.164 HD
HETATM   30  C   UNL     1     -23.833  -4.222  -8.625  1.00  0.00     0.031 A 
ENDBRANCH   4  20
TORSDOF 3
ENDMDL
MODEL 3
REMARK VINA RESULT:      -8.7      5.174     10.843
REMARK  3 active torsions:
REMARK  status: ('A' for Active; 'I' for Inactive)
REMARK    1  A    between atoms: C_2  and  C_5 
REMARK    2  A    between atoms: C_13  and  N_14 
REMARK       I    between atoms: N_14  and  C_15 
REMARK       I    between atoms: C_15  and  N_17 
REMARK    3  A    between atoms: N_17  and  C_18 
ROOT
HETATM    1  N   UNL     1     -21.742 -10.242  -0.862  1.00  0.00    -0.334 N 
HETATM    2  C   UNL     1     -21.614 -11.106   0.200  1.00  0.00     0.321 C 
HETATM    3  O   UNL     1     -20.830 -10.855   1.110  1.00  0.00    -0.247 OA
HETATM    4  N   UNL     1     -22.391 -12.240   0.091  1.00  0.00    -0.308 N 
HETATM    5  H   UNL     1     -22.591 -10.249  -1.412  1.00  0.00     0.165 HD
HETATM    6  H   UNL     1     -22.774 -12.413  -0.822  1.00  0.00     0.170 HD
ENDROOT
BRANCH   1   7
HETATM    7  C   UNL     1     -20.950  -9.024  -0.836  1.00  0.00     0.120 C 
HETATM    8  C   UNL     1     -20.852  -8.358  -2.173  1.00  0.00    -0.029 A 
HETATM    9  C   UNL     1     -20.051  -8.714  -3.240  1.00  0.00     0.010 A 
HETATM   10  C   UNL     1     -21.650  -7.215  -2.231  1.00  0.00    -0.049 A 
HETATM   11  C   UNL     1     -20.050  -7.895  -4.376  1.00  0.00     0.008 A 
HETATM   12  C   UNL     1     -20.842  -6.723  -4.459  1.00  0.00    -0.050 A 
HETATM   13  C   UNL     1     -21.669  -6.410  -3.360  1.00  0.00     0.015 A 
HETATM   14  C   UNL     1     -22.409  -7.032  -0.954  1.00  0.00     0.041 C 
HETATM   15  C   UNL     1     -21.583  -7.896   0.010  1.00  0.00     0.035 C 
BRANCH  12  16
HETATM   16  C   UNL     1     -20.825  -5.838  -5.721  1.00  0.00    -0.024 C 
HETATM   17  C   UNL     1     -20.108  -4.517  -5.383  1.00  0.00     0.019 C 
HETATM   18  C   UNL     1     -22.247  -5.509  -6.233  1.00  0.00     0.019 C 
HETATM   19  C   UNL     1     -20.084  -6.506  -6.904  1.00  0.00     0.019 C 
ENDBRANCH  12  16
ENDBRANCH   1   7
BRANCH   4  20
HETATM   20  C   UNL     1     -22.420 -13.311   1.039  1.00  0.00     0.047 A 
HETATM   21  C   UNL     1     -23.541 -13.495   1.868  1.00  0.00     0.030 A 
HETATM   22  C   UNL     1     -23.575 -14.474   2.854  1.00  0.00     0.003 A 
HETATM   23  C   UNL     1     -22.488 -15.318   3.022  1.00  0.00     0.014 A 
HETATM   24  C   UNL     1     -21.368 -15.197   2.191  1.00  0.00    -0.008 A 
HETATM   25  C   UNL     1     -20.277 -16.054   2.356  1.00  0.00     0.100 A 
HETATM   26  C   UNL     1     -21.310 -14.202   1.178  1.00  0.00     0.004 A 
HETATM   27  N   UNL     1     -19.154 -16.020   1.614  1.00  0.00    -0.374 N 
HETATM   28  C   UNL     1     -19.106 -15.081   0.653  1.00  0.00     0.088 A 
ATOM     29  HN  UNL     1     -18.383 -16.670   1.772  1.00  0.00     0.164 HD
HETATM   30  C   UNL     1     -20.128 -14.174   0.399  1.00  0.00     0.031 A 
ENDBRANCH   4  20
TORSDOF 3
ENDMDL
MODEL 4
REMARK VINA RESULT:      -8.6      1.967      3.392
REMARK  3 active torsions:
REMARK  status: ('A' for Active; 'I' for Inactive)
REMARK    1  A    between atoms: C_2  and  C_5 
REMARK    2  A    between atoms: C_13  and  N_14 
REMARK       I    between atoms: N_14  and  C_15 
REMARK       I    between atoms: C_15  and  N_17 
REMARK    3  A    between atoms: N_17  and  C_18 
ROOT
HETATM    1  N   UNL     1     -19.040  -8.065  -5.716  1.00  0.00    -0.334 N 
HETATM    2  C   UNL     1     -20.223  -7.478  -6.100  1.00  0.00     0.321 C 
HETATM    3  O   UNL     1     -21.292  -8.041  -5.882  1.00  0.00    -0.247 OA
HETATM    4  N   UNL     1     -20.060  -6.281  -6.765  1.00  0.00    -0.308 N 
HETATM    5  H   UNL     1     -18.221  -7.488  -5.572  1.00  0.00     0.165 HD
HETATM    6  H   UNL     1     -19.126  -6.091  -7.086  1.00  0.00     0.170 HD
ENDROOT
BRANCH   1   7
HETATM    7  C   UNL     1     -19.117  -9.337  -5.017  1.00  0.00     0.120 C 
HETATM    8  C   UNL     1     -17.935 -10.219  -5.271  1.00  0.00    -0.029 A 
HETATM    9  C   UNL     1     -17.675 -10.986  -6.390  1.00  0.00     0.010 A 
HETATM   10  C   UNL     1     -17.085 -10.260  -4.166  1.00  0.00    -0.049 A 
HETATM   11  C   UNL     1     -16.546 -11.813  -6.384  1.00  0.00     0.008 A 
HETATM   12  C   UNL     1     -15.670 -11.883  -5.272  1.00  0.00    -0.050 A 
HETATM   13  C   UNL     1     -15.953 -11.061  -4.161  1.00  0.00     0.015 A 
HETATM   14  C   UNL     1     -17.583  -9.361  -3.078  1.00  0.00     0.041 C 
HETATM   15  C   UNL     1     -19.057  -9.198  -3.479  1.00  0.00     0.035 C 
BRANCH  12  16
HETATM   16  C   UNL     1     -14.431 -12.800  -5.291  1.00  0.00    -0.024 C 
HETATM   17  C   UNL     1     -13.606 -12.531  -4.018  1.00  0.00     0.019 C 
HETATM   18  C   UNL     1     -13.529 -12.554  -6.523  1.00  0.00     0.019 C 
HETATM   19  C   UNL     1     -14.805 -14.301  -5.321  1.00  0.00     0.019 C 
ENDBRANCH  12  16
ENDBRANCH   1   7
BRANCH   4  20
HETATM   20  C   UNL     1     -21.122  -5.487  -7.300  1.00  0.00     0.047 A 
HETATM   21  C   UNL     1     -22.282  -5.249  -6.541  1.00  0.00     0.030 A 
HETATM   22  C   UNL     1     -23.368  -4.550  -7.055  1.00  0.00     0.003 A 
HETATM   23  C   UNL     1     -23.310  -4.043  -8.344  1.00  0.00     0.014 A 
HETATM   24  C   UNL     1     -22.159  -4.219  -9.119  1.00  0.00    -0.008 A 
HETATM   25  C   UNL     1     -22.099  -3.700 -10.415  1.00  0.00     0.100 A 
HETATM   26  C   UNL     1     -21.038  -4.933  -8.616  1.00  0.00     0.004 A 
HETATM   27  N   UNL     1     -21.043  -3.816 -11.243  1.00  0.00    -0.374 N 
HETATM   28  C   UNL     1     -19.983  -4.487 -10.760  1.00  0.00     0.088 A 
ATOM     29  HN  UNL     1     -21.047  -3.417 -12.181  1.00  0.00     0.164 HD
HETATM   30  C   UNL     1     -19.929  -5.048  -9.489  1.00  0.00     0.031 A 
ENDBRANCH   4  20
TORSDOF 3
ENDMDL
MODEL 5
REMARK VINA RESULT:      -8.6      5.716     10.254
REMARK  3 active torsions:
REMARK  status: ('A' for Active; 'I' for Inactive)
REMARK    1  A    between atoms: C_2  and  C_5 
REMARK    2  A    between atoms: C_13  and  N_14 
REMARK       I    between atoms: N_14  and  C_15 
REMARK       I    between atoms: C_15  and  N_17 
REMARK    3  A    between atoms: N_17  and  C_18 
ROOT
HETATM    1  N   UNL     1     -22.509 -10.046  -1.123  1.00  0.00    -0.334 N 
HETATM    2  C   UNL     1     -22.404 -11.158  -0.319  1.00  0.00     0.321 C 
HETATM    3  O   UNL     1     -21.397 -11.336   0.360  1.00  0.00    -0.247 OA
HETATM    4  N   UNL     1     -23.480 -12.013  -0.409  1.00  0.00    -0.308 N 
HETATM    5  H   UNL     1     -23.424  -9.716  -1.399  1.00  0.00     0.165 HD
HETATM    6  H   UNL     1     -24.092 -11.854  -1.191  1.00  0.00     0.170 HD
ENDROOT
BRANCH   1   7
HETATM    7  C   UNL     1     -21.412  -9.093  -1.099  1.00  0.00     0.120 C 
HETATM    8  C   UNL     1     -21.219  -8.387  -2.404  1.00  0.00    -0.029 A 
HETATM    9  C   UNL     1     -20.615  -8.872  -3.549  1.00  0.00     0.010 A 
HETATM   10  C   UNL     1     -21.672  -7.070  -2.341  1.00  0.00    -0.049 A 
HETATM   11  C   UNL     1     -20.460  -8.007  -4.638  1.00  0.00     0.008 A 
HETATM   12  C   UNL     1     -20.902  -6.661  -4.599  1.00  0.00    -0.050 A 
HETATM   13  C   UNL     1     -21.540  -6.213  -3.424  1.00  0.00     0.015 A 
HETATM   14  C   UNL     1     -22.270  -6.777  -1.001  1.00  0.00     0.041 C 
HETATM   15  C   UNL     1     -21.655  -7.898  -0.150  1.00  0.00     0.035 C 
BRANCH  12  16
HETATM   16  C   UNL     1     -20.721  -5.728  -5.814  1.00  0.00    -0.024 C 
HETATM   17  C   UNL     1     -22.113  -5.387  -6.379  1.00  0.00     0.019 C 
HETATM   18  C   UNL     1     -19.878  -6.374  -6.937  1.00  0.00     0.019 C 
HETATM   19  C   UNL     1     -20.008  -4.406  -5.444  1.00  0.00     0.019 C 
ENDBRANCH  12  16
ENDBRANCH   1   7
BRANCH   4  20
HETATM   20  C   UNL     1     -23.607 -13.253   0.293  1.00  0.00     0.047 A 
HETATM   21  C   UNL     1     -23.434 -13.300   1.688  1.00  0.00     0.030 A 
HETATM   22  C   UNL     1     -23.470 -14.496   2.395  1.00  0.00     0.003 A 
HETATM   23  C   UNL     1     -23.707 -15.684   1.722  1.00  0.00     0.014 A 
HETATM   24  C   UNL     1     -23.926 -15.679   0.340  1.00  0.00    -0.008 A 
HETATM   25  C   UNL     1     -24.174 -16.877  -0.335  1.00  0.00     0.100 A 
HETATM   26  C   UNL     1     -23.891 -14.469  -0.404  1.00  0.00     0.004 A 
HETATM   27  N   UNL     1     -24.394 -16.983  -1.660  1.00  0.00    -0.374 N 
HETATM   28  C   UNL     1     -24.366 -15.834  -2.358  1.00  0.00     0.088 A 
ATOM     29  HN  UNL     1     -24.572 -17.882  -2.107  1.00  0.00     0.164 HD
HETATM   30  C   UNL     1     -24.127 -14.586  -1.796  1.00  0.00     0.031 A 
ENDBRANCH   4  20
TORSDOF 3
ENDMDL
MODEL 6
REMARK VINA RESULT:      -8.5      5.606     10.232
REMARK  3 active torsions:
REMARK  status: ('A' for Active; 'I' for Inactive)
REMARK    1  A    between atoms: C_2  and  C_5 
REMARK    2  A    between atoms: C_13  and  N_14 
REMARK       I    between atoms: N_14  and  C_15 
REMARK       I    between atoms: C_15  and  N_17 
REMARK    3  A    between atoms: N_17  and  C_18 
ROOT
HETATM    1  N   UNL     1     -22.662  -9.987  -1.194  1.00  0.00    -0.334 N 
HETATM    2  C   UNL     1     -22.429 -11.335  -1.041  1.00  0.00     0.321 C 
HETATM    3  O   UNL     1     -21.281 -11.755  -0.929  1.00  0.00    -0.247 OA
HETATM    4  N   UNL     1     -23.572 -12.104  -1.082  1.00  0.00    -0.308 N 
HETATM    5  H   UNL     1     -23.564  -9.606  -0.943  1.00  0.00     0.165 HD
HETATM    6  H   UNL     1     -24.391 -11.640  -1.434  1.00  0.00     0.170 HD
ENDROOT
BRANCH   1   7
HETATM    7  C   UNL     1     -21.510  -9.100  -1.175  1.00  0.00     0.120 C 
HETATM    8  C   UNL     1     -21.300  -8.384  -2.472  1.00  0.00    -0.029 A 
HETATM    9  C   UNL     1     -20.746  -8.883  -3.635  1.00  0.00     0.010 A 
HETATM   10  C   UNL     1     -21.675  -7.044  -2.379  1.00  0.00    -0.049 A 
HETATM   11  C   UNL     1     -20.560  -8.010  -4.713  1.00  0.00     0.008 A 
HETATM   12  C   UNL     1     -20.922  -6.641  -4.644  1.00  0.00    -0.050 A 
HETATM   13  C   UNL     1     -21.512  -6.177  -3.449  1.00  0.00     0.015 A 
HETATM   14  C   UNL     1     -22.230  -6.740  -1.023  1.00  0.00     0.041 C 
HETATM   15  C   UNL     1     -21.666  -7.910  -0.202  1.00  0.00     0.035 C 
BRANCH  12  16
HETATM   16  C   UNL     1     -20.709  -5.698  -5.846  1.00  0.00    -0.024 C 
HETATM   17  C   UNL     1     -19.962  -4.443  -5.356  1.00  0.00     0.019 C 
HETATM   18  C   UNL     1     -22.041  -5.256  -6.495  1.00  0.00     0.019 C 
HETATM   19  C   UNL     1     -19.876  -6.354  -6.972  1.00  0.00     0.019 C 
ENDBRANCH  12  16
ENDBRANCH   1   7
BRANCH   4  20
HETATM   20  C   UNL     1     -23.606 -13.531  -0.983  1.00  0.00     0.047 A 
HETATM   21  C   UNL     1     -23.684 -14.321  -2.143  1.00  0.00     0.030 A 
HETATM   22  C   UNL     1     -23.799 -15.705  -2.086  1.00  0.00     0.003 A 
HETATM   23  C   UNL     1     -23.814 -16.342  -0.855  1.00  0.00     0.014 A 
HETATM   24  C   UNL     1     -23.696 -15.598   0.325  1.00  0.00    -0.008 A 
HETATM   25  C   UNL     1     -23.702 -16.243   1.564  1.00  0.00     0.100 A 
HETATM   26  C   UNL     1     -23.580 -14.182   0.290  1.00  0.00     0.004 A 
HETATM   27  N   UNL     1     -23.598 -15.622   2.755  1.00  0.00    -0.374 N 
HETATM   28  C   UNL     1     -23.483 -14.283   2.717  1.00  0.00     0.088 A 
ATOM     29  HN  UNL     1     -23.606 -16.138   3.634  1.00  0.00     0.164 HD
HETATM   30  C   UNL     1     -23.467 -13.536   1.545  1.00  0.00     0.031 A 
ENDBRANCH   4  20
TORSDOF 3
ENDMDL
MODEL 7
REMARK VINA RESULT:      -8.3      4.354      7.403
REMARK  3 active torsions:
REMARK  status: ('A' for Active; 'I' for Inactive)
REMARK    1  A    between atoms: C_2  and  C_5 
REMARK    2  A    between atoms: C_13  and  N_14 
REMARK       I    between atoms: N_14  and  C_15 
REMARK       I    between atoms: C_15  and  N_17 
REMARK    3  A    between atoms: N_17  and  C_18 
ROOT
HETATM    1  N   UNL     1     -17.307 -11.250  -2.487  1.00  0.00    -0.334 N 
HETATM    2  C   UNL     1     -17.782 -10.002  -2.819  1.00  0.00     0.321 C 
HETATM    3  O   UNL     1     -17.070  -9.011  -2.676  1.00  0.00    -0.247 OA
HETATM    4  N   UNL     1     -19.089 -10.002  -3.253  1.00  0.00    -0.308 N 
HETATM    5  H   UNL     1     -17.723 -12.069  -2.908  1.00  0.00     0.165 HD
HETATM    6  H   UNL     1     -19.604 -10.846  -3.069  1.00  0.00     0.170 HD
ENDROOT
BRANCH   1   7
HETATM    7  C   UNL     1     -15.938 -11.341  -2.007  1.00  0.00     0.120 C 
HETATM    8  C   UNL     1     -15.795 -12.218  -0.803  1.00  0.00    -0.029 A 
HETATM    9  C   UNL     1     -16.107 -11.915   0.508  1.00  0.00     0.010 A 
HETATM   10  C   UNL     1     -15.208 -13.440  -1.131  1.00  0.00    -0.049 A 
HETATM   11  C   UNL     1     -15.810 -12.857   1.499  1.00  0.00     0.008 A 
HETATM   12  C   UNL     1     -15.205 -14.103   1.197  1.00  0.00    -0.050 A 
HETATM   13  C   UNL     1     -14.929 -14.387  -0.157  1.00  0.00     0.015 A 
HETATM   14  C   UNL     1     -14.950 -13.528  -2.603  1.00  0.00     0.041 C 
HETATM   15  C   UNL     1     -14.984 -12.044  -2.999  1.00  0.00     0.035 C 
BRANCH  12  16
HETATM   16  C   UNL     1     -14.889 -15.126   2.307  1.00  0.00    -0.024 C 
HETATM   17  C   UNL     1     -15.276 -14.509   3.664  1.00  0.00     0.019 C 
HETATM   18  C   UNL     1     -13.391 -15.510   2.350  1.00  0.00     0.019 C 
HETATM   19  C   UNL     1     -15.670 -16.450   2.132  1.00  0.00     0.019 C 
ENDBRANCH  12  16
ENDBRANCH   1   7
BRANCH   4  20
HETATM   20  C   UNL     1     -19.832  -8.838  -3.627  1.00  0.00     0.047 A 
HETATM   21  C   UNL     1     -19.736  -8.323  -4.932  1.00  0.00     0.030 A 
HETATM   22  C   UNL     1     -20.379  -7.151  -5.311  1.00  0.00     0.003 A 
HETATM   23  C   UNL     1     -21.163  -6.470  -4.392  1.00  0.00     0.014 A 
HETATM   24  C   UNL     1     -21.321  -6.970  -3.094  1.00  0.00    -0.008 A 
HETATM   25  C   UNL     1     -22.118  -6.287  -2.172  1.00  0.00     0.100 A 
HETATM   26  C   UNL     1     -20.671  -8.165  -2.684  1.00  0.00     0.004 A 
HETATM   27  N   UNL     1     -22.333  -6.679  -0.902  1.00  0.00    -0.374 N 
HETATM   28  C   UNL     1     -21.721  -7.814  -0.520  1.00  0.00     0.088 A 
ATOM     29  HN  UNL     1     -22.926  -6.146  -0.266  1.00  0.00     0.164 HD
HETATM   30  C   UNL     1     -20.904  -8.574  -1.348  1.00  0.00     0.031 A 
ENDBRANCH   4  20
TORSDOF 3
ENDMDL
MODEL 8
REMARK VINA RESULT:      -8.2      4.882      7.800
REMARK  3 active torsions:
REMARK  status: ('A' for Active; 'I' for Inactive)
REMARK    1  A    between atoms: C_2  and  C_5 
REMARK    2  A    between atoms: C_13  and  N_14 
REMARK       I    between atoms: N_14  and  C_15 
REMARK       I    between atoms: C_15  and  N_17 
REMARK    3  A    between atoms: N_17  and  C_18 
ROOT
HETATM    1  N   UNL     1     -17.656 -10.705  -4.265  1.00  0.00    -0.334 N 
HETATM    2  C   UNL     1     -18.140 -10.083  -3.137  1.00  0.00     0.321 C 
HETATM    3  O   UNL     1     -17.367  -9.556  -2.342  1.00  0.00    -0.247 OA
HETATM    4  N   UNL     1     -19.508 -10.170  -2.998  1.00  0.00    -0.308 N 
HETATM    5  H   UNL     1     -18.261 -10.826  -5.066  1.00  0.00     0.165 HD
HETATM    6  H   UNL     1     -19.959 -10.847  -3.590  1.00  0.00     0.170 HD
ENDROOT
BRANCH   1   7
HETATM    7  C   UNL     1     -16.220 -10.672  -4.486  1.00  0.00     0.120 C 
HETATM    8  C   UNL     1     -15.595 -12.032  -4.483  1.00  0.00    -0.029 A 
HETATM    9  C   UNL     1     -15.288 -12.822  -3.392  1.00  0.00     0.010 A 
HETATM   10  C   UNL     1     -15.256 -12.438  -5.774  1.00  0.00    -0.049 A 
HETATM   11  C   UNL     1     -14.620 -14.032  -3.611  1.00  0.00     0.008 A 
HETATM   12  C   UNL     1     -14.254 -14.465  -4.910  1.00  0.00    -0.050 A 
HETATM   13  C   UNL     1     -14.612 -13.646  -6.001  1.00  0.00     0.015 A 
HETATM   14  C   UNL     1     -15.674 -11.413  -6.781  1.00  0.00     0.041 C 
HETATM   15  C   UNL     1     -15.825 -10.169  -5.893  1.00  0.00     0.035 C 
BRANCH  12  16
HETATM   16  C   UNL     1     -13.520 -15.804  -5.126  1.00  0.00    -0.024 C 
HETATM   17  C   UNL     1     -12.545 -16.022  -3.953  1.00  0.00     0.019 C 
HETATM   18  C   UNL     1     -12.716 -15.833  -6.447  1.00  0.00     0.019 C 
HETATM   19  C   UNL     1     -14.490 -17.009  -5.184  1.00  0.00     0.019 C 
ENDBRANCH  12  16
ENDBRANCH   1   7
BRANCH   4  20
HETATM   20  C   UNL     1     -20.259  -9.640  -1.901  1.00  0.00     0.047 A 
HETATM   21  C   UNL     1     -20.374 -10.367  -0.703  1.00  0.00     0.030 A 
HETATM   22  C   UNL     1     -21.158  -9.924   0.355  1.00  0.00     0.003 A 
HETATM   23  C   UNL     1     -21.833  -8.718   0.251  1.00  0.00     0.014 A 
HETATM   24  C   UNL     1     -21.713  -7.941  -0.907  1.00  0.00    -0.008 A 
HETATM   25  C   UNL     1     -22.387  -6.721  -1.007  1.00  0.00     0.100 A 
HETATM   26  C   UNL     1     -20.919  -8.376  -2.003  1.00  0.00     0.004 A 
HETATM   27  N   UNL     1     -22.341  -5.902  -2.075  1.00  0.00    -0.374 N 
HETATM   28  C   UNL     1     -21.583  -6.315  -3.106  1.00  0.00     0.088 A 
ATOM     29  HN  UNL     1     -22.851  -5.019  -2.099  1.00  0.00     0.164 HD
HETATM   30  C   UNL     1     -20.871  -7.508  -3.121  1.00  0.00     0.031 A 
ENDBRANCH   4  20
TORSDOF 3
ENDMDL
MODEL 9
REMARK VINA RESULT:      -8.2     18.007     20.377
REMARK  3 active torsions:
REMARK  status: ('A' for Active; 'I' for Inactive)
REMARK    1  A    between atoms: C_2  and  C_5 
REMARK    2  A    between atoms: C_13  and  N_14 
REMARK       I    between atoms: N_14  and  C_15 
REMARK       I    between atoms: C_15  and  N_17 
REMARK    3  A    between atoms: N_17  and  C_18 
ROOT
HETATM    1  N   UNL     1     -20.001   9.446   4.342  1.00  0.00    -0.334 N 
HETATM    2  C   UNL     1     -18.676   9.799   4.454  1.00  0.00     0.321 C 
HETATM    3  O   UNL     1     -18.314  10.939   4.180  1.00  0.00    -0.247 OA
HETATM    4  N   UNL     1     -17.855   8.760   4.837  1.00  0.00    -0.308 N 
HETATM    5  H   UNL     1     -20.355   8.662   4.873  1.00  0.00     0.165 HD
HETATM    6  H   UNL     1     -18.262   7.843   4.772  1.00  0.00     0.170 HD
ENDROOT
BRANCH   1   7
HETATM    7  C   UNL     1     -20.938  10.478   3.931  1.00  0.00     0.120 C 
HETATM    8  C   UNL     1     -21.893  10.017   2.875  1.00  0.00    -0.029 A 
HETATM    9  C   UNL     1     -21.653   9.866   1.523  1.00  0.00     0.010 A 
HETATM   10  C   UNL     1     -23.167   9.804   3.401  1.00  0.00    -0.049 A 
HETATM   11  C   UNL     1     -22.720   9.505   0.692  1.00  0.00     0.008 A 
HETATM   12  C   UNL     1     -24.027   9.291   1.197  1.00  0.00    -0.050 A 
HETATM   13  C   UNL     1     -24.225   9.426   2.587  1.00  0.00     0.015 A 
HETATM   14  C   UNL     1     -23.181  10.045   4.878  1.00  0.00     0.041 C 
HETATM   15  C   UNL     1     -21.916  10.901   5.050  1.00  0.00     0.035 C 
BRANCH  12  16
HETATM   16  C   UNL     1     -25.186   8.892   0.261  1.00  0.00    -0.024 C 
HETATM   17  C   UNL     1     -26.450   8.676   1.115  1.00  0.00     0.019 C 
HETATM   18  C   UNL     1     -24.894   7.592  -0.523  1.00  0.00     0.019 C 
HETATM   19  C   UNL     1     -25.493   9.976  -0.799  1.00  0.00     0.019 C 
ENDBRANCH  12  16
ENDBRANCH   1   7
BRANCH   4  20
HETATM   20  C   UNL     1     -16.436   8.849   4.995  1.00  0.00     0.047 A 
HETATM   21  C   UNL     1     -15.862   8.848   6.279  1.00  0.00     0.030 A 
HETATM   22  C   UNL     1     -14.496   9.012   6.476  1.00  0.00     0.003 A 
HETATM   23  C   UNL     1     -13.658   9.157   5.382  1.00  0.00     0.014 A 
HETATM   24  C   UNL     1     -14.180   9.122   4.084  1.00  0.00    -0.008 A 
HETATM   25  C   UNL     1     -13.332   9.259   2.982  1.00  0.00     0.100 A 
HETATM   26  C   UNL     1     -15.574   8.958   3.859  1.00  0.00     0.004 A 
HETATM   27  N   UNL     1     -13.732   9.242   1.697  1.00  0.00    -0.374 N 
HETATM   28  C   UNL     1     -15.051   9.081   1.488  1.00  0.00     0.088 A 
ATOM     29  HN  UNL     1     -13.073   9.346   0.925  1.00  0.00     0.164 HD
HETATM   30  C   UNL     1     -15.988   8.936   2.505  1.00  0.00     0.031 A 
ENDBRANCH   4  20
TORSDOF 3
ENDMDL
