REMARK  3 active torsions:
REMARK  status: ('A' for Active; 'I' for Inactive)
REMARK    1  A    between atoms: C_2  and  C_3 
REMARK       I    between atoms: C_2  and  N_16 
REMARK    2  A    between atoms: C_4  and  C_5 
REMARK    3  A    between atoms: C_6  and  C_7 
ROOT
HETATM    1  C   UNL     1       3.012  -3.644  -0.992  1.00  0.00     0.001 C 
HETATM    2  C   UNL     1       2.421  -4.827  -1.223  1.00  0.00     0.011 C 
ENDROOT
BRANCH   1   3
HETATM    3  C   UNL     1       2.287  -2.432  -0.676  1.00  0.00     0.005 C 
HETATM    4  C   UNL     1       2.927  -1.286  -0.407  1.00  0.00     0.074 C 
BRANCH   4   5
HETATM    5  C   UNL     1       2.178  -0.120   0.106  1.00  0.00     0.243 C 
HETATM    6  O   UNL     1       1.407   0.488  -0.628  1.00  0.00    -0.268 OA
HETATM    7  N   UNL     1       2.442   0.214   1.430  1.00  0.00    -0.349 N 
HETATM    8  C   UNL     1       3.352  -0.522   2.313  1.00  0.00     0.126 C 
HETATM    9  C   UNL     1       1.940   1.476   1.960  1.00  0.00     0.126 C 
HETATM   10  C   UNL     1       2.723  -0.756   3.682  1.00  0.00     0.020 C 
HETATM   11  C   UNL     1       2.226   0.548   4.297  1.00  0.00     0.003 C 
HETATM   12  C   UNL     1       1.302   1.295   3.336  1.00  0.00     0.020 C 
ENDBRANCH   4   5
ENDBRANCH   1   3
BRANCH   2  13
HETATM   13  C   UNL     1       3.163  -6.077  -1.472  1.00  0.00    -0.033 A 
HETATM   14  C   UNL     1       4.414  -6.337  -0.863  1.00  0.00     0.014 A 
HETATM   15  C   UNL     1       5.101  -7.535  -1.094  1.00  0.00     0.040 A 
HETATM   16  C   UNL     1       4.512  -8.458  -1.924  1.00  0.00     0.105 A 
HETATM   17  C   UNL     1       3.286  -8.231  -2.501  1.00  0.00     0.105 A 
HETATM   18  O   UNL     1       5.034  -9.667  -2.265  1.00  0.00    -0.323 OA
HETATM   19  C   UNL     1       2.584  -7.060  -2.289  1.00  0.00     0.051 A 
HETATM   20  O   UNL     1       2.880  -9.273  -3.277  1.00  0.00    -0.323 OA
HETATM   21  C   UNL     1       4.015 -10.156  -3.161  1.00  0.00     0.352 A 
ENDBRANCH   2  13
TORSDOF 3
