MODEL 1
REMARK VINA RESULT:      -9.5      0.000      0.000
REMARK  3 active torsions:
REMARK  status: ('A' for Active; 'I' for Inactive)
REMARK    1  A    between atoms: C_2  and  C_3 
REMARK       I    between atoms: C_2  and  N_16 
REMARK    2  A    between atoms: C_4  and  C_5 
REMARK    3  A    between atoms: C_6  and  C_7 
ROOT
HETATM    1  C   UNL     1     -21.046  -5.015  -6.775  1.00  0.00     0.001 C 
HETATM    2  C   UNL     1     -22.162  -4.485  -7.300  1.00  0.00     0.011 C 
ENDROOT
BRANCH   1   3
HETATM    3  C   UNL     1     -20.928  -5.434  -5.394  1.00  0.00     0.005 C 
HETATM    4  C   UNL     1     -21.730  -6.376  -4.880  1.00  0.00     0.074 C 
BRANCH   4   5
HETATM    5  C   UNL     1     -21.725  -6.642  -3.426  1.00  0.00     0.243 C 
HETATM    6  O   UNL     1     -21.885  -5.722  -2.632  1.00  0.00    -0.268 OA
HETATM    7  N   UNL     1     -21.508  -7.969  -3.070  1.00  0.00    -0.349 N 
HETATM    8  C   UNL     1     -21.332  -9.072  -4.020  1.00  0.00     0.126 C 
HETATM    9  C   UNL     1     -21.253  -8.299  -1.674  1.00  0.00     0.126 C 
HETATM   10  C   UNL     1     -22.167 -10.283  -3.620  1.00  0.00     0.020 C 
HETATM   11  C   UNL     1     -21.895 -10.694  -2.177  1.00  0.00     0.003 C 
HETATM   12  C   UNL     1     -22.065  -9.512  -1.224  1.00  0.00     0.020 C 
ENDBRANCH   4   5
ENDBRANCH   1   3
BRANCH   2  13
HETATM   13  C   UNL     1     -22.306  -4.128  -8.723  1.00  0.00    -0.033 A 
HETATM   14  C   UNL     1     -21.202  -4.129  -9.609  1.00  0.00     0.014 A 
HETATM   15  C   UNL     1     -21.354  -3.804 -10.963  1.00  0.00     0.040 A 
HETATM   16  C   UNL     1     -22.617  -3.495 -11.406  1.00  0.00     0.105 A 
HETATM   17  C   UNL     1     -23.703  -3.516 -10.564  1.00  0.00     0.105 A 
HETATM   18  O   UNL     1     -22.950  -3.152 -12.679  1.00  0.00    -0.323 OA
HETATM   19  C   UNL     1     -23.583  -3.836  -9.225  1.00  0.00     0.051 A 
HETATM   20  O   UNL     1     -24.859  -3.191 -11.205  1.00  0.00    -0.323 OA
HETATM   21  C   UNL     1     -24.365  -2.913 -12.532  1.00  0.00     0.352 A 
ENDBRANCH   2  13
TORSDOF 3
ENDMDL
MODEL 2
REMARK VINA RESULT:      -9.2      2.718      8.962
REMARK  3 active torsions:
REMARK  status: ('A' for Active; 'I' for Inactive)
REMARK    1  A    between atoms: C_2  and  C_3 
REMARK       I    between atoms: C_2  and  N_16 
REMARK    2  A    between atoms: C_4  and  C_5 
REMARK    3  A    between atoms: C_6  and  C_7 
ROOT
HETATM    1  C   UNL     1     -20.075  -5.265  -6.226  1.00  0.00     0.001 C 
HETATM    2  C   UNL     1     -20.726  -6.405  -5.947  1.00  0.00     0.011 C 
ENDROOT
BRANCH   1   3
HETATM    3  C   UNL     1     -20.017  -4.675  -7.546  1.00  0.00     0.005 C 
HETATM    4  C   UNL     1     -20.963  -4.921  -8.462  1.00  0.00     0.074 C 
BRANCH   4   5
HETATM    5  C   UNL     1     -20.780  -4.472  -9.858  1.00  0.00     0.243 C 
HETATM    6  O   UNL     1     -19.734  -4.713 -10.450  1.00  0.00    -0.268 OA
HETATM    7  N   UNL     1     -21.849  -3.763 -10.395  1.00  0.00    -0.349 N 
HETATM    8  C   UNL     1     -23.106  -3.487  -9.693  1.00  0.00     0.126 C 
HETATM    9  C   UNL     1     -21.681  -3.077 -11.670  1.00  0.00     0.126 C 
HETATM   10  C   UNL     1     -24.310  -3.766 -10.586  1.00  0.00     0.020 C 
HETATM   11  C   UNL     1     -24.199  -3.029 -11.917  1.00  0.00     0.003 C 
HETATM   12  C   UNL     1     -22.866  -3.323 -12.603  1.00  0.00     0.020 C 
ENDBRANCH   4   5
ENDBRANCH   1   3
BRANCH   2  13
HETATM   13  C   UNL     1     -20.847  -6.967  -4.589  1.00  0.00    -0.033 A 
HETATM   14  C   UNL     1     -20.112  -8.107  -4.184  1.00  0.00     0.014 A 
HETATM   15  C   UNL     1     -20.222  -8.621  -2.886  1.00  0.00     0.040 A 
HETATM   16  C   UNL     1     -21.061  -7.972  -2.013  1.00  0.00     0.105 A 
HETATM   17  C   UNL     1     -21.761  -6.850  -2.384  1.00  0.00     0.105 A 
HETATM   18  O   UNL     1     -21.296  -8.332  -0.722  1.00  0.00    -0.323 OA
HETATM   19  C   UNL     1     -21.670  -6.318  -3.656  1.00  0.00     0.051 A 
HETATM   20  O   UNL     1     -22.524  -6.359  -1.369  1.00  0.00    -0.323 OA
HETATM   21  C   UNL     1     -22.261  -7.332  -0.337  1.00  0.00     0.352 A 
ENDBRANCH   2  13
TORSDOF 3
ENDMDL
MODEL 3
REMARK VINA RESULT:      -8.9      2.683      9.281
REMARK  3 active torsions:
REMARK  status: ('A' for Active; 'I' for Inactive)
REMARK    1  A    between atoms: C_2  and  C_3 
REMARK       I    between atoms: C_2  and  N_16 
REMARK    2  A    between atoms: C_4  and  C_5 
REMARK    3  A    between atoms: C_6  and  C_7 
ROOT
HETATM    1  C   UNL     1     -21.542  -6.214  -5.576  1.00  0.00     0.001 C 
HETATM    2  C   UNL     1     -20.786  -6.842  -4.662  1.00  0.00     0.011 C 
ENDROOT
BRANCH   1   3
HETATM    3  C   UNL     1     -21.106  -5.940  -6.929  1.00  0.00     0.005 C 
HETATM    4  C   UNL     1     -21.221  -4.717  -7.465  1.00  0.00     0.074 C 
BRANCH   4   5
HETATM    5  C   UNL     1     -20.957  -4.510  -8.904  1.00  0.00     0.243 C 
HETATM    6  O   UNL     1     -19.878  -4.837  -9.386  1.00  0.00    -0.268 OA
HETATM    7  N   UNL     1     -21.995  -3.915  -9.614  1.00  0.00    -0.349 N 
HETATM    8  C   UNL     1     -23.291  -3.539  -9.042  1.00  0.00     0.126 C 
HETATM    9  C   UNL     1     -21.754  -3.455 -10.976  1.00  0.00     0.126 C 
HETATM   10  C   UNL     1     -24.440  -3.980  -9.942  1.00  0.00     0.020 C 
HETATM   11  C   UNL     1     -24.254  -3.478 -11.370  1.00  0.00     0.003 C 
HETATM   12  C   UNL     1     -22.882  -3.870 -11.919  1.00  0.00     0.020 C 
ENDBRANCH   4   5
ENDBRANCH   1   3
BRANCH   2  13
HETATM   13  C   UNL     1     -21.257  -7.186  -3.308  1.00  0.00    -0.033 A 
HETATM   14  C   UNL     1     -21.866  -6.228  -2.463  1.00  0.00     0.014 A 
HETATM   15  C   UNL     1     -22.324  -6.571  -1.185  1.00  0.00     0.040 A 
HETATM   16  C   UNL     1     -22.175  -7.876  -0.783  1.00  0.00     0.105 A 
HETATM   17  C   UNL     1     -21.610  -8.823  -1.602  1.00  0.00     0.105 A 
HETATM   18  O   UNL     1     -22.554  -8.385   0.420  1.00  0.00    -0.323 OA
HETATM   19  C   UNL     1     -21.151  -8.515  -2.869  1.00  0.00     0.051 A 
HETATM   20  O   UNL     1     -21.565 -10.051  -1.017  1.00  0.00    -0.323 OA
HETATM   21  C   UNL     1     -22.120  -9.754   0.281  1.00  0.00     0.352 A 
ENDBRANCH   2  13
TORSDOF 3
ENDMDL
MODEL 4
REMARK VINA RESULT:      -8.6      1.563      2.098
REMARK  3 active torsions:
REMARK  status: ('A' for Active; 'I' for Inactive)
REMARK    1  A    between atoms: C_2  and  C_3 
REMARK       I    between atoms: C_2  and  N_16 
REMARK    2  A    between atoms: C_4  and  C_5 
REMARK    3  A    between atoms: C_6  and  C_7 
ROOT
HETATM    1  C   UNL     1     -20.047  -5.936  -7.105  1.00  0.00     0.001 C 
HETATM    2  C   UNL     1     -21.106  -5.139  -7.317  1.00  0.00     0.011 C 
ENDROOT
BRANCH   1   3
HETATM    3  C   UNL     1     -19.764  -6.576  -5.838  1.00  0.00     0.005 C 
HETATM    4  C   UNL     1     -19.989  -7.884  -5.652  1.00  0.00     0.074 C 
BRANCH   4   5
HETATM    5  C   UNL     1     -19.882  -8.471  -4.300  1.00  0.00     0.243 C 
HETATM    6  O   UNL     1     -18.984  -9.263  -4.042  1.00  0.00    -0.268 OA
HETATM    7  N   UNL     1     -20.869  -8.070  -3.405  1.00  0.00    -0.349 N 
HETATM    8  C   UNL     1     -21.934  -7.110  -3.708  1.00  0.00     0.126 C 
HETATM    9  C   UNL     1     -20.995  -8.762  -2.128  1.00  0.00     0.126 C 
HETATM   10  C   UNL     1     -22.093  -6.089  -2.587  1.00  0.00     0.020 C 
HETATM   11  C   UNL     1     -22.276  -6.771  -1.235  1.00  0.00     0.003 C 
HETATM   12  C   UNL     1     -21.160  -7.780  -0.969  1.00  0.00     0.020 C 
ENDBRANCH   4   5
ENDBRANCH   1   3
BRANCH   2  13
HETATM   13  C   UNL     1     -21.435  -4.546  -8.626  1.00  0.00    -0.033 A 
HETATM   14  C   UNL     1     -20.433  -4.232  -9.576  1.00  0.00     0.014 A 
HETATM   15  C   UNL     1     -20.759  -3.685 -10.824  1.00  0.00     0.040 A 
HETATM   16  C   UNL     1     -22.089  -3.475 -11.100  1.00  0.00     0.105 A 
HETATM   17  C   UNL     1     -23.073  -3.799 -10.198  1.00  0.00     0.105 A 
HETATM   18  O   UNL     1     -22.587  -2.949 -12.251  1.00  0.00    -0.323 OA
HETATM   19  C   UNL     1     -22.782  -4.342  -8.962  1.00  0.00     0.051 A 
HETATM   20  O   UNL     1     -24.319  -3.520 -10.672  1.00  0.00    -0.323 OA
HETATM   21  C   UNL     1     -23.998  -2.937 -11.952  1.00  0.00     0.352 A 
ENDBRANCH   2  13
TORSDOF 3
ENDMDL
MODEL 5
REMARK VINA RESULT:      -8.1      1.723      2.735
REMARK  3 active torsions:
REMARK  status: ('A' for Active; 'I' for Inactive)
REMARK    1  A    between atoms: C_2  and  C_3 
REMARK       I    between atoms: C_2  and  N_16 
REMARK    2  A    between atoms: C_4  and  C_5 
REMARK    3  A    between atoms: C_6  and  C_7 
ROOT
HETATM    1  C   UNL     1     -21.055  -6.476  -4.694  1.00  0.00     0.001 C 
HETATM    2  C   UNL     1     -20.807  -5.219  -5.097  1.00  0.00     0.011 C 
ENDROOT
BRANCH   1   3
HETATM    3  C   UNL     1     -21.157  -6.868  -3.304  1.00  0.00     0.005 C 
HETATM    4  C   UNL     1     -21.373  -8.143  -2.953  1.00  0.00     0.074 C 
BRANCH   4   5
HETATM    5  C   UNL     1     -21.672  -8.486  -1.547  1.00  0.00     0.243 C 
HETATM    6  O   UNL     1     -21.504  -7.655  -0.662  1.00  0.00    -0.268 OA
HETATM    7  N   UNL     1     -22.116  -9.787  -1.340  1.00  0.00    -0.349 N 
HETATM    8  C   UNL     1     -22.332 -10.777  -2.400  1.00  0.00     0.126 C 
HETATM    9  C   UNL     1     -22.214 -10.298   0.022  1.00  0.00     0.126 C 
HETATM   10  C   UNL     1     -23.663 -11.499  -2.218  1.00  0.00     0.020 C 
HETATM   11  C   UNL     1     -23.788 -12.092  -0.819  1.00  0.00     0.003 C 
HETATM   12  C   UNL     1     -23.532 -11.035   0.254  1.00  0.00     0.020 C 
ENDBRANCH   4   5
ENDBRANCH   1   3
BRANCH   2  13
HETATM   13  C   UNL     1     -20.776  -4.806  -6.512  1.00  0.00    -0.033 A 
HETATM   14  C   UNL     1     -19.564  -4.714  -7.237  1.00  0.00     0.014 A 
HETATM   15  C   UNL     1     -19.550  -4.337  -8.585  1.00  0.00     0.040 A 
HETATM   16  C   UNL     1     -20.756  -4.070  -9.186  1.00  0.00     0.105 A 
HETATM   17  C   UNL     1     -21.943  -4.180  -8.502  1.00  0.00     0.105 A 
HETATM   18  O   UNL     1     -20.932  -3.685 -10.479  1.00  0.00    -0.323 OA
HETATM   19  C   UNL     1     -21.988  -4.553  -7.173  1.00  0.00     0.051 A 
HETATM   20  O   UNL     1     -23.018  -3.881  -9.282  1.00  0.00    -0.323 OA
HETATM   21  C   UNL     1     -22.365  -3.522 -10.517  1.00  0.00     0.352 A 
ENDBRANCH   2  13
TORSDOF 3
ENDMDL
MODEL 6
REMARK VINA RESULT:      -7.5      1.600      2.122
REMARK  3 active torsions:
REMARK  status: ('A' for Active; 'I' for Inactive)
REMARK    1  A    between atoms: C_2  and  C_3 
REMARK       I    between atoms: C_2  and  N_16 
REMARK    2  A    between atoms: C_4  and  C_5 
REMARK    3  A    between atoms: C_6  and  C_7 
ROOT
HETATM    1  C   UNL     1     -21.388  -4.771  -6.462  1.00  0.00     0.001 C 
HETATM    2  C   UNL     1     -22.021  -5.376  -7.479  1.00  0.00     0.011 C 
ENDROOT
BRANCH   1   3
HETATM    3  C   UNL     1     -20.827  -5.479  -5.330  1.00  0.00     0.005 C 
HETATM    4  C   UNL     1     -21.222  -6.721  -5.019  1.00  0.00     0.074 C 
BRANCH   4   5
HETATM    5  C   UNL     1     -20.786  -7.343  -3.751  1.00  0.00     0.243 C 
HETATM    6  O   UNL     1     -21.181  -6.898  -2.680  1.00  0.00    -0.268 OA
HETATM    7  N   UNL     1     -19.909  -8.413  -3.891  1.00  0.00    -0.349 N 
HETATM    8  C   UNL     1     -19.448  -8.956  -5.173  1.00  0.00     0.126 C 
HETATM    9  C   UNL     1     -19.239  -8.944  -2.710  1.00  0.00     0.126 C 
HETATM   10  C   UNL     1     -19.520 -10.479  -5.185  1.00  0.00     0.020 C 
HETATM   11  C   UNL     1     -18.789 -11.080  -3.989  1.00  0.00     0.003 C 
HETATM   12  C   UNL     1     -19.280 -10.470  -2.677  1.00  0.00     0.020 C 
ENDBRANCH   4   5
ENDBRANCH   1   3
BRANCH   2  13
HETATM   13  C   UNL     1     -22.527  -4.662  -8.667  1.00  0.00    -0.033 A 
HETATM   14  C   UNL     1     -23.785  -4.015  -8.670  1.00  0.00     0.014 A 
HETATM   15  C   UNL     1     -24.247  -3.326  -9.798  1.00  0.00     0.040 A 
HETATM   16  C   UNL     1     -23.429  -3.289 -10.902  1.00  0.00     0.105 A 
HETATM   17  C   UNL     1     -22.194  -3.890 -10.904  1.00  0.00     0.105 A 
HETATM   18  O   UNL     1     -23.714  -2.676 -12.082  1.00  0.00    -0.323 OA
HETATM   19  C   UNL     1     -21.711  -4.574  -9.805  1.00  0.00     0.051 A 
HETATM   20  O   UNL     1     -21.543  -3.727 -12.089  1.00  0.00    -0.323 OA
HETATM   21  C   UNL     1     -22.534  -2.999 -12.844  1.00  0.00     0.352 A 
ENDBRANCH   2  13
TORSDOF 3
ENDMDL
MODEL 7
REMARK VINA RESULT:      -7.4     16.311     17.533
REMARK  3 active torsions:
REMARK  status: ('A' for Active; 'I' for Inactive)
REMARK    1  A    between atoms: C_2  and  C_3 
REMARK       I    between atoms: C_2  and  N_16 
REMARK    2  A    between atoms: C_4  and  C_5 
REMARK    3  A    between atoms: C_6  and  C_7 
ROOT
HETATM    1  C   UNL     1     -21.341   8.718   2.187  1.00  0.00     0.001 C 
HETATM    2  C   UNL     1     -22.629   9.095   2.224  1.00  0.00     0.011 C 
ENDROOT
BRANCH   1   3
HETATM    3  C   UNL     1     -20.387   9.015   3.234  1.00  0.00     0.005 C 
HETATM    4  C   UNL     1     -19.068   9.003   3.001  1.00  0.00     0.074 C 
BRANCH   4   5
HETATM    5  C   UNL     1     -18.114   9.112   4.124  1.00  0.00     0.243 C 
HETATM    6  O   UNL     1     -18.517   9.068   5.281  1.00  0.00    -0.268 OA
HETATM    7  N   UNL     1     -16.785   9.283   3.753  1.00  0.00    -0.349 N 
HETATM    8  C   UNL     1     -16.300   9.319   2.370  1.00  0.00     0.126 C 
HETATM    9  C   UNL     1     -15.801   9.633   4.771  1.00  0.00     0.126 C 
HETATM   10  C   UNL     1     -15.056   8.454   2.199  1.00  0.00     0.020 C 
HETATM   11  C   UNL     1     -13.979   8.820   3.214  1.00  0.00     0.003 C 
HETATM   12  C   UNL     1     -14.531   8.795   4.639  1.00  0.00     0.020 C 
ENDBRANCH   4   5
ENDBRANCH   1   3
BRANCH   2  13
HETATM   13  C   UNL     1     -23.618   8.729   1.192  1.00  0.00    -0.033 A 
HETATM   14  C   UNL     1     -24.991   9.044   1.329  1.00  0.00     0.014 A 
HETATM   15  C   UNL     1     -25.918   8.706   0.335  1.00  0.00     0.040 A 
HETATM   16  C   UNL     1     -25.445   8.068  -0.786  1.00  0.00     0.105 A 
HETATM   17  C   UNL     1     -24.112   7.779  -0.945  1.00  0.00     0.105 A 
HETATM   18  O   UNL     1     -26.197   7.661  -1.845  1.00  0.00    -0.323 OA
HETATM   19  C   UNL     1     -23.174   8.103   0.017  1.00  0.00     0.051 A 
HETATM   20  O   UNL     1     -23.855   7.156  -2.127  1.00  0.00    -0.323 OA
HETATM   21  C   UNL     1     -25.188   7.041  -2.668  1.00  0.00     0.352 A 
ENDBRANCH   2  13
TORSDOF 3
ENDMDL
MODEL 8
REMARK VINA RESULT:      -7.1      2.455      8.951
REMARK  3 active torsions:
REMARK  status: ('A' for Active; 'I' for Inactive)
REMARK    1  A    between atoms: C_2  and  C_3 
REMARK       I    between atoms: C_2  and  N_16 
REMARK    2  A    between atoms: C_4  and  C_5 
REMARK    3  A    between atoms: C_6  and  C_7 
ROOT
HETATM    1  C   UNL     1     -21.546  -5.233  -5.891  1.00  0.00     0.001 C 
HETATM    2  C   UNL     1     -22.315  -6.102  -5.216  1.00  0.00     0.011 C 
ENDROOT
BRANCH   1   3
HETATM    3  C   UNL     1     -22.034  -4.394  -6.965  1.00  0.00     0.005 C 
HETATM    4  C   UNL     1     -23.166  -4.687  -7.620  1.00  0.00     0.074 C 
BRANCH   4   5
HETATM    5  C   UNL     1     -23.536  -3.933  -8.836  1.00  0.00     0.243 C 
HETATM    6  O   UNL     1     -24.586  -3.301  -8.872  1.00  0.00    -0.268 OA
HETATM    7  N   UNL     1     -22.631  -4.029  -9.887  1.00  0.00    -0.349 N 
HETATM    8  C   UNL     1     -21.368  -4.772  -9.838  1.00  0.00     0.126 C 
HETATM    9  C   UNL     1     -23.008  -3.523 -11.201  1.00  0.00     0.126 C 
HETATM   10  C   UNL     1     -20.222  -3.951 -10.419  1.00  0.00     0.020 C 
HETATM   11  C   UNL     1     -20.555  -3.440 -11.816  1.00  0.00     0.003 C 
HETATM   12  C   UNL     1     -21.889  -2.694 -11.828  1.00  0.00     0.020 C 
ENDBRANCH   4   5
ENDBRANCH   1   3
BRANCH   2  13
HETATM   13  C   UNL     1     -21.835  -6.903  -4.074  1.00  0.00    -0.033 A 
HETATM   14  C   UNL     1     -21.963  -6.451  -2.739  1.00  0.00     0.014 A 
HETATM   15  C   UNL     1     -21.519  -7.228  -1.662  1.00  0.00     0.040 A 
HETATM   16  C   UNL     1     -20.966  -8.453  -1.945  1.00  0.00     0.105 A 
HETATM   17  C   UNL     1     -20.859  -8.916  -3.234  1.00  0.00     0.105 A 
HETATM   18  O   UNL     1     -20.478  -9.334  -1.031  1.00  0.00    -0.323 OA
HETATM   19  C   UNL     1     -21.291  -8.173  -4.316  1.00  0.00     0.051 A 
HETATM   20  O   UNL     1     -20.293 -10.152  -3.293  1.00  0.00    -0.323 OA
HETATM   21  C   UNL     1     -20.009 -10.388  -1.898  1.00  0.00     0.352 A 
ENDBRANCH   2  13
TORSDOF 3
ENDMDL
MODEL 9
REMARK VINA RESULT:      -7.0     16.231     17.205
REMARK  3 active torsions:
REMARK  status: ('A' for Active; 'I' for Inactive)
REMARK    1  A    between atoms: C_2  and  C_3 
REMARK       I    between atoms: C_2  and  N_16 
REMARK    2  A    between atoms: C_4  and  C_5 
REMARK    3  A    between atoms: C_6  and  C_7 
ROOT
HETATM    1  C   UNL     1     -22.458   8.889   1.489  1.00  0.00     0.001 C 
HETATM    2  C   UNL     1     -23.728   8.729   1.085  1.00  0.00     0.011 C 
ENDROOT
BRANCH   1   3
HETATM    3  C   UNL     1     -22.088   9.470   2.762  1.00  0.00     0.005 C 
HETATM    4  C   UNL     1     -21.036   9.016   3.457  1.00  0.00     0.074 C 
BRANCH   4   5
HETATM    5  C   UNL     1     -20.798   9.486   4.837  1.00  0.00     0.243 C 
HETATM    6  O   UNL     1     -21.736   9.602   5.618  1.00  0.00    -0.268 OA
HETATM    7  N   UNL     1     -19.475   9.792   5.136  1.00  0.00    -0.349 N 
HETATM    8  C   UNL     1     -18.351   9.639   4.208  1.00  0.00     0.126 C 
HETATM    9  C   UNL     1     -19.167  10.481   6.384  1.00  0.00     0.126 C 
HETATM   10  C   UNL     1     -17.163   8.965   4.885  1.00  0.00     0.020 C 
HETATM   11  C   UNL     1     -16.775   9.683   6.173  1.00  0.00     0.003 C 
HETATM   12  C   UNL     1     -17.978   9.844   7.101  1.00  0.00     0.020 C 
ENDBRANCH   4   5
ENDBRANCH   1   3
BRANCH   2  13
HETATM   13  C   UNL     1     -24.107   8.070  -0.179  1.00  0.00    -0.033 A 
HETATM   14  C   UNL     1     -23.254   7.142  -0.822  1.00  0.00     0.014 A 
HETATM   15  C   UNL     1     -23.633   6.510  -2.013  1.00  0.00     0.040 A 
HETATM   16  C   UNL     1     -24.869   6.813  -2.531  1.00  0.00     0.105 A 
HETATM   17  C   UNL     1     -25.718   7.692  -1.903  1.00  0.00     0.105 A 
HETATM   18  O   UNL     1     -25.397   6.303  -3.676  1.00  0.00    -0.323 OA
HETATM   19  C   UNL     1     -25.373   8.327  -0.726  1.00  0.00     0.051 A 
HETATM   20  O   UNL     1     -26.893   7.843  -2.575  1.00  0.00    -0.323 OA
HETATM   21  C   UNL     1     -26.660   6.998  -3.721  1.00  0.00     0.352 A 
ENDBRANCH   2  13
TORSDOF 3
ENDMDL
