REMARK  4 active torsions:
REMARK  status: ('A' for Active; 'I' for Inactive)
REMARK       I    between atoms: C_2  and  N_3 
REMARK       I    between atoms: C_2  and  N_15 
REMARK    1  A    between atoms: N_3  and  C_4 
REMARK    2  A    between atoms: C_7  and  C_8 
REMARK    3  A    between atoms: N_18  and  C_19 
REMARK    4  A    between atoms: C_25  and  C_26 
ROOT
HETATM    1  O   UNL     1       0.896  -0.280  -0.204  1.00  0.00    -0.247 OA
HETATM    2  C   UNL     1       2.040   0.062   0.077  1.00  0.00     0.324 C 
HETATM    3  N   UNL     1       2.686   1.145  -0.467  1.00  0.00    -0.295 N 
HETATM    4  N   UNL     1       2.819  -0.675   0.945  1.00  0.00    -0.331 N 
HETATM    5  C   UNL     1       2.446  -2.057   1.274  1.00  0.00     0.147 C 
HETATM    6  C   UNL     1       2.353  -2.298   2.795  1.00  0.00     0.144 C 
HETATM    7  N   UNL     1       3.611  -1.810   3.395  1.00  0.00    -0.363 N 
HETATM    8  C   UNL     1       3.785  -0.365   3.205  1.00  0.00     0.144 C 
HETATM    9  C   UNL     1       3.962  -0.121   1.688  1.00  0.00     0.147 C 
HETATM   10  H   UNL     1       3.645   0.968  -0.726  1.00  0.00     0.172 HD
ENDROOT
BRANCH   3  11
HETATM   11  C   UNL     1       2.046   1.984  -1.383  1.00  0.00     0.108 A 
HETATM   12  C   UNL     1       0.756   2.442  -1.161  1.00  0.00     0.049 A 
HETATM   13  C   UNL     1       0.135   3.188  -2.155  1.00  0.00     0.021 A 
HETATM   14  C   UNL     1       0.817   3.443  -3.347  1.00  0.00     0.063 A 
HETATM   15  C   UNL     1       2.124   2.985  -3.451  1.00  0.00     0.106 A 
HETATM   16  N   UNL     1       2.764   2.293  -2.480  1.00  0.00    -0.351 N 
ATOM     17  HN  UNL     1       3.742   2.019  -2.574  1.00  0.00     0.166 HD
BRANCH  14  18
HETATM   18  C   UNL     1       0.183   4.156  -4.499  1.00  0.00     0.418 C 
HETATM   19  F   UNL     1      -1.085   4.582  -4.243  1.00  0.00    -0.166 F 
HETATM   20  F   UNL     1       0.879   5.261  -4.876  1.00  0.00    -0.166 F 
HETATM   21  F   UNL     1       0.095   3.371  -5.609  1.00  0.00    -0.166 F 
ENDBRANCH  14  18
ENDBRANCH   3  11
BRANCH   7  22
HETATM   22  C   UNL     1       4.189  -2.512   4.421  1.00  0.00     0.118 A 
HETATM   23  N   UNL     1       3.348  -3.304   5.138  1.00  0.00    -0.352 N 
HETATM   24  C   UNL     1       3.836  -4.100   6.115  1.00  0.00     0.089 A 
ATOM     25  HN  UNL     1       2.348  -3.297   4.938  1.00  0.00     0.166 HD
HETATM   26  C   UNL     1       5.167  -4.171   6.442  1.00  0.00     0.018 A 
HETATM   27  C   UNL     1       6.033  -3.372   5.719  1.00  0.00     0.021 A 
HETATM   28  C   UNL     1       5.559  -2.529   4.688  1.00  0.00     0.091 A 
BRANCH  28  29
HETATM   29  C   UNL     1       6.632  -1.791   3.939  1.00  0.00     0.421 C 
HETATM   30  F   UNL     1       6.273  -1.071   2.849  1.00  0.00    -0.166 F 
HETATM   31  F   UNL     1       7.283  -0.903   4.749  1.00  0.00    -0.166 F 
HETATM   32  F   UNL     1       7.607  -2.634   3.483  1.00  0.00    -0.166 F 
ENDBRANCH  28  29
ENDBRANCH   7  22
TORSDOF 4
