MODEL 1
REMARK VINA RESULT:      -9.7      0.000      0.000
REMARK  4 active torsions:
REMARK  status: ('A' for Active; 'I' for Inactive)
REMARK       I    between atoms: C_2  and  N_3 
REMARK       I    between atoms: C_2  and  N_15 
REMARK    1  A    between atoms: N_3  and  C_4 
REMARK    2  A    between atoms: C_7  and  C_8 
REMARK    3  A    between atoms: N_18  and  C_19 
REMARK    4  A    between atoms: C_25  and  C_26 
ROOT
HETATM    1  O   UNL     1     -20.369  -4.813  -5.164  1.00  0.00    -0.247 OA
HETATM    2  C   UNL     1     -21.125  -5.765  -5.327  1.00  0.00     0.324 C 
HETATM    3  N   UNL     1     -21.824  -6.017  -6.482  1.00  0.00    -0.295 N 
HETATM    4  N   UNL     1     -21.392  -6.655  -4.307  1.00  0.00    -0.331 N 
HETATM    5  C   UNL     1     -21.073  -6.299  -2.919  1.00  0.00     0.147 C 
HETATM    6  C   UNL     1     -20.200  -7.362  -2.221  1.00  0.00     0.144 C 
HETATM    7  N   UNL     1     -20.860  -8.669  -2.415  1.00  0.00    -0.363 N 
HETATM    8  C   UNL     1     -20.930  -9.042  -3.833  1.00  0.00     0.144 C 
HETATM    9  C   UNL     1     -21.870  -8.030  -4.527  1.00  0.00     0.147 C 
HETATM   10  H   UNL     1     -22.783  -6.293  -6.334  1.00  0.00     0.172 HD
ENDROOT
BRANCH   3  11
HETATM   11  C   UNL     1     -21.686  -5.197  -7.605  1.00  0.00     0.108 A 
HETATM   12  C   UNL     1     -22.728  -4.391  -8.041  1.00  0.00     0.049 A 
HETATM   13  C   UNL     1     -22.567  -3.677  -9.221  1.00  0.00     0.021 A 
HETATM   14  C   UNL     1     -21.374  -3.798  -9.938  1.00  0.00     0.063 A 
HETATM   15  C   UNL     1     -20.372  -4.589  -9.390  1.00  0.00     0.106 A 
HETATM   16  N   UNL     1     -20.490  -5.261  -8.222  1.00  0.00    -0.351 N 
ATOM     17  HN  UNL     1     -19.713  -5.790  -7.827  1.00  0.00     0.166 HD
BRANCH  14  18
HETATM   18  C   UNL     1     -21.161  -3.136 -11.262  1.00  0.00     0.418 C 
HETATM   19  F   UNL     1     -21.278  -3.986 -12.319  1.00  0.00    -0.166 F 
HETATM   20  F   UNL     1     -22.047  -2.131 -11.492  1.00  0.00    -0.166 F 
HETATM   21  F   UNL     1     -19.924  -2.577 -11.369  1.00  0.00    -0.166 F 
ENDBRANCH  14  18
ENDBRANCH   3  11
BRANCH   7  22
HETATM   22  C   UNL     1     -20.869  -9.581  -1.392  1.00  0.00     0.118 A 
HETATM   23  N   UNL     1     -19.991 -10.612  -1.516  1.00  0.00    -0.352 N 
HETATM   24  C   UNL     1     -19.865 -11.517  -0.520  1.00  0.00     0.089 A 
ATOM     25  HN  UNL     1     -19.428 -10.702  -2.361  1.00  0.00     0.166 HD
HETATM   26  C   UNL     1     -20.581 -11.464   0.649  1.00  0.00     0.018 A 
HETATM   27  C   UNL     1     -21.476 -10.419   0.789  1.00  0.00     0.021 A 
HETATM   28  C   UNL     1     -21.633  -9.452  -0.231  1.00  0.00     0.091 A 
BRANCH  28  29
HETATM   29  C   UNL     1     -22.577  -8.334   0.107  1.00  0.00     0.421 C 
HETATM   30  F   UNL     1     -22.949  -7.488  -0.884  1.00  0.00    -0.166 F 
HETATM   31  F   UNL     1     -23.751  -8.811   0.620  1.00  0.00    -0.166 F 
HETATM   32  F   UNL     1     -22.072  -7.516   1.080  1.00  0.00    -0.166 F 
ENDBRANCH  28  29
ENDBRANCH   7  22
TORSDOF 4
ENDMDL
MODEL 2
REMARK VINA RESULT:      -8.8      2.061      2.435
REMARK  4 active torsions:
REMARK  status: ('A' for Active; 'I' for Inactive)
REMARK       I    between atoms: C_2  and  N_3 
REMARK       I    between atoms: C_2  and  N_15 
REMARK    1  A    between atoms: N_3  and  C_4 
REMARK    2  A    between atoms: C_7  and  C_8 
REMARK    3  A    between atoms: N_18  and  C_19 
REMARK    4  A    between atoms: C_25  and  C_26 
ROOT
HETATM    1  O   UNL     1     -20.464  -4.894  -5.113  1.00  0.00    -0.247 OA
HETATM    2  C   UNL     1     -21.170  -5.873  -5.327  1.00  0.00     0.324 C 
HETATM    3  N   UNL     1     -21.805  -6.132  -6.518  1.00  0.00    -0.295 N 
HETATM    4  N   UNL     1     -21.445  -6.793  -4.337  1.00  0.00    -0.331 N 
HETATM    5  C   UNL     1     -21.205  -6.451  -2.929  1.00  0.00     0.147 C 
HETATM    6  C   UNL     1     -20.320  -7.490  -2.210  1.00  0.00     0.144 C 
HETATM    7  N   UNL     1     -20.914  -8.819  -2.457  1.00  0.00    -0.363 N 
HETATM    8  C   UNL     1     -20.904  -9.168  -3.883  1.00  0.00     0.144 C 
HETATM    9  C   UNL     1     -21.854  -8.182  -4.602  1.00  0.00     0.147 C 
HETATM   10  H   UNL     1     -22.757  -6.450  -6.419  1.00  0.00     0.172 HD
ENDROOT
BRANCH   3  11
HETATM   11  C   UNL     1     -21.651  -5.284  -7.618  1.00  0.00     0.108 A 
HETATM   12  C   UNL     1     -22.693  -4.484  -8.062  1.00  0.00     0.049 A 
HETATM   13  C   UNL     1     -22.514  -3.741  -9.222  1.00  0.00     0.021 A 
HETATM   14  C   UNL     1     -21.302  -3.830  -9.911  1.00  0.00     0.063 A 
HETATM   15  C   UNL     1     -20.303  -4.619  -9.357  1.00  0.00     0.106 A 
HETATM   16  N   UNL     1     -20.440  -5.318  -8.206  1.00  0.00    -0.351 N 
ATOM     17  HN  UNL     1     -19.665  -5.845  -7.805  1.00  0.00     0.166 HD
BRANCH  14  18
HETATM   18  C   UNL     1     -21.067  -3.136 -11.215  1.00  0.00     0.418 C 
HETATM   19  F   UNL     1     -21.092  -3.973 -12.289  1.00  0.00    -0.166 F 
HETATM   20  F   UNL     1     -21.993  -2.174 -11.470  1.00  0.00    -0.166 F 
HETATM   21  F   UNL     1     -19.857  -2.512 -11.259  1.00  0.00    -0.166 F 
ENDBRANCH  14  18
ENDBRANCH   3  11
BRANCH   7  22
HETATM   22  C   UNL     1     -20.931  -9.751  -1.452  1.00  0.00     0.118 A 
HETATM   23  N   UNL     1     -22.090  -9.832  -0.746  1.00  0.00    -0.352 N 
HETATM   24  C   UNL     1     -22.236 -10.777   0.209  1.00  0.00     0.089 A 
ATOM     25  HN  UNL     1     -22.850  -9.179  -0.937  1.00  0.00     0.166 HD
HETATM   26  C   UNL     1     -21.266 -11.695   0.524  1.00  0.00     0.018 A 
HETATM   27  C   UNL     1     -20.083 -11.624  -0.188  1.00  0.00     0.021 A 
HETATM   28  C   UNL     1     -19.895 -10.651  -1.197  1.00  0.00     0.091 A 
BRANCH  28  29
HETATM   29  C   UNL     1     -18.593 -10.760  -1.938  1.00  0.00     0.421 C 
HETATM   30  F   UNL     1     -17.966  -9.616  -2.303  1.00  0.00    -0.166 F 
HETATM   31  F   UNL     1     -17.665 -11.455  -1.214  1.00  0.00    -0.166 F 
HETATM   32  F   UNL     1     -18.728 -11.460  -3.105  1.00  0.00    -0.166 F 
ENDBRANCH  28  29
ENDBRANCH   7  22
TORSDOF 4
ENDMDL
MODEL 3
REMARK VINA RESULT:      -8.2      1.809      2.185
REMARK  4 active torsions:
REMARK  status: ('A' for Active; 'I' for Inactive)
REMARK       I    between atoms: C_2  and  N_3 
REMARK       I    between atoms: C_2  and  N_15 
REMARK    1  A    between atoms: N_3  and  C_4 
REMARK    2  A    between atoms: C_7  and  C_8 
REMARK    3  A    between atoms: N_18  and  C_19 
REMARK    4  A    between atoms: C_25  and  C_26 
ROOT
HETATM    1  O   UNL     1     -20.722  -5.115  -4.859  1.00  0.00    -0.247 OA
HETATM    2  C   UNL     1     -21.252  -6.171  -5.191  1.00  0.00     0.324 C 
HETATM    3  N   UNL     1     -21.663  -6.470  -6.466  1.00  0.00    -0.295 N 
HETATM    4  N   UNL     1     -21.544  -7.152  -4.265  1.00  0.00    -0.331 N 
HETATM    5  C   UNL     1     -21.562  -6.828  -2.833  1.00  0.00     0.147 C 
HETATM    6  C   UNL     1     -20.662  -7.766  -2.002  1.00  0.00     0.144 C 
HETATM    7  N   UNL     1     -21.029  -9.152  -2.354  1.00  0.00    -0.363 N 
HETATM    8  C   UNL     1     -20.762  -9.449  -3.767  1.00  0.00     0.144 C 
HETATM    9  C   UNL     1     -21.719  -8.572  -4.608  1.00  0.00     0.147 C 
HETATM   10  H   UNL     1     -22.568  -6.914  -6.516  1.00  0.00     0.172 HD
ENDROOT
BRANCH   3  11
HETATM   11  C   UNL     1     -21.464  -5.574  -7.520  1.00  0.00     0.108 A 
HETATM   12  C   UNL     1     -22.470  -4.715  -7.934  1.00  0.00     0.049 A 
HETATM   13  C   UNL     1     -22.247  -3.920  -9.052  1.00  0.00     0.021 A 
HETATM   14  C   UNL     1     -21.030  -4.018  -9.730  1.00  0.00     0.063 A 
HETATM   15  C   UNL     1     -20.067  -4.870  -9.205  1.00  0.00     0.106 A 
HETATM   16  N   UNL     1     -20.246  -5.622  -8.094  1.00  0.00    -0.351 N 
ATOM     17  HN  UNL     1     -19.496  -6.196  -7.710  1.00  0.00     0.166 HD
BRANCH  14  18
HETATM   18  C   UNL     1     -20.751  -3.267 -10.993  1.00  0.00     0.418 C 
HETATM   19  F   UNL     1     -19.716  -2.389 -10.887  1.00  0.00    -0.166 F 
HETATM   20  F   UNL     1     -20.439  -4.088 -12.031  1.00  0.00    -0.166 F 
HETATM   21  F   UNL     1     -21.822  -2.532 -11.406  1.00  0.00    -0.166 F 
ENDBRANCH  14  18
ENDBRANCH   3  11
BRANCH   7  22
HETATM   22  C   UNL     1     -21.069 -10.111  -1.375  1.00  0.00     0.118 A 
HETATM   23  N   UNL     1     -20.387  -9.818  -0.236  1.00  0.00    -0.352 N 
HETATM   24  C   UNL     1     -20.436 -10.661   0.819  1.00  0.00     0.089 A 
ATOM     25  HN  UNL     1     -19.838  -8.960  -0.179  1.00  0.00     0.166 HD
HETATM   26  C   UNL     1     -21.155 -11.830   0.823  1.00  0.00     0.018 A 
HETATM   27  C   UNL     1     -21.854 -12.140  -0.329  1.00  0.00     0.021 A 
HETATM   28  C   UNL     1     -21.829 -11.280  -1.451  1.00  0.00     0.091 A 
BRANCH  28  29
HETATM   29  C   UNL     1     -22.708 -11.711  -2.590  1.00  0.00     0.421 C 
HETATM   30  F   UNL     1     -22.120 -12.034  -3.767  1.00  0.00    -0.166 F 
HETATM   31  F   UNL     1     -23.453 -12.808  -2.256  1.00  0.00    -0.166 F 
HETATM   32  F   UNL     1     -23.623 -10.750  -2.920  1.00  0.00    -0.166 F 
ENDBRANCH  28  29
ENDBRANCH   7  22
TORSDOF 4
ENDMDL
MODEL 4
REMARK VINA RESULT:      -8.2      2.152      9.926
REMARK  4 active torsions:
REMARK  status: ('A' for Active; 'I' for Inactive)
REMARK       I    between atoms: C_2  and  N_3 
REMARK       I    between atoms: C_2  and  N_15 
REMARK    1  A    between atoms: N_3  and  C_4 
REMARK    2  A    between atoms: C_7  and  C_8 
REMARK    3  A    between atoms: N_18  and  C_19 
REMARK    4  A    between atoms: C_25  and  C_26 
ROOT
HETATM    1  O   UNL     1     -21.016  -5.755  -3.165  1.00  0.00    -0.247 OA
HETATM    2  C   UNL     1     -20.767  -6.506  -4.102  1.00  0.00     0.324 C 
HETATM    3  N   UNL     1     -20.579  -7.861  -3.987  1.00  0.00    -0.295 N 
HETATM    4  N   UNL     1     -20.587  -6.024  -5.382  1.00  0.00    -0.331 N 
HETATM    5  C   UNL     1     -20.334  -4.594  -5.600  1.00  0.00     0.147 C 
HETATM    6  C   UNL     1     -21.312  -3.968  -6.616  1.00  0.00     0.144 C 
HETATM    7  N   UNL     1     -21.294  -4.817  -7.824  1.00  0.00    -0.363 N 
HETATM    8  C   UNL     1     -21.779  -6.174  -7.548  1.00  0.00     0.144 C 
HETATM    9  C   UNL     1     -20.760  -6.840  -6.594  1.00  0.00     0.147 C 
HETATM   10  H   UNL     1     -19.802  -8.219  -4.522  1.00  0.00     0.172 HD
ENDROOT
BRANCH   3  11
HETATM   11  C   UNL     1     -20.702  -8.506  -2.753  1.00  0.00     0.108 A 
HETATM   12  C   UNL     1     -21.444  -7.952  -1.721  1.00  0.00     0.049 A 
HETATM   13  C   UNL     1     -21.444  -8.588  -0.486  1.00  0.00     0.021 A 
HETATM   14  C   UNL     1     -20.693  -9.753  -0.316  1.00  0.00     0.063 A 
HETATM   15  C   UNL     1     -20.026 -10.256  -1.425  1.00  0.00     0.106 A 
HETATM   16  N   UNL     1     -20.045  -9.677  -2.648  1.00  0.00    -0.351 N 
ATOM     17  HN  UNL     1     -19.585 -10.107  -3.451  1.00  0.00     0.166 HD
BRANCH  14  18
HETATM   18  C   UNL     1     -20.567 -10.442   1.006  1.00  0.00     0.418 C 
HETATM   19  F   UNL     1     -19.408 -11.143   1.145  1.00  0.00    -0.166 F 
HETATM   20  F   UNL     1     -20.606  -9.575   2.052  1.00  0.00    -0.166 F 
HETATM   21  F   UNL     1     -21.571 -11.336   1.222  1.00  0.00    -0.166 F 
ENDBRANCH  14  18
ENDBRANCH   3  11
BRANCH   7  22
HETATM   22  C   UNL     1     -21.347  -4.232  -9.063  1.00  0.00     0.118 A 
HETATM   23  N   UNL     1     -20.164  -4.159  -9.729  1.00  0.00    -0.352 N 
HETATM   24  C   UNL     1     -20.126  -3.678 -10.991  1.00  0.00     0.089 A 
ATOM     25  HN  UNL     1     -19.304  -4.468  -9.276  1.00  0.00     0.166 HD
HETATM   26  C   UNL     1     -21.237  -3.247 -11.673  1.00  0.00     0.018 A 
HETATM   27  C   UNL     1     -22.447  -3.319 -11.007  1.00  0.00     0.021 A 
HETATM   28  C   UNL     1     -22.525  -3.819  -9.687  1.00  0.00     0.091 A 
BRANCH  28  29
HETATM   29  C   UNL     1     -23.919  -3.914  -9.135  1.00  0.00     0.421 C 
HETATM   30  F   UNL     1     -24.069  -4.028  -7.793  1.00  0.00    -0.166 F 
HETATM   31  F   UNL     1     -24.667  -2.825  -9.482  1.00  0.00    -0.166 F 
HETATM   32  F   UNL     1     -24.597  -4.986  -9.644  1.00  0.00    -0.166 F 
ENDBRANCH  28  29
ENDBRANCH   7  22
TORSDOF 4
ENDMDL
MODEL 5
REMARK VINA RESULT:      -8.1      2.892      4.248
REMARK  4 active torsions:
REMARK  status: ('A' for Active; 'I' for Inactive)
REMARK       I    between atoms: C_2  and  N_3 
REMARK       I    between atoms: C_2  and  N_15 
REMARK    1  A    between atoms: N_3  and  C_4 
REMARK    2  A    between atoms: C_7  and  C_8 
REMARK    3  A    between atoms: N_18  and  C_19 
REMARK    4  A    between atoms: C_25  and  C_26 
ROOT
HETATM    1  O   UNL     1     -20.387  -7.740  -2.027  1.00  0.00    -0.247 OA
HETATM    2  C   UNL     1     -20.998  -8.672  -2.538  1.00  0.00     0.324 C 
HETATM    3  N   UNL     1     -21.522  -8.659  -3.808  1.00  0.00    -0.295 N 
HETATM    4  N   UNL     1     -21.273  -9.826  -1.832  1.00  0.00    -0.331 N 
HETATM    5  C   UNL     1     -21.164  -9.834  -0.368  1.00  0.00     0.147 C 
HETATM    6  C   UNL     1     -20.256 -10.969   0.151  1.00  0.00     0.144 C 
HETATM    7  N   UNL     1     -20.726 -12.225  -0.468  1.00  0.00    -0.363 N 
HETATM    8  C   UNL     1     -20.585 -12.204  -1.928  1.00  0.00     0.144 C 
HETATM    9  C   UNL     1     -21.553 -11.124  -2.466  1.00  0.00     0.147 C 
HETATM   10  H   UNL     1     -22.452  -9.046  -3.876  1.00  0.00     0.172 HD
ENDROOT
BRANCH   3  11
HETATM   11  C   UNL     1     -21.354  -7.556  -4.648  1.00  0.00     0.108 A 
HETATM   12  C   UNL     1     -22.405  -6.694  -4.925  1.00  0.00     0.049 A 
HETATM   13  C   UNL     1     -22.205  -5.676  -5.848  1.00  0.00     0.021 A 
HETATM   14  C   UNL     1     -20.964  -5.556  -6.477  1.00  0.00     0.063 A 
HETATM   15  C   UNL     1     -19.960  -6.436  -6.093  1.00  0.00     0.106 A 
HETATM   16  N   UNL     1     -20.120  -7.409  -5.166  1.00  0.00    -0.351 N 
ATOM     17  HN  UNL     1     -19.343  -8.002  -4.874  1.00  0.00     0.166 HD
BRANCH  14  18
HETATM   18  C   UNL     1     -20.700  -4.547  -7.549  1.00  0.00     0.418 C 
HETATM   19  F   UNL     1     -21.039  -4.977  -8.796  1.00  0.00    -0.166 F 
HETATM   20  F   UNL     1     -21.386  -3.389  -7.356  1.00  0.00    -0.166 F 
HETATM   21  F   UNL     1     -19.386  -4.198  -7.620  1.00  0.00    -0.166 F 
ENDBRANCH  14  18
ENDBRANCH   3  11
BRANCH   7  22
HETATM   22  C   UNL     1     -20.745 -13.379   0.273  1.00  0.00     0.118 A 
HETATM   23  N   UNL     1     -19.553 -14.021   0.390  1.00  0.00    -0.352 N 
HETATM   24  C   UNL     1     -19.449 -15.121   1.169  1.00  0.00     0.089 A 
ATOM     25  HN  UNL     1     -18.735 -13.673  -0.111  1.00  0.00     0.166 HD
HETATM   26  C   UNL     1     -20.499 -15.649   1.879  1.00  0.00     0.018 A 
HETATM   27  C   UNL     1     -21.716 -15.003   1.770  1.00  0.00     0.021 A 
HETATM   28  C   UNL     1     -21.861 -13.849   0.966  1.00  0.00     0.091 A 
BRANCH  28  29
HETATM   29  C   UNL     1     -23.222 -13.214   1.021  1.00  0.00     0.421 C 
HETATM   30  F   UNL     1     -23.312 -11.876   0.830  1.00  0.00    -0.166 F 
HETATM   31  F   UNL     1     -24.063 -13.760   0.093  1.00  0.00    -0.166 F 
HETATM   32  F   UNL     1     -23.836 -13.428   2.224  1.00  0.00    -0.166 F 
ENDBRANCH  28  29
ENDBRANCH   7  22
TORSDOF 4
ENDMDL
MODEL 6
REMARK VINA RESULT:      -8.0      2.757      3.494
REMARK  4 active torsions:
REMARK  status: ('A' for Active; 'I' for Inactive)
REMARK       I    between atoms: C_2  and  N_3 
REMARK       I    between atoms: C_2  and  N_15 
REMARK    1  A    between atoms: N_3  and  C_4 
REMARK    2  A    between atoms: C_7  and  C_8 
REMARK    3  A    between atoms: N_18  and  C_19 
REMARK    4  A    between atoms: C_25  and  C_26 
ROOT
HETATM    1  O   UNL     1     -21.226  -9.093  -6.036  1.00  0.00    -0.247 OA
HETATM    2  C   UNL     1     -21.047  -8.546  -4.952  1.00  0.00     0.324 C 
HETATM    3  N   UNL     1     -20.860  -7.197  -4.781  1.00  0.00    -0.295 N 
HETATM    4  N   UNL     1     -20.953  -9.276  -3.785  1.00  0.00    -0.331 N 
HETATM    5  C   UNL     1     -20.708 -10.723  -3.840  1.00  0.00     0.147 C 
HETATM    6  C   UNL     1     -21.751 -11.530  -3.040  1.00  0.00     0.144 C 
HETATM    7  N   UNL     1     -21.820 -10.940  -1.688  1.00  0.00    -0.363 N 
HETATM    8  C   UNL     1     -22.294  -9.551  -1.720  1.00  0.00     0.144 C 
HETATM    9  C   UNL     1     -21.215  -8.716  -2.449  1.00  0.00     0.147 C 
HETATM   10  H   UNL     1     -20.123  -6.960  -4.133  1.00  0.00     0.172 HD
ENDROOT
BRANCH   3  11
HETATM   11  C   UNL     1     -20.900  -6.317  -5.866  1.00  0.00     0.108 A 
HETATM   12  C   UNL     1     -21.933  -5.404  -6.015  1.00  0.00     0.049 A 
HETATM   13  C   UNL     1     -21.974  -4.628  -7.166  1.00  0.00     0.021 A 
HETATM   14  C   UNL     1     -20.989  -4.797  -8.142  1.00  0.00     0.063 A 
HETATM   15  C   UNL     1     -19.969  -5.701  -7.876  1.00  0.00     0.106 A 
HETATM   16  N   UNL     1     -19.885  -6.437  -6.743  1.00  0.00    -0.351 N 
ATOM     17  HN  UNL     1     -19.091  -7.052  -6.562  1.00  0.00     0.166 HD
BRANCH  14  18
HETATM   18  C   UNL     1     -21.017  -4.069  -9.448  1.00  0.00     0.418 C 
HETATM   19  F   UNL     1     -20.998  -4.894 -10.531  1.00  0.00    -0.166 F 
HETATM   20  F   UNL     1     -22.125  -3.294  -9.589  1.00  0.00    -0.166 F 
HETATM   21  F   UNL     1     -19.952  -3.233  -9.598  1.00  0.00    -0.166 F 
ENDBRANCH  14  18
ENDBRANCH   3  11
BRANCH   7  22
HETATM   22  C   UNL     1     -21.956 -11.759  -0.597  1.00  0.00     0.118 A 
HETATM   23  N   UNL     1     -23.228 -11.944  -0.156  1.00  0.00    -0.352 N 
HETATM   24  C   UNL     1     -23.475 -12.801   0.860  1.00  0.00     0.089 A 
ATOM     25  HN  UNL     1     -23.997 -11.435  -0.591  1.00  0.00     0.166 HD
HETATM   26  C   UNL     1     -22.498 -13.526   1.495  1.00  0.00     0.018 A 
HETATM   27  C   UNL     1     -21.200 -13.349   1.054  1.00  0.00     0.021 A 
HETATM   28  C   UNL     1     -20.905 -12.463  -0.008  1.00  0.00     0.091 A 
BRANCH  28  29
HETATM   29  C   UNL     1     -19.462 -12.448  -0.427  1.00  0.00     0.421 C 
HETATM   30  F   UNL     1     -19.139 -12.980  -1.631  1.00  0.00    -0.166 F 
HETATM   31  F   UNL     1     -18.968 -11.174  -0.462  1.00  0.00    -0.166 F 
HETATM   32  F   UNL     1     -18.665 -13.112   0.463  1.00  0.00    -0.166 F 
ENDBRANCH  28  29
ENDBRANCH   7  22
TORSDOF 4
ENDMDL
MODEL 7
REMARK VINA RESULT:      -7.8      6.535     10.052
REMARK  4 active torsions:
REMARK  status: ('A' for Active; 'I' for Inactive)
REMARK       I    between atoms: C_2  and  N_3 
REMARK       I    between atoms: C_2  and  N_15 
REMARK    1  A    between atoms: N_3  and  C_4 
REMARK    2  A    between atoms: C_7  and  C_8 
REMARK    3  A    between atoms: N_18  and  C_19 
REMARK    4  A    between atoms: C_25  and  C_26 
ROOT
HETATM    1  O   UNL     1     -20.057 -11.783  -4.087  1.00  0.00    -0.247 OA
HETATM    2  C   UNL     1     -18.960 -11.549  -3.592  1.00  0.00     0.324 C 
HETATM    3  N   UNL     1     -18.743 -10.681  -2.550  1.00  0.00    -0.295 N 
HETATM    4  N   UNL     1     -17.807 -12.110  -4.101  1.00  0.00    -0.331 N 
HETATM    5  C   UNL     1     -17.810 -12.705  -5.444  1.00  0.00     0.147 C 
HETATM    6  C   UNL     1     -17.282 -14.155  -5.449  1.00  0.00     0.144 C 
HETATM    7  N   UNL     1     -15.981 -14.151  -4.749  1.00  0.00    -0.363 N 
HETATM    8  C   UNL     1     -16.117 -13.755  -3.342  1.00  0.00     0.144 C 
HETATM    9  C   UNL     1     -16.567 -12.275  -3.325  1.00  0.00     0.147 C 
HETATM   10  H   UNL     1     -17.938 -10.084  -2.669  1.00  0.00     0.172 HD
ENDROOT
BRANCH   3  11
HETATM   11  C   UNL     1     -19.803 -10.010  -1.935  1.00  0.00     0.108 A 
HETATM   12  C   UNL     1     -19.935  -8.633  -2.028  1.00  0.00     0.049 A 
HETATM   13  C   UNL     1     -20.949  -8.012  -1.310  1.00  0.00     0.021 A 
HETATM   14  C   UNL     1     -21.794  -8.784  -0.510  1.00  0.00     0.063 A 
HETATM   15  C   UNL     1     -21.612 -10.161  -0.525  1.00  0.00     0.106 A 
HETATM   16  N   UNL     1     -20.658 -10.792  -1.248  1.00  0.00    -0.351 N 
ATOM     17  HN  UNL     1     -20.590 -11.810  -1.273  1.00  0.00     0.166 HD
BRANCH  14  18
HETATM   18  C   UNL     1     -22.846  -8.181   0.364  1.00  0.00     0.418 C 
HETATM   19  F   UNL     1     -23.938  -8.978   0.531  1.00  0.00    -0.166 F 
HETATM   20  F   UNL     1     -22.392  -7.905   1.615  1.00  0.00    -0.166 F 
HETATM   21  F   UNL     1     -23.318  -7.003  -0.131  1.00  0.00    -0.166 F 
ENDBRANCH  14  18
ENDBRANCH   3  11
BRANCH   7  22
HETATM   22  C   UNL     1     -14.957 -14.933  -5.219  1.00  0.00     0.118 A 
HETATM   23  N   UNL     1     -15.132 -16.274  -5.084  1.00  0.00    -0.352 N 
HETATM   24  C   UNL     1     -14.219 -17.131  -5.592  1.00  0.00     0.089 A 
ATOM     25  HN  UNL     1     -15.954 -16.634  -4.599  1.00  0.00     0.166 HD
HETATM   26  C   UNL     1     -13.090 -16.727  -6.261  1.00  0.00     0.018 A 
HETATM   27  C   UNL     1     -12.902 -15.366  -6.407  1.00  0.00     0.021 A 
HETATM   28  C   UNL     1     -13.837 -14.440  -5.891  1.00  0.00     0.091 A 
BRANCH  28  29
HETATM   29  C   UNL     1     -13.536 -13.003  -6.207  1.00  0.00     0.421 C 
HETATM   30  F   UNL     1     -12.466 -12.730  -6.991  1.00  0.00    -0.166 F 
HETATM   31  F   UNL     1     -14.592 -12.398  -6.828  1.00  0.00    -0.166 F 
HETATM   32  F   UNL     1     -13.323 -12.266  -5.074  1.00  0.00    -0.166 F 
ENDBRANCH  28  29
ENDBRANCH   7  22
TORSDOF 4
ENDMDL
MODEL 8
REMARK VINA RESULT:      -7.7     17.934     19.291
REMARK  4 active torsions:
REMARK  status: ('A' for Active; 'I' for Inactive)
REMARK       I    between atoms: C_2  and  N_3 
REMARK       I    between atoms: C_2  and  N_15 
REMARK    1  A    between atoms: N_3  and  C_4 
REMARK    2  A    between atoms: C_7  and  C_8 
REMARK    3  A    between atoms: N_18  and  C_19 
REMARK    4  A    between atoms: C_25  and  C_26 
ROOT
HETATM    1  O   UNL     1     -20.823  11.053   1.896  1.00  0.00    -0.247 OA
HETATM    2  C   UNL     1     -20.764  10.403   2.935  1.00  0.00     0.324 C 
HETATM    3  N   UNL     1     -21.796   9.655   3.446  1.00  0.00    -0.295 N 
HETATM    4  N   UNL     1     -19.639  10.422   3.733  1.00  0.00    -0.331 N 
HETATM    5  C   UNL     1     -18.633  11.478   3.560  1.00  0.00     0.147 C 
HETATM    6  C   UNL     1     -17.212  10.913   3.356  1.00  0.00     0.144 C 
HETATM    7  N   UNL     1     -16.958   9.955   4.451  1.00  0.00    -0.363 N 
HETATM    8  C   UNL     1     -17.879   8.813   4.404  1.00  0.00     0.144 C 
HETATM    9  C   UNL     1     -19.298   9.357   4.690  1.00  0.00     0.147 C 
HETATM   10  H   UNL     1     -21.924   9.752   4.442  1.00  0.00     0.172 HD
ENDROOT
BRANCH   3  11
HETATM   11  C   UNL     1     -23.016   9.549   2.772  1.00  0.00     0.108 A 
HETATM   12  C   UNL     1     -24.193  10.017   3.336  1.00  0.00     0.049 A 
HETATM   13  C   UNL     1     -25.388   9.791   2.664  1.00  0.00     0.021 A 
HETATM   14  C   UNL     1     -25.372   9.092   1.455  1.00  0.00     0.063 A 
HETATM   15  C   UNL     1     -24.137   8.710   0.949  1.00  0.00     0.106 A 
HETATM   16  N   UNL     1     -22.957   8.956   1.564  1.00  0.00    -0.351 N 
ATOM     17  HN  UNL     1     -22.066   8.706   1.134  1.00  0.00     0.166 HD
BRANCH  14  18
HETATM   18  C   UNL     1     -26.623   8.727   0.721  1.00  0.00     0.418 C 
HETATM   19  F   UNL     1     -26.407   7.921  -0.355  1.00  0.00    -0.166 F 
HETATM   20  F   UNL     1     -27.516   8.069   1.507  1.00  0.00    -0.166 F 
HETATM   21  F   UNL     1     -27.280   9.820   0.241  1.00  0.00    -0.166 F 
ENDBRANCH  14  18
ENDBRANCH   3  11
BRANCH   7  22
HETATM   22  C   UNL     1     -15.717   9.902   5.030  1.00  0.00     0.118 A 
HETATM   23  N   UNL     1     -15.619  10.468   6.262  1.00  0.00    -0.352 N 
HETATM   24  C   UNL     1     -14.459  10.392   6.952  1.00  0.00     0.089 A 
ATOM     25  HN  UNL     1     -16.422  10.950   6.666  1.00  0.00     0.166 HD
HETATM   26  C   UNL     1     -13.337   9.758   6.482  1.00  0.00     0.018 A 
HETATM   27  C   UNL     1     -13.424   9.176   5.230  1.00  0.00     0.021 A 
HETATM   28  C   UNL     1     -14.622   9.233   4.481  1.00  0.00     0.091 A 
BRANCH  28  29
HETATM   29  C   UNL     1     -14.584   8.480   3.182  1.00  0.00     0.421 C 
HETATM   30  F   UNL     1     -15.661   8.561   2.363  1.00  0.00    -0.166 F 
HETATM   31  F   UNL     1     -13.525   8.872   2.411  1.00  0.00    -0.166 F 
HETATM   32  F   UNL     1     -14.404   7.139   3.375  1.00  0.00    -0.166 F 
ENDBRANCH  28  29
ENDBRANCH   7  22
TORSDOF 4
ENDMDL
MODEL 9
REMARK VINA RESULT:      -7.5      6.577      8.241
REMARK  4 active torsions:
REMARK  status: ('A' for Active; 'I' for Inactive)
REMARK       I    between atoms: C_2  and  N_3 
REMARK       I    between atoms: C_2  and  N_15 
REMARK    1  A    between atoms: N_3  and  C_4 
REMARK    2  A    between atoms: C_7  and  C_8 
REMARK    3  A    between atoms: N_18  and  C_19 
REMARK    4  A    between atoms: C_25  and  C_26 
ROOT
HETATM    1  O   UNL     1     -21.730 -13.098  -6.861  1.00  0.00    -0.247 OA
HETATM    2  C   UNL     1     -20.935 -13.165  -5.929  1.00  0.00     0.324 C 
HETATM    3  N   UNL     1     -19.746 -13.850  -5.966  1.00  0.00    -0.295 N 
HETATM    4  N   UNL     1     -21.210 -12.589  -4.705  1.00  0.00    -0.331 N 
HETATM    5  C   UNL     1     -22.585 -12.198  -4.370  1.00  0.00     0.147 C 
HETATM    6  C   UNL     1     -22.688 -10.726  -3.920  1.00  0.00     0.144 C 
HETATM    7  N   UNL     1     -21.682 -10.520  -2.858  1.00  0.00    -0.363 N 
HETATM    8  C   UNL     1     -20.314 -10.717  -3.353  1.00  0.00     0.144 C 
HETATM    9  C   UNL     1     -20.175 -12.210  -3.730  1.00  0.00     0.147 C 
HETATM   10  H   UNL     1     -19.552 -14.390  -5.136  1.00  0.00     0.172 HD
ENDROOT
BRANCH   3  11
HETATM   11  C   UNL     1     -19.328 -14.511  -7.125  1.00  0.00     0.108 A 
HETATM   12  C   UNL     1     -19.306 -15.895  -7.196  1.00  0.00     0.049 A 
HETATM   13  C   UNL     1     -18.783 -16.494  -8.336  1.00  0.00     0.021 A 
HETATM   14  C   UNL     1     -18.286 -15.691  -9.365  1.00  0.00     0.063 A 
HETATM   15  C   UNL     1     -18.401 -14.314  -9.219  1.00  0.00     0.106 A 
HETATM   16  N   UNL     1     -18.944 -13.710  -8.137  1.00  0.00    -0.351 N 
ATOM     17  HN  UNL     1     -19.058 -12.697  -8.091  1.00  0.00     0.166 HD
BRANCH  14  18
HETATM   18  C   UNL     1     -17.623 -16.259 -10.579  1.00  0.00     0.418 C 
HETATM   19  F   UNL     1     -16.594 -17.105 -10.291  1.00  0.00    -0.166 F 
HETATM   20  F   UNL     1     -18.481 -16.967 -11.359  1.00  0.00    -0.166 F 
HETATM   21  F   UNL     1     -17.096 -15.293 -11.382  1.00  0.00    -0.166 F 
ENDBRANCH  14  18
ENDBRANCH   3  11
BRANCH   7  22
HETATM   22  C   UNL     1     -21.989  -9.732  -1.779  1.00  0.00     0.118 A 
HETATM   23  N   UNL     1     -21.491  -8.468  -1.813  1.00  0.00    -0.352 N 
HETATM   24  C   UNL     1     -21.808  -7.588  -0.837  1.00  0.00     0.089 A 
ATOM     25  HN  UNL     1     -20.878  -8.183  -2.577  1.00  0.00     0.166 HD
HETATM   26  C   UNL     1     -22.629  -7.891   0.220  1.00  0.00     0.018 A 
HETATM   27  C   UNL     1     -23.143  -9.174   0.266  1.00  0.00     0.021 A 
HETATM   28  C   UNL     1     -22.836 -10.119  -0.739  1.00  0.00     0.091 A 
BRANCH  28  29
HETATM   29  C   UNL     1     -23.541 -11.438  -0.595  1.00  0.00     0.421 C 
HETATM   30  F   UNL     1     -22.840 -12.570  -0.844  1.00  0.00    -0.166 F 
HETATM   31  F   UNL     1     -24.037 -11.602   0.668  1.00  0.00    -0.166 F 
HETATM   32  F   UNL     1     -24.630 -11.526  -1.416  1.00  0.00    -0.166 F 
ENDBRANCH  28  29
ENDBRANCH   7  22
TORSDOF 4
ENDMDL
