REMARK  10 active torsions:
REMARK  status: ('A' for Active; 'I' for Inactive)
REMARK    1  A    between atoms: O_2  and  C_3 
REMARK    2  A    between atoms: C_5  and  C_6 
REMARK    3  A    between atoms: C_6  and  N_7 
REMARK       I    between atoms: N_7  and  C_8 
REMARK    4  A    between atoms: C_8  and  C_10 
REMARK    5  A    between atoms: C_10  and  C_11 
REMARK    6  A    between atoms: C_11  and  C_12 
REMARK    7  A    between atoms: C_12  and  C_13 
REMARK    8  A    between atoms: C_13  and  C_14 
REMARK    9  A    between atoms: C_15  and  C_16 
REMARK   10  A    between atoms: C_21  and  O_22 
ROOT
HETATM    1  N   UNL     1       0.886   5.015  -0.576  1.00  0.00    -0.357 N 
HETATM    2  C   UNL     1       0.197   6.006   0.072  1.00  0.00     0.217 C 
HETATM    3  O   UNL     1       0.741   6.997   0.577  1.00  0.00    -0.274 OA
HETATM    4  H   UNL     1       0.366   4.236  -0.957  1.00  0.00     0.162 HD
ENDROOT
BRANCH   1   5
HETATM    5  C   UNL     1       2.325   5.067  -0.703  1.00  0.00     0.161 C 
BRANCH   5   6
HETATM    6  C   UNL     1       2.832   5.043  -2.128  1.00  0.00    -0.038 A 
HETATM    7  C   UNL     1       2.512   6.051  -3.055  1.00  0.00     0.048 A 
HETATM    8  C   UNL     1       3.016   6.027  -4.366  1.00  0.00     0.101 A 
HETATM    9  C   UNL     1       3.855   4.977  -4.746  1.00  0.00     0.099 A 
HETATM   10  C   UNL     1       4.198   3.973  -3.839  1.00  0.00     0.040 A 
HETATM   11  C   UNL     1       3.691   4.015  -2.537  1.00  0.00     0.012 A 
BRANCH   8  12
HETATM   12  O   UNL     1       2.733   6.976  -5.318  1.00  0.00    -0.353 OA
HETATM   13  C   UNL     1       1.875   8.041  -4.927  1.00  0.00     0.210 C 
ENDBRANCH   8  12
BRANCH   9  14
HETATM   14  O   UNL     1       4.344   4.936  -6.026  1.00  0.00    -0.358 OA
HETATM   15  H   UNL     1       4.881   4.139  -6.137  1.00  0.00     0.217 HD
ENDBRANCH   9  14
ENDBRANCH   5   6
ENDBRANCH   1   5
BRANCH   2  16
HETATM   16  C   UNL     1      -1.296   5.775   0.105  1.00  0.00     0.103 C 
BRANCH  16  17
HETATM   17  C   UNL     1      -2.060   7.094   0.118  1.00  0.00     0.010 C 
BRANCH  17  18
HETATM   18  C   UNL     1      -1.767   7.940  -1.121  1.00  0.00     0.004 C 
BRANCH  18  19
HETATM   19  C   UNL     1      -2.551   9.250  -1.065  1.00  0.00     0.027 C 
BRANCH  19  20
HETATM   20  C   UNL     1      -2.283  10.100  -2.270  1.00  0.00    -0.030 C 
HETATM   21  C   UNL     1      -3.245  10.487  -3.122  1.00  0.00    -0.027 C 
BRANCH  21  22
HETATM   22  C   UNL     1      -2.977  11.315  -4.353  1.00  0.00    -0.001 C 
HETATM   23  C   UNL     1      -3.406  10.572  -5.620  1.00  0.00     0.013 C 
HETATM   24  C   UNL     1      -3.697  12.661  -4.267  1.00  0.00     0.013 C 
ENDBRANCH  21  22
ENDBRANCH  19  20
ENDBRANCH  18  19
ENDBRANCH  17  18
ENDBRANCH  16  17
ENDBRANCH   2  16
TORSDOF 10
