MODEL 1
REMARK VINA RESULT:      -8.5      0.000      0.000
REMARK  10 active torsions:
REMARK  status: ('A' for Active; 'I' for Inactive)
REMARK    1  A    between atoms: O_2  and  C_3 
REMARK    2  A    between atoms: C_5  and  C_6 
REMARK    3  A    between atoms: C_6  and  N_7 
REMARK       I    between atoms: N_7  and  C_8 
REMARK    4  A    between atoms: C_8  and  C_10 
REMARK    5  A    between atoms: C_10  and  C_11 
REMARK    6  A    between atoms: C_11  and  C_12 
REMARK    7  A    between atoms: C_12  and  C_13 
REMARK    8  A    between atoms: C_13  and  C_14 
REMARK    9  A    between atoms: C_15  and  C_16 
REMARK   10  A    between atoms: C_21  and  O_22 
ROOT
HETATM    1  N   UNL     1     -20.539  -4.314  -7.740  1.00  0.00    -0.357 N 
HETATM    2  C   UNL     1     -20.170  -5.413  -7.010  1.00  0.00     0.217 C 
HETATM    3  O   UNL     1     -19.748  -6.459  -7.518  1.00  0.00    -0.274 OA
HETATM    4  H   UNL     1     -20.879  -3.499  -7.247  1.00  0.00     0.162 HD
ENDROOT
BRANCH   1   5
HETATM    5  C   UNL     1     -20.463  -4.317  -9.183  1.00  0.00     0.161 C 
BRANCH   5   6
HETATM    6  C   UNL     1     -21.752  -3.947  -9.883  1.00  0.00    -0.038 A 
HETATM    7  C   UNL     1     -21.770  -3.237 -11.096  1.00  0.00     0.048 A 
HETATM    8  C   UNL     1     -22.976  -2.927 -11.746  1.00  0.00     0.101 A 
HETATM    9  C   UNL     1     -24.178  -3.341 -11.168  1.00  0.00     0.099 A 
HETATM   10  C   UNL     1     -24.184  -4.060  -9.971  1.00  0.00     0.040 A 
HETATM   11  C   UNL     1     -22.974  -4.363  -9.340  1.00  0.00     0.012 A 
BRANCH   8  12
HETATM   12  O   UNL     1     -23.059  -2.230 -12.927  1.00  0.00    -0.353 OA
HETATM   13  C   UNL     1     -22.826  -2.964 -14.123  1.00  0.00     0.210 C 
ENDBRANCH   8  12
BRANCH   9  14
HETATM   14  O   UNL     1     -25.363  -3.035 -11.786  1.00  0.00    -0.358 OA
HETATM   15  H   UNL     1     -25.348  -2.108 -12.061  1.00  0.00     0.217 HD
ENDBRANCH   9  14
ENDBRANCH   5   6
ENDBRANCH   1   5
BRANCH   2  16
HETATM   16  C   UNL     1     -20.323  -5.220  -5.518  1.00  0.00     0.103 C 
BRANCH  16  17
HETATM   17  C   UNL     1     -21.534  -5.976  -4.984  1.00  0.00     0.010 C 
BRANCH  17  18
HETATM   18  C   UNL     1     -21.224  -6.709  -3.679  1.00  0.00     0.004 C 
BRANCH  18  19
HETATM   19  C   UNL     1     -21.786  -5.932  -2.489  1.00  0.00     0.027 C 
BRANCH  19  20
HETATM   20  C   UNL     1     -22.224  -6.855  -1.392  1.00  0.00    -0.030 C 
HETATM   21  C   UNL     1     -21.437  -7.816  -0.885  1.00  0.00    -0.027 C 
BRANCH  21  22
HETATM   22  C   UNL     1     -21.884  -8.767   0.196  1.00  0.00    -0.001 C 
HETATM   23  C   UNL     1     -21.062  -8.574   1.473  1.00  0.00     0.013 C 
HETATM   24  C   UNL     1     -23.371  -8.582   0.499  1.00  0.00     0.013 C 
ENDBRANCH  21  22
ENDBRANCH  19  20
ENDBRANCH  18  19
ENDBRANCH  17  18
ENDBRANCH  16  17
ENDBRANCH   2  16
TORSDOF 10
ENDMDL
MODEL 2
REMARK VINA RESULT:      -8.5      1.393      2.359
REMARK  10 active torsions:
REMARK  status: ('A' for Active; 'I' for Inactive)
REMARK    1  A    between atoms: O_2  and  C_3 
REMARK    2  A    between atoms: C_5  and  C_6 
REMARK    3  A    between atoms: C_6  and  N_7 
REMARK       I    between atoms: N_7  and  C_8 
REMARK    4  A    between atoms: C_8  and  C_10 
REMARK    5  A    between atoms: C_10  and  C_11 
REMARK    6  A    between atoms: C_11  and  C_12 
REMARK    7  A    between atoms: C_12  and  C_13 
REMARK    8  A    between atoms: C_13  and  C_14 
REMARK    9  A    between atoms: C_15  and  C_16 
REMARK   10  A    between atoms: C_21  and  O_22 
ROOT
HETATM    1  N   UNL     1     -21.201  -5.204  -6.424  1.00  0.00    -0.357 N 
HETATM    2  C   UNL     1     -20.679  -6.468  -6.353  1.00  0.00     0.217 C 
HETATM    3  O   UNL     1     -19.630  -6.806  -6.917  1.00  0.00    -0.274 OA
HETATM    4  H   UNL     1     -22.066  -5.011  -5.936  1.00  0.00     0.162 HD
ENDROOT
BRANCH   1   5
HETATM    5  C   UNL     1     -20.545  -4.167  -7.188  1.00  0.00     0.161 C 
BRANCH   5   6
HETATM    6  C   UNL     1     -20.943  -4.113  -8.646  1.00  0.00    -0.038 A 
HETATM    7  C   UNL     1     -22.245  -3.776  -9.057  1.00  0.00     0.048 A 
HETATM    8  C   UNL     1     -22.588  -3.703 -10.417  1.00  0.00     0.101 A 
HETATM    9  C   UNL     1     -21.607  -3.969 -11.374  1.00  0.00     0.099 A 
HETATM   10  C   UNL     1     -20.304  -4.291 -10.991  1.00  0.00     0.040 A 
HETATM   11  C   UNL     1     -19.979  -4.355  -9.634  1.00  0.00     0.012 A 
BRANCH   8  12
HETATM   12  O   UNL     1     -23.843  -3.389 -10.879  1.00  0.00    -0.353 OA
HETATM   13  C   UNL     1     -24.901  -3.410  -9.928  1.00  0.00     0.210 C 
ENDBRANCH   8  12
BRANCH   9  14
HETATM   14  O   UNL     1     -21.933  -3.912 -12.705  1.00  0.00    -0.358 OA
HETATM   15  H   UNL     1     -21.372  -4.528 -13.197  1.00  0.00     0.217 HD
ENDBRANCH   9  14
ENDBRANCH   5   6
ENDBRANCH   1   5
BRANCH   2  16
HETATM   16  C   UNL     1     -21.506  -7.412  -5.511  1.00  0.00     0.103 C 
BRANCH  16  17
HETATM   17  C   UNL     1     -22.179  -6.679  -4.357  1.00  0.00     0.010 C 
BRANCH  17  18
HETATM   18  C   UNL     1     -21.399  -6.823  -3.051  1.00  0.00     0.004 C 
BRANCH  18  19
HETATM   19  C   UNL     1     -22.151  -6.146  -1.906  1.00  0.00     0.027 C 
BRANCH  19  20
HETATM   20  C   UNL     1     -22.398  -7.098  -0.775  1.00  0.00    -0.030 C 
HETATM   21  C   UNL     1     -22.172  -8.418  -0.866  1.00  0.00    -0.027 C 
BRANCH  21  22
HETATM   22  C   UNL     1     -22.448  -9.385   0.257  1.00  0.00    -0.001 C 
HETATM   23  C   UNL     1     -23.575 -10.352  -0.114  1.00  0.00     0.013 C 
HETATM   24  C   UNL     1     -21.186 -10.167   0.620  1.00  0.00     0.013 C 
ENDBRANCH  21  22
ENDBRANCH  19  20
ENDBRANCH  18  19
ENDBRANCH  17  18
ENDBRANCH  16  17
ENDBRANCH   2  16
TORSDOF 10
ENDMDL
MODEL 3
REMARK VINA RESULT:      -7.8      1.072      2.088
REMARK  10 active torsions:
REMARK  status: ('A' for Active; 'I' for Inactive)
REMARK    1  A    between atoms: O_2  and  C_3 
REMARK    2  A    between atoms: C_5  and  C_6 
REMARK    3  A    between atoms: C_6  and  N_7 
REMARK       I    between atoms: N_7  and  C_8 
REMARK    4  A    between atoms: C_8  and  C_10 
REMARK    5  A    between atoms: C_10  and  C_11 
REMARK    6  A    between atoms: C_11  and  C_12 
REMARK    7  A    between atoms: C_12  and  C_13 
REMARK    8  A    between atoms: C_13  and  C_14 
REMARK    9  A    between atoms: C_15  and  C_16 
REMARK   10  A    between atoms: C_21  and  O_22 
ROOT
HETATM    1  N   UNL     1     -20.658  -5.213  -7.777  1.00  0.00    -0.357 N 
HETATM    2  C   UNL     1     -19.897  -4.905  -6.680  1.00  0.00     0.217 C 
HETATM    3  O   UNL     1     -18.754  -4.433  -6.753  1.00  0.00    -0.274 OA
HETATM    4  H   UNL     1     -21.580  -5.600  -7.630  1.00  0.00     0.162 HD
ENDROOT
BRANCH   1   5
HETATM    5  C   UNL     1     -20.155  -5.006  -9.116  1.00  0.00     0.161 C 
BRANCH   5   6
HETATM    6  C   UNL     1     -21.119  -4.308 -10.049  1.00  0.00    -0.038 A 
HETATM    7  C   UNL     1     -22.513  -4.394  -9.888  1.00  0.00     0.048 A 
HETATM    8  C   UNL     1     -23.393  -3.716 -10.748  1.00  0.00     0.101 A 
HETATM    9  C   UNL     1     -22.861  -2.938 -11.779  1.00  0.00     0.099 A 
HETATM   10  C   UNL     1     -21.480  -2.826 -11.950  1.00  0.00     0.040 A 
HETATM   11  C   UNL     1     -20.619  -3.505 -11.082  1.00  0.00     0.012 A 
BRANCH   8  12
HETATM   12  O   UNL     1     -24.762  -3.768 -10.647  1.00  0.00    -0.353 OA
HETATM   13  C   UNL     1     -25.344  -3.166  -9.497  1.00  0.00     0.210 C 
ENDBRANCH   8  12
BRANCH   9  14
HETATM   14  O   UNL     1     -23.709  -2.281 -12.632  1.00  0.00    -0.358 OA
HETATM   15  H   UNL     1     -24.533  -2.782 -12.712  1.00  0.00     0.217 HD
ENDBRANCH   9  14
ENDBRANCH   5   6
ENDBRANCH   1   5
BRANCH   2  16
HETATM   16  C   UNL     1     -20.591  -5.193  -5.369  1.00  0.00     0.103 C 
BRANCH  16  17
HETATM   17  C   UNL     1     -21.726  -6.195  -5.551  1.00  0.00     0.010 C 
BRANCH  17  18
HETATM   18  C   UNL     1     -22.288  -6.676  -4.214  1.00  0.00     0.004 C 
BRANCH  18  19
HETATM   19  C   UNL     1     -21.171  -6.785  -3.178  1.00  0.00     0.027 C 
BRANCH  19  20
HETATM   20  C   UNL     1     -21.711  -7.139  -1.826  1.00  0.00    -0.030 C 
HETATM   21  C   UNL     1     -21.029  -7.872  -0.933  1.00  0.00    -0.027 C 
BRANCH  21  22
HETATM   22  C   UNL     1     -21.580  -8.258   0.416  1.00  0.00    -0.001 C 
HETATM   23  C   UNL     1     -23.103  -8.114   0.450  1.00  0.00     0.013 C 
HETATM   24  C   UNL     1     -21.182  -9.690   0.774  1.00  0.00     0.013 C 
ENDBRANCH  21  22
ENDBRANCH  19  20
ENDBRANCH  18  19
ENDBRANCH  17  18
ENDBRANCH  16  17
ENDBRANCH   2  16
TORSDOF 10
ENDMDL
MODEL 4
REMARK VINA RESULT:      -7.7      1.868      2.690
REMARK  10 active torsions:
REMARK  status: ('A' for Active; 'I' for Inactive)
REMARK    1  A    between atoms: O_2  and  C_3 
REMARK    2  A    between atoms: C_5  and  C_6 
REMARK    3  A    between atoms: C_6  and  N_7 
REMARK       I    between atoms: N_7  and  C_8 
REMARK    4  A    between atoms: C_8  and  C_10 
REMARK    5  A    between atoms: C_10  and  C_11 
REMARK    6  A    between atoms: C_11  and  C_12 
REMARK    7  A    between atoms: C_12  and  C_13 
REMARK    8  A    between atoms: C_13  and  C_14 
REMARK    9  A    between atoms: C_15  and  C_16 
REMARK   10  A    between atoms: C_21  and  O_22 
ROOT
HETATM    1  N   UNL     1     -20.274  -5.335  -6.363  1.00  0.00    -0.357 N 
HETATM    2  C   UNL     1     -21.067  -6.175  -5.626  1.00  0.00     0.217 C 
HETATM    3  O   UNL     1     -22.253  -5.939  -5.364  1.00  0.00    -0.274 OA
HETATM    4  H   UNL     1     -19.313  -5.600  -6.528  1.00  0.00     0.162 HD
ENDROOT
BRANCH   1   5
HETATM    5  C   UNL     1     -20.789  -4.088  -6.881  1.00  0.00     0.161 C 
BRANCH   5   6
HETATM    6  C   UNL     1     -21.056  -4.088  -8.370  1.00  0.00    -0.038 A 
HETATM    7  C   UNL     1     -22.265  -3.619  -8.916  1.00  0.00     0.048 A 
HETATM    8  C   UNL     1     -22.483  -3.600 -10.304  1.00  0.00     0.101 A 
HETATM    9  C   UNL     1     -21.471  -4.056 -11.151  1.00  0.00     0.099 A 
HETATM   10  C   UNL     1     -20.258  -4.513 -10.633  1.00  0.00     0.040 A 
HETATM   11  C   UNL     1     -20.056  -4.521  -9.250  1.00  0.00     0.012 A 
BRANCH   8  12
HETATM   12  O   UNL     1     -23.643  -3.163 -10.895  1.00  0.00    -0.353 OA
HETATM   13  C   UNL     1     -24.858  -3.447 -10.212  1.00  0.00     0.210 C 
ENDBRANCH   8  12
BRANCH   9  14
HETATM   14  O   UNL     1     -21.676  -4.054 -12.506  1.00  0.00    -0.358 OA
HETATM   15  H   UNL     1     -20.829  -4.179 -12.958  1.00  0.00     0.217 HD
ENDBRANCH   9  14
ENDBRANCH   5   6
ENDBRANCH   1   5
BRANCH   2  16
HETATM   16  C   UNL     1     -20.352  -7.426  -5.170  1.00  0.00     0.103 C 
BRANCH  16  17
HETATM   17  C   UNL     1     -21.340  -8.538  -4.836  1.00  0.00     0.010 C 
BRANCH  17  18
HETATM   18  C   UNL     1     -20.747  -9.562  -3.868  1.00  0.00     0.004 C 
BRANCH  18  19
HETATM   19  C   UNL     1     -19.981  -8.854  -2.753  1.00  0.00     0.027 C 
BRANCH  19  20
HETATM   20  C   UNL     1     -20.687  -8.983  -1.437  1.00  0.00    -0.030 C 
HETATM   21  C   UNL     1     -21.949  -9.425  -1.323  1.00  0.00    -0.027 C 
BRANCH  21  22
HETATM   22  C   UNL     1     -22.676  -9.527  -0.006  1.00  0.00    -0.001 C 
HETATM   23  C   UNL     1     -23.159  -8.153   0.463  1.00  0.00     0.013 C 
HETATM   24  C   UNL     1     -23.859 -10.489  -0.113  1.00  0.00     0.013 C 
ENDBRANCH  21  22
ENDBRANCH  19  20
ENDBRANCH  18  19
ENDBRANCH  17  18
ENDBRANCH  16  17
ENDBRANCH   2  16
TORSDOF 10
ENDMDL
MODEL 5
REMARK VINA RESULT:      -7.7      1.104      1.407
REMARK  10 active torsions:
REMARK  status: ('A' for Active; 'I' for Inactive)
REMARK    1  A    between atoms: O_2  and  C_3 
REMARK    2  A    between atoms: C_5  and  C_6 
REMARK    3  A    between atoms: C_6  and  N_7 
REMARK       I    between atoms: N_7  and  C_8 
REMARK    4  A    between atoms: C_8  and  C_10 
REMARK    5  A    between atoms: C_10  and  C_11 
REMARK    6  A    between atoms: C_11  and  C_12 
REMARK    7  A    between atoms: C_12  and  C_13 
REMARK    8  A    between atoms: C_13  and  C_14 
REMARK    9  A    between atoms: C_15  and  C_16 
REMARK   10  A    between atoms: C_21  and  O_22 
ROOT
HETATM    1  N   UNL     1     -20.478  -5.637  -7.660  1.00  0.00    -0.357 N 
HETATM    2  C   UNL     1     -20.571  -5.028  -6.437  1.00  0.00     0.217 C 
HETATM    3  O   UNL     1     -20.509  -3.802  -6.278  1.00  0.00    -0.274 OA
HETATM    4  H   UNL     1     -20.534  -6.646  -7.703  1.00  0.00     0.162 HD
ENDROOT
BRANCH   1   5
HETATM    5  C   UNL     1     -20.290  -4.863  -8.867  1.00  0.00     0.161 C 
BRANCH   5   6
HETATM    6  C   UNL     1     -21.570  -4.369  -9.504  1.00  0.00    -0.038 A 
HETATM    7  C   UNL     1     -21.571  -3.549 -10.646  1.00  0.00     0.048 A 
HETATM    8  C   UNL     1     -22.770  -3.124 -11.242  1.00  0.00     0.101 A 
HETATM    9  C   UNL     1     -23.982  -3.534 -10.682  1.00  0.00     0.099 A 
HETATM   10  C   UNL     1     -24.006  -4.360  -9.557  1.00  0.00     0.040 A 
HETATM   11  C   UNL     1     -22.803  -4.777  -8.980  1.00  0.00     0.012 A 
BRANCH   8  12
HETATM   12  O   UNL     1     -22.836  -2.317 -12.351  1.00  0.00    -0.353 OA
HETATM   13  C   UNL     1     -22.883  -2.967 -13.616  1.00  0.00     0.210 C 
ENDBRANCH   8  12
BRANCH   9  14
HETATM   14  O   UNL     1     -25.159  -3.117 -11.247  1.00  0.00    -0.358 OA
HETATM   15  H   UNL     1     -25.690  -2.661 -10.578  1.00  0.00     0.217 HD
ENDBRANCH   9  14
ENDBRANCH   5   6
ENDBRANCH   1   5
BRANCH   2  16
HETATM   16  C   UNL     1     -20.764  -6.001  -5.296  1.00  0.00     0.103 C 
BRANCH  16  17
HETATM   17  C   UNL     1     -21.254  -7.353  -5.800  1.00  0.00     0.010 C 
BRANCH  17  18
HETATM   18  C   UNL     1     -21.526  -8.328  -4.654  1.00  0.00     0.004 C 
BRANCH  18  19
HETATM   19  C   UNL     1     -20.844  -7.846  -3.375  1.00  0.00     0.027 C 
BRANCH  19  20
HETATM   20  C   UNL     1     -21.592  -8.292  -2.155  1.00  0.00    -0.030 C 
HETATM   21  C   UNL     1     -21.465  -7.694  -0.960  1.00  0.00    -0.027 C 
BRANCH  21  22
HETATM   22  C   UNL     1     -22.190  -8.157   0.278  1.00  0.00    -0.001 C 
HETATM   23  C   UNL     1     -23.105  -9.344  -0.031  1.00  0.00     0.013 C 
HETATM   24  C   UNL     1     -21.196  -8.536   1.377  1.00  0.00     0.013 C 
ENDBRANCH  21  22
ENDBRANCH  19  20
ENDBRANCH  18  19
ENDBRANCH  17  18
ENDBRANCH  16  17
ENDBRANCH   2  16
TORSDOF 10
ENDMDL
MODEL 6
REMARK VINA RESULT:      -7.6      3.023     10.381
REMARK  10 active torsions:
REMARK  status: ('A' for Active; 'I' for Inactive)
REMARK    1  A    between atoms: O_2  and  C_3 
REMARK    2  A    between atoms: C_5  and  C_6 
REMARK    3  A    between atoms: C_6  and  N_7 
REMARK       I    between atoms: N_7  and  C_8 
REMARK    4  A    between atoms: C_8  and  C_10 
REMARK    5  A    between atoms: C_10  and  C_11 
REMARK    6  A    between atoms: C_11  and  C_12 
REMARK    7  A    between atoms: C_12  and  C_13 
REMARK    8  A    between atoms: C_13  and  C_14 
REMARK    9  A    between atoms: C_15  and  C_16 
REMARK   10  A    between atoms: C_21  and  O_22 
ROOT
HETATM    1  N   UNL     1     -20.759  -6.377  -4.633  1.00  0.00    -0.357 N 
HETATM    2  C   UNL     1     -20.233  -6.152  -5.878  1.00  0.00     0.217 C 
HETATM    3  O   UNL     1     -20.002  -7.054  -6.694  1.00  0.00    -0.274 OA
HETATM    4  H   UNL     1     -20.913  -5.585  -4.024  1.00  0.00     0.162 HD
ENDROOT
BRANCH   1   5
HETATM    5  C   UNL     1     -21.073  -7.716  -4.186  1.00  0.00     0.161 C 
BRANCH   5   6
HETATM    6  C   UNL     1     -21.537  -7.807  -2.750  1.00  0.00    -0.038 A 
HETATM    7  C   UNL     1     -21.515  -9.014  -2.029  1.00  0.00     0.048 A 
HETATM    8  C   UNL     1     -21.923  -9.073  -0.686  1.00  0.00     0.101 A 
HETATM    9  C   UNL     1     -22.354  -7.901  -0.061  1.00  0.00     0.099 A 
HETATM   10  C   UNL     1     -22.371  -6.688  -0.751  1.00  0.00     0.040 A 
HETATM   11  C   UNL     1     -21.958  -6.647  -2.086  1.00  0.00     0.012 A 
BRANCH   8  12
HETATM   12  O   UNL     1     -21.933 -10.222   0.066  1.00  0.00    -0.353 OA
HETATM   13  C   UNL     1     -20.681 -10.868   0.267  1.00  0.00     0.210 C 
ENDBRANCH   8  12
BRANCH   9  14
HETATM   14  O   UNL     1     -22.766  -7.948   1.246  1.00  0.00    -0.358 OA
HETATM   15  H   UNL     1     -22.446  -7.161   1.709  1.00  0.00     0.217 HD
ENDBRANCH   9  14
ENDBRANCH   5   6
ENDBRANCH   1   5
BRANCH   2  16
HETATM   16  C   UNL     1     -19.969  -4.692  -6.162  1.00  0.00     0.103 C 
BRANCH  16  17
HETATM   17  C   UNL     1     -19.338  -4.501  -7.536  1.00  0.00     0.010 C 
BRANCH  17  18
HETATM   18  C   UNL     1     -20.211  -3.648  -8.456  1.00  0.00     0.004 C 
BRANCH  18  19
HETATM   19  C   UNL     1     -20.350  -4.316  -9.823  1.00  0.00     0.027 C 
BRANCH  19  20
HETATM   20  C   UNL     1     -21.623  -3.910 -10.503  1.00  0.00    -0.030 C 
HETATM   21  C   UNL     1     -21.664  -3.032 -11.517  1.00  0.00    -0.027 C 
BRANCH  21  22
HETATM   22  C   UNL     1     -22.944  -2.597 -12.184  1.00  0.00    -0.001 C 
HETATM   23  C   UNL     1     -22.942  -2.960 -13.670  1.00  0.00     0.013 C 
HETATM   24  C   UNL     1     -24.155  -3.225 -11.493  1.00  0.00     0.013 C 
ENDBRANCH  21  22
ENDBRANCH  19  20
ENDBRANCH  18  19
ENDBRANCH  17  18
ENDBRANCH  16  17
ENDBRANCH   2  16
TORSDOF 10
ENDMDL
MODEL 7
REMARK VINA RESULT:      -7.2      2.017      3.047
REMARK  10 active torsions:
REMARK  status: ('A' for Active; 'I' for Inactive)
REMARK    1  A    between atoms: O_2  and  C_3 
REMARK    2  A    between atoms: C_5  and  C_6 
REMARK    3  A    between atoms: C_6  and  N_7 
REMARK       I    between atoms: N_7  and  C_8 
REMARK    4  A    between atoms: C_8  and  C_10 
REMARK    5  A    between atoms: C_10  and  C_11 
REMARK    6  A    between atoms: C_11  and  C_12 
REMARK    7  A    between atoms: C_12  and  C_13 
REMARK    8  A    between atoms: C_13  and  C_14 
REMARK    9  A    between atoms: C_15  and  C_16 
REMARK   10  A    between atoms: C_21  and  O_22 
ROOT
HETATM    1  N   UNL     1     -20.745  -6.253  -5.155  1.00  0.00    -0.357 N 
HETATM    2  C   UNL     1     -21.052  -7.587  -5.096  1.00  0.00     0.217 C 
HETATM    3  O   UNL     1     -20.841  -8.377  -6.026  1.00  0.00    -0.274 OA
HETATM    4  H   UNL     1     -20.954  -5.675  -4.352  1.00  0.00     0.162 HD
ENDROOT
BRANCH   1   5
HETATM    5  C   UNL     1     -20.149  -5.676  -6.338  1.00  0.00     0.161 C 
BRANCH   5   6
HETATM    6  C   UNL     1     -21.139  -5.084  -7.317  1.00  0.00    -0.038 A 
HETATM    7  C   UNL     1     -20.840  -4.925  -8.682  1.00  0.00     0.048 A 
HETATM    8  C   UNL     1     -21.783  -4.400  -9.581  1.00  0.00     0.101 A 
HETATM    9  C   UNL     1     -23.043  -4.036  -9.100  1.00  0.00     0.099 A 
HETATM   10  C   UNL     1     -23.367  -4.199  -7.752  1.00  0.00     0.040 A 
HETATM   11  C   UNL     1     -22.418  -4.726  -6.872  1.00  0.00     0.012 A 
BRANCH   8  12
HETATM   12  O   UNL     1     -21.549  -4.212 -10.921  1.00  0.00    -0.353 OA
HETATM   13  C   UNL     1     -20.317  -3.596 -11.277  1.00  0.00     0.210 C 
ENDBRANCH   8  12
BRANCH   9  14
HETATM   14  O   UNL     1     -23.968  -3.512  -9.965  1.00  0.00    -0.358 OA
HETATM   15  H   UNL     1     -24.816  -3.960  -9.836  1.00  0.00     0.217 HD
ENDBRANCH   9  14
ENDBRANCH   5   6
ENDBRANCH   1   5
BRANCH   2  16
HETATM   16  C   UNL     1     -21.670  -8.003  -3.781  1.00  0.00     0.103 C 
BRANCH  16  17
HETATM   17  C   UNL     1     -21.496  -6.921  -2.722  1.00  0.00     0.010 C 
BRANCH  17  18
HETATM   18  C   UNL     1     -21.151  -7.507  -1.353  1.00  0.00     0.004 C 
BRANCH  18  19
HETATM   19  C   UNL     1     -22.364  -7.439  -0.427  1.00  0.00     0.027 C 
BRANCH  19  20
HETATM   20  C   UNL     1     -22.684  -8.783   0.155  1.00  0.00    -0.030 C 
HETATM   21  C   UNL     1     -23.054  -9.835  -0.591  1.00  0.00    -0.027 C 
BRANCH  21  22
HETATM   22  C   UNL     1     -23.408 -11.180  -0.009  1.00  0.00    -0.001 C 
HETATM   23  C   UNL     1     -24.068 -12.077  -1.057  1.00  0.00     0.013 C 
HETATM   24  C   UNL     1     -22.166 -11.867   0.560  1.00  0.00     0.013 C 
ENDBRANCH  21  22
ENDBRANCH  19  20
ENDBRANCH  18  19
ENDBRANCH  17  18
ENDBRANCH  16  17
ENDBRANCH   2  16
TORSDOF 10
ENDMDL
MODEL 8
REMARK VINA RESULT:      -7.2      3.195      4.299
REMARK  10 active torsions:
REMARK  status: ('A' for Active; 'I' for Inactive)
REMARK    1  A    between atoms: O_2  and  C_3 
REMARK    2  A    between atoms: C_5  and  C_6 
REMARK    3  A    between atoms: C_6  and  N_7 
REMARK       I    between atoms: N_7  and  C_8 
REMARK    4  A    between atoms: C_8  and  C_10 
REMARK    5  A    between atoms: C_10  and  C_11 
REMARK    6  A    between atoms: C_11  and  C_12 
REMARK    7  A    between atoms: C_12  and  C_13 
REMARK    8  A    between atoms: C_13  and  C_14 
REMARK    9  A    between atoms: C_15  and  C_16 
REMARK   10  A    between atoms: C_21  and  O_22 
ROOT
HETATM    1  N   UNL     1     -20.559  -5.653  -6.076  1.00  0.00    -0.357 N 
HETATM    2  C   UNL     1     -21.600  -6.274  -5.438  1.00  0.00     0.217 C 
HETATM    3  O   UNL     1     -22.730  -5.779  -5.334  1.00  0.00    -0.274 OA
HETATM    4  H   UNL     1     -19.666  -6.125  -6.113  1.00  0.00     0.162 HD
ENDROOT
BRANCH   1   5
HETATM    5  C   UNL     1     -20.723  -4.346  -6.672  1.00  0.00     0.161 C 
BRANCH   5   6
HETATM    6  C   UNL     1     -21.074  -4.365  -8.143  1.00  0.00    -0.038 A 
HETATM    7  C   UNL     1     -22.398  -4.236  -8.599  1.00  0.00     0.048 A 
HETATM    8  C   UNL     1     -22.702  -4.226  -9.971  1.00  0.00     0.101 A 
HETATM    9  C   UNL     1     -21.659  -4.344 -10.893  1.00  0.00     0.099 A 
HETATM   10  C   UNL     1     -20.336  -4.458 -10.464  1.00  0.00     0.040 A 
HETATM   11  C   UNL     1     -20.051  -4.461  -9.095  1.00  0.00     0.012 A 
BRANCH   8  12
HETATM   12  O   UNL     1     -23.974  -4.113 -10.478  1.00  0.00    -0.353 OA
HETATM   13  C   UNL     1     -24.888  -3.309  -9.742  1.00  0.00     0.210 C 
ENDBRANCH   8  12
BRANCH   9  14
HETATM   14  O   UNL     1     -21.944  -4.347 -12.234  1.00  0.00    -0.358 OA
HETATM   15  H   UNL     1     -21.916  -3.440 -12.568  1.00  0.00     0.217 HD
ENDBRANCH   9  14
ENDBRANCH   5   6
ENDBRANCH   1   5
BRANCH   2  16
HETATM   16  C   UNL     1     -21.236  -7.630  -4.879  1.00  0.00     0.103 C 
BRANCH  16  17
HETATM   17  C   UNL     1     -21.692  -7.771  -3.431  1.00  0.00     0.010 C 
BRANCH  17  18
HETATM   18  C   UNL     1     -20.518  -8.011  -2.480  1.00  0.00     0.004 C 
BRANCH  18  19
HETATM   19  C   UNL     1     -19.857  -9.354  -2.783  1.00  0.00     0.027 C 
BRANCH  19  20
HETATM   20  C   UNL     1     -18.365  -9.228  -2.845  1.00  0.00    -0.030 C 
HETATM   21  C   UNL     1     -17.595 -10.016  -3.612  1.00  0.00    -0.027 C 
BRANCH  21  22
HETATM   22  C   UNL     1     -16.091  -9.915  -3.654  1.00  0.00    -0.001 C 
HETATM   23  C   UNL     1     -15.442 -11.032  -2.835  1.00  0.00     0.013 C 
HETATM   24  C   UNL     1     -15.586  -9.963  -5.097  1.00  0.00     0.013 C 
ENDBRANCH  21  22
ENDBRANCH  19  20
ENDBRANCH  18  19
ENDBRANCH  17  18
ENDBRANCH  16  17
ENDBRANCH   2  16
TORSDOF 10
ENDMDL
MODEL 9
REMARK VINA RESULT:      -6.9      3.506     10.157
REMARK  10 active torsions:
REMARK  status: ('A' for Active; 'I' for Inactive)
REMARK    1  A    between atoms: O_2  and  C_3 
REMARK    2  A    between atoms: C_5  and  C_6 
REMARK    3  A    between atoms: C_6  and  N_7 
REMARK       I    between atoms: N_7  and  C_8 
REMARK    4  A    between atoms: C_8  and  C_10 
REMARK    5  A    between atoms: C_10  and  C_11 
REMARK    6  A    between atoms: C_11  and  C_12 
REMARK    7  A    between atoms: C_12  and  C_13 
REMARK    8  A    between atoms: C_13  and  C_14 
REMARK    9  A    between atoms: C_15  and  C_16 
REMARK   10  A    between atoms: C_21  and  O_22 
ROOT
HETATM    1  N   UNL     1     -20.877  -7.084  -3.770  1.00  0.00    -0.357 N 
HETATM    2  C   UNL     1     -21.082  -7.220  -5.118  1.00  0.00     0.217 C 
HETATM    3  O   UNL     1     -20.854  -8.266  -5.741  1.00  0.00    -0.274 OA
HETATM    4  H   UNL     1     -21.085  -6.194  -3.338  1.00  0.00     0.162 HD
ENDROOT
BRANCH   1   5
HETATM    5  C   UNL     1     -20.361  -8.179  -2.980  1.00  0.00     0.161 C 
BRANCH   5   6
HETATM    6  C   UNL     1     -21.402  -8.904  -2.155  1.00  0.00    -0.038 A 
HETATM    7  C   UNL     1     -21.870 -10.185  -2.496  1.00  0.00     0.048 A 
HETATM    8  C   UNL     1     -22.815 -10.855  -1.702  1.00  0.00     0.101 A 
HETATM    9  C   UNL     1     -23.292 -10.228  -0.549  1.00  0.00     0.099 A 
HETATM   10  C   UNL     1     -22.831  -8.962  -0.182  1.00  0.00     0.040 A 
HETATM   11  C   UNL     1     -21.887  -8.312  -0.982  1.00  0.00     0.012 A 
BRANCH   8  12
HETATM   12  O   UNL     1     -23.316 -12.102  -1.987  1.00  0.00    -0.353 OA
HETATM   13  C   UNL     1     -22.504 -12.953  -2.786  1.00  0.00     0.210 C 
ENDBRANCH   8  12
BRANCH   9  14
HETATM   14  O   UNL     1     -24.223 -10.866   0.229  1.00  0.00    -0.358 OA
HETATM   15  H   UNL     1     -25.104 -10.722  -0.145  1.00  0.00     0.217 HD
ENDBRANCH   9  14
ENDBRANCH   5   6
ENDBRANCH   1   5
BRANCH   2  16
HETATM   16  C   UNL     1     -21.621  -5.969  -5.772  1.00  0.00     0.103 C 
BRANCH  16  17
HETATM   17  C   UNL     1     -20.500  -4.992  -6.106  1.00  0.00     0.010 C 
BRANCH  17  18
HETATM   18  C   UNL     1     -19.805  -5.344  -7.421  1.00  0.00     0.004 C 
BRANCH  18  19
HETATM   19  C   UNL     1     -19.936  -4.190  -8.414  1.00  0.00     0.027 C 
BRANCH  19  20
HETATM   20  C   UNL     1     -20.951  -4.492  -9.474  1.00  0.00    -0.030 C 
HETATM   21  C   UNL     1     -21.112  -3.736 -10.571  1.00  0.00    -0.027 C 
BRANCH  21  22
HETATM   22  C   UNL     1     -22.152  -4.017 -11.625  1.00  0.00    -0.001 C 
HETATM   23  C   UNL     1     -23.346  -4.769 -11.033  1.00  0.00     0.013 C 
HETATM   24  C   UNL     1     -22.624  -2.719 -12.280  1.00  0.00     0.013 C 
ENDBRANCH  21  22
ENDBRANCH  19  20
ENDBRANCH  18  19
ENDBRANCH  17  18
ENDBRANCH  16  17
ENDBRANCH   2  16
TORSDOF 10
ENDMDL
