REMARK  5 active torsions:
REMARK  status: ('A' for Active; 'I' for Inactive)
REMARK       I    between atoms: C_2  and  N_4 
REMARK    1  A    between atoms: N_4  and  C_5 
REMARK    2  A    between atoms: C_9  and  O_10 
REMARK    3  A    between atoms: O_10  and  C_11 
REMARK    4  A    between atoms: C_13  and  C_14 
REMARK    5  A    between atoms: C_17  and  C_18 
ROOT
HETATM    1  C   UNL     1       8.478   2.876   4.053  1.00  0.00     0.151 A 
HETATM    2  C   UNL     1       9.341   3.832   3.565  1.00  0.00     0.086 A 
HETATM    3  C   UNL     1      10.378   4.209   4.401  1.00  0.00     0.047 A 
HETATM    4  N   UNL     1      10.519   3.672   5.634  1.00  0.00    -0.352 N 
ATOM      5  HN  UNL     1      11.266   3.970   6.262  1.00  0.00     0.166 HD
HETATM    6  C   UNL     1       9.635   2.732   5.996  1.00  0.00     0.182 A 
HETATM    7  N   UNL     1       8.618   2.288   5.254  1.00  0.00    -0.333 N 
ATOM      8  HN  UNL     1       7.989   1.552   5.576  1.00  0.00     0.168 HD
ENDROOT
BRANCH   1   9
HETATM    9  O   UNL     1       7.422   2.513   3.223  1.00  0.00    -0.291 OA
BRANCH   9  10
HETATM   10  C   UNL     1       6.270   2.012   3.806  1.00  0.00     0.105 A 
HETATM   11  C   UNL     1       5.524   1.019   3.117  1.00  0.00     0.085 A 
HETATM   12  N   UNL     1       5.814   0.443   1.875  1.00  0.00    -0.333 N 
HETATM   13  C   UNL     1       4.345   0.552   3.707  1.00  0.00     0.038 A 
HETATM   14  C   UNL     1       4.830  -0.350   1.518  1.00  0.00     0.152 C 
ATOM     15  HN  UNL     1       6.660   0.613   1.331  1.00  0.00     0.168 HD
HETATM   16  S   UNL     1       3.625  -0.621   2.685  1.00  0.00    -0.052 SA
HETATM   17  C   UNL     1       3.873   1.022   4.943  1.00  0.00     0.021 A 
HETATM   18  C   UNL     1       4.585   2.039   5.572  1.00  0.00     0.004 A 
HETATM   19  C   UNL     1       5.748   2.543   5.003  1.00  0.00     0.040 A 
BRANCH  14  20
HETATM   20  N   UNL     1       4.803  -0.985   0.298  1.00  0.00    -0.307 N 
HETATM   21  C   UNL     1       3.675  -1.515  -0.294  1.00  0.00     0.219 C 
HETATM   22  C   UNL     1       3.970  -2.178  -1.614  1.00  0.00     0.117 C 
HETATM   23  O   UNL     1       2.525  -1.481   0.131  1.00  0.00    -0.274 OA
HETATM   24  H   UNL     1       5.640  -0.851  -0.252  1.00  0.00     0.171 HD
ENDBRANCH  14  20
ENDBRANCH   9  10
ENDBRANCH   1   9
BRANCH   3  25
HETATM   25  C   UNL     1      11.392   5.226   4.033  1.00  0.00    -0.009 A 
HETATM   26  C   UNL     1      12.039   5.989   5.021  1.00  0.00     0.014 A 
HETATM   27  C   UNL     1      12.993   6.960   4.694  1.00  0.00     0.017 A 
HETATM   28  C   UNL     1      13.334   7.198   3.359  1.00  0.00     0.048 A 
HETATM   29  C   UNL     1      12.711   6.435   2.363  1.00  0.00     0.017 A 
HETATM   30  C   UNL     1      11.759   5.464   2.696  1.00  0.00     0.014 A 
BRANCH  28  31
HETATM   31  C   UNL     1      14.348   8.250   2.982  1.00  0.00     0.417 C 
HETATM   32  F   UNL     1      14.860   8.924   4.048  1.00  0.00    -0.166 F 
HETATM   33  F   UNL     1      15.418   7.729   2.319  1.00  0.00    -0.166 F 
HETATM   34  F   UNL     1      13.825   9.200   2.157  1.00  0.00    -0.166 F 
ENDBRANCH  28  31
ENDBRANCH   3  25
TORSDOF 5
