MODEL 1
REMARK VINA RESULT:      -9.3      0.000      0.000
REMARK  5 active torsions:
REMARK  status: ('A' for Active; 'I' for Inactive)
REMARK       I    between atoms: C_2  and  N_4 
REMARK    1  A    between atoms: N_4  and  C_5 
REMARK    2  A    between atoms: C_9  and  O_10 
REMARK    3  A    between atoms: O_10  and  C_11 
REMARK    4  A    between atoms: C_13  and  C_14 
REMARK    5  A    between atoms: C_17  and  C_18 
ROOT
HETATM    1  C   UNL     1     -20.552  -8.174  -4.328  1.00  0.00     0.151 A 
HETATM    2  C   UNL     1     -20.509  -7.635  -5.595  1.00  0.00     0.086 A 
HETATM    3  C   UNL     1     -21.019  -6.356  -5.736  1.00  0.00     0.047 A 
HETATM    4  N   UNL     1     -21.544  -5.687  -4.685  1.00  0.00    -0.352 N 
ATOM      5  HN  UNL     1     -21.947  -4.756  -4.794  1.00  0.00     0.166 HD
HETATM    6  C   UNL     1     -21.512  -6.299  -3.493  1.00  0.00     0.182 A 
HETATM    7  N   UNL     1     -21.023  -7.518  -3.253  1.00  0.00    -0.333 N 
ATOM      8  HN  UNL     1     -21.006  -7.924  -2.318  1.00  0.00     0.168 HD
ENDROOT
BRANCH   1   9
HETATM    9  O   UNL     1     -20.060  -9.468  -4.189  1.00  0.00    -0.291 OA
BRANCH   9  10
HETATM   10  C   UNL     1     -18.697  -9.638  -4.009  1.00  0.00     0.105 A 
HETATM   11  C   UNL     1     -17.970 -10.419  -4.946  1.00  0.00     0.085 A 
HETATM   12  N   UNL     1     -18.464 -11.063  -6.086  1.00  0.00    -0.333 N 
HETATM   13  C   UNL     1     -16.601 -10.606  -4.726  1.00  0.00     0.038 A 
HETATM   14  C   UNL     1     -17.510 -11.781  -6.633  1.00  0.00     0.152 C 
ATOM     15  HN  UNL     1     -19.418 -10.986  -6.437  1.00  0.00     0.168 HD
HETATM   16  S   UNL     1     -15.955 -11.587  -5.975  1.00  0.00    -0.052 SA
HETATM   17  C   UNL     1     -15.924 -10.058  -3.626  1.00  0.00     0.021 A 
HETATM   18  C   UNL     1     -16.666  -9.348  -2.687  1.00  0.00     0.004 A 
HETATM   19  C   UNL     1     -18.032  -9.162  -2.861  1.00  0.00     0.040 A 
BRANCH  14  20
HETATM   20  N   UNL     1     -17.733 -12.593  -7.721  1.00  0.00    -0.307 N 
HETATM   21  C   UNL     1     -18.962 -13.093  -8.097  1.00  0.00     0.219 C 
HETATM   22  C   UNL     1     -18.880 -13.980  -9.312  1.00  0.00     0.117 C 
HETATM   23  O   UNL     1     -20.048 -12.878  -7.568  1.00  0.00    -0.274 OA
HETATM   24  H   UNL     1     -16.958 -12.631  -8.369  1.00  0.00     0.171 HD
ENDBRANCH  14  20
ENDBRANCH   9  10
ENDBRANCH   1   9
BRANCH   3  25
HETATM   25  C   UNL     1     -21.053  -5.631  -7.029  1.00  0.00    -0.009 A 
HETATM   26  C   UNL     1     -22.223  -4.981  -7.461  1.00  0.00     0.014 A 
HETATM   27  C   UNL     1     -22.277  -4.299  -8.682  1.00  0.00     0.017 A 
HETATM   28  C   UNL     1     -21.154  -4.241  -9.514  1.00  0.00     0.048 A 
HETATM   29  C   UNL     1     -19.976  -4.869  -9.091  1.00  0.00     0.017 A 
HETATM   30  C   UNL     1     -19.926  -5.549  -7.868  1.00  0.00     0.014 A 
BRANCH  28  31
HETATM   31  C   UNL     1     -21.195  -3.524 -10.841  1.00  0.00     0.417 C 
HETATM   32  F   UNL     1     -20.105  -2.742 -11.074  1.00  0.00    -0.166 F 
HETATM   33  F   UNL     1     -21.272  -4.383 -11.896  1.00  0.00    -0.166 F 
HETATM   34  F   UNL     1     -22.275  -2.701 -10.951  1.00  0.00    -0.166 F 
ENDBRANCH  28  31
ENDBRANCH   3  25
TORSDOF 5
ENDMDL
MODEL 2
REMARK VINA RESULT:      -9.3      3.410      4.171
REMARK  5 active torsions:
REMARK  status: ('A' for Active; 'I' for Inactive)
REMARK       I    between atoms: C_2  and  N_4 
REMARK    1  A    between atoms: N_4  and  C_5 
REMARK    2  A    between atoms: C_9  and  O_10 
REMARK    3  A    between atoms: O_10  and  C_11 
REMARK    4  A    between atoms: C_13  and  C_14 
REMARK    5  A    between atoms: C_17  and  C_18 
ROOT
HETATM    1  C   UNL     1     -21.258  -8.362  -1.617  1.00  0.00     0.151 A 
HETATM    2  C   UNL     1     -20.926  -7.983  -2.898  1.00  0.00     0.086 A 
HETATM    3  C   UNL     1     -21.354  -6.729  -3.299  1.00  0.00     0.047 A 
HETATM    4  N   UNL     1     -22.071  -5.933  -2.474  1.00  0.00    -0.352 N 
ATOM      5  HN  UNL     1     -22.412  -5.020  -2.778  1.00  0.00     0.166 HD
HETATM    6  C   UNL     1     -22.317  -6.394  -1.240  1.00  0.00     0.182 A 
HETATM    7  N   UNL     1     -21.928  -7.576  -0.756  1.00  0.00    -0.333 N 
ATOM      8  HN  UNL     1     -22.127  -7.864   0.202  1.00  0.00     0.168 HD
ENDROOT
BRANCH   1   9
HETATM    9  O   UNL     1     -20.848  -9.632  -1.221  1.00  0.00    -0.291 OA
BRANCH   9  10
HETATM   10  C   UNL     1     -21.792 -10.645  -1.183  1.00  0.00     0.105 A 
HETATM   11  C   UNL     1     -21.799 -11.619  -2.216  1.00  0.00     0.085 A 
HETATM   12  N   UNL     1     -20.936 -11.705  -3.314  1.00  0.00    -0.333 N 
HETATM   13  C   UNL     1     -22.783 -12.613  -2.178  1.00  0.00     0.038 A 
HETATM   14  C   UNL     1     -21.331 -12.673  -4.109  1.00  0.00     0.152 C 
ATOM     15  HN  UNL     1     -20.124 -11.108  -3.471  1.00  0.00     0.168 HD
HETATM   16  S   UNL     1     -22.592 -13.652  -3.528  1.00  0.00    -0.052 SA
HETATM   17  C   UNL     1     -23.755 -12.686  -1.167  1.00  0.00     0.021 A 
HETATM   18  C   UNL     1     -23.768 -11.686  -0.199  1.00  0.00     0.004 A 
HETATM   19  C   UNL     1     -22.821 -10.670  -0.220  1.00  0.00     0.040 A 
BRANCH  14  20
HETATM   20  N   UNL     1     -20.719 -12.930  -5.314  1.00  0.00    -0.307 N 
HETATM   21  C   UNL     1     -20.591 -12.024  -6.346  1.00  0.00     0.219 C 
HETATM   22  C   UNL     1     -19.904 -12.612  -7.551  1.00  0.00     0.117 C 
HETATM   23  O   UNL     1     -20.954 -10.853  -6.358  1.00  0.00    -0.274 OA
HETATM   24  H   UNL     1     -20.167 -13.777  -5.320  1.00  0.00     0.171 HD
ENDBRANCH  14  20
ENDBRANCH   9  10
ENDBRANCH   1   9
BRANCH   3  25
HETATM   25  C   UNL     1     -21.085  -6.168  -4.645  1.00  0.00    -0.009 A 
HETATM   26  C   UNL     1     -20.313  -5.003  -4.799  1.00  0.00     0.014 A 
HETATM   27  C   UNL     1     -20.055  -4.453  -6.060  1.00  0.00     0.017 A 
HETATM   28  C   UNL     1     -20.562  -5.057  -7.215  1.00  0.00     0.048 A 
HETATM   29  C   UNL     1     -21.319  -6.228  -7.080  1.00  0.00     0.017 A 
HETATM   30  C   UNL     1     -21.573  -6.774  -5.817  1.00  0.00     0.014 A 
BRANCH  28  31
HETATM   31  C   UNL     1     -20.309  -4.473  -8.583  1.00  0.00     0.417 C 
HETATM   32  F   UNL     1     -19.746  -5.351  -9.458  1.00  0.00    -0.166 F 
HETATM   33  F   UNL     1     -21.451  -4.030  -9.180  1.00  0.00    -0.166 F 
HETATM   34  F   UNL     1     -19.471  -3.400  -8.541  1.00  0.00    -0.166 F 
ENDBRANCH  28  31
ENDBRANCH   3  25
TORSDOF 5
ENDMDL
MODEL 3
REMARK VINA RESULT:      -9.1      3.071      3.922
REMARK  5 active torsions:
REMARK  status: ('A' for Active; 'I' for Inactive)
REMARK       I    between atoms: C_2  and  N_4 
REMARK    1  A    between atoms: N_4  and  C_5 
REMARK    2  A    between atoms: C_9  and  O_10 
REMARK    3  A    between atoms: O_10  and  C_11 
REMARK    4  A    between atoms: C_13  and  C_14 
REMARK    5  A    between atoms: C_17  and  C_18 
ROOT
HETATM    1  C   UNL     1     -21.598  -8.223  -3.646  1.00  0.00     0.151 A 
HETATM    2  C   UNL     1     -21.563  -7.768  -4.946  1.00  0.00     0.086 A 
HETATM    3  C   UNL     1     -21.391  -6.406  -5.116  1.00  0.00     0.047 A 
HETATM    4  N   UNL     1     -21.279  -5.572  -4.057  1.00  0.00    -0.352 N 
ATOM      5  HN  UNL     1     -21.180  -4.564  -4.181  1.00  0.00     0.166 HD
HETATM    6  C   UNL     1     -21.303  -6.127  -2.837  1.00  0.00     0.182 A 
HETATM    7  N   UNL     1     -21.442  -7.428  -2.573  1.00  0.00    -0.333 N 
ATOM      8  HN  UNL     1     -21.431  -7.795  -1.621  1.00  0.00     0.168 HD
ENDROOT
BRANCH   1   9
HETATM    9  O   UNL     1     -21.795  -9.590  -3.473  1.00  0.00    -0.291 OA
BRANCH   9  10
HETATM   10  C   UNL     1     -21.742 -10.104  -2.188  1.00  0.00     0.105 A 
HETATM   11  C   UNL     1     -20.530 -10.683  -1.726  1.00  0.00     0.085 A 
HETATM   12  N   UNL     1     -19.321 -10.801  -2.423  1.00  0.00    -0.333 N 
HETATM   13  C   UNL     1     -20.508 -11.228  -0.439  1.00  0.00     0.038 A 
HETATM   14  C   UNL     1     -18.468 -11.497  -1.707  1.00  0.00     0.152 C 
ATOM     15  HN  UNL     1     -19.133 -10.407  -3.344  1.00  0.00     0.168 HD
HETATM   16  S   UNL     1     -18.951 -11.872  -0.122  1.00  0.00    -0.052 SA
HETATM   17  C   UNL     1     -21.627 -11.226   0.409  1.00  0.00     0.021 A 
HETATM   18  C   UNL     1     -22.821 -10.710  -0.084  1.00  0.00     0.004 A 
HETATM   19  C   UNL     1     -22.885 -10.182  -1.368  1.00  0.00     0.040 A 
BRANCH  14  20
HETATM   20  N   UNL     1     -17.224 -11.846  -2.180  1.00  0.00    -0.307 N 
HETATM   21  C   UNL     1     -16.278 -10.958  -2.648  1.00  0.00     0.219 C 
HETATM   22  C   UNL     1     -15.027 -11.645  -3.130  1.00  0.00     0.117 C 
HETATM   23  O   UNL     1     -16.359  -9.735  -2.690  1.00  0.00    -0.274 OA
HETATM   24  H   UNL     1     -16.955 -12.795  -1.961  1.00  0.00     0.171 HD
ENDBRANCH  14  20
ENDBRANCH   9  10
ENDBRANCH   1   9
BRANCH   3  25
HETATM   25  C   UNL     1     -21.334  -5.752  -6.445  1.00  0.00    -0.009 A 
HETATM   26  C   UNL     1     -22.431  -5.023  -6.937  1.00  0.00     0.014 A 
HETATM   27  C   UNL     1     -22.400  -4.405  -8.194  1.00  0.00     0.017 A 
HETATM   28  C   UNL     1     -21.263  -4.496  -9.001  1.00  0.00     0.048 A 
HETATM   29  C   UNL     1     -20.155  -5.205  -8.519  1.00  0.00     0.017 A 
HETATM   30  C   UNL     1     -20.190  -5.819  -7.262  1.00  0.00     0.014 A 
BRANCH  28  31
HETATM   31  C   UNL     1     -21.213  -3.852 -10.365  1.00  0.00     0.417 C 
HETATM   32  F   UNL     1     -20.100  -3.096 -10.573  1.00  0.00    -0.166 F 
HETATM   33  F   UNL     1     -21.240  -4.766 -11.375  1.00  0.00    -0.166 F 
HETATM   34  F   UNL     1     -22.272  -3.023 -10.584  1.00  0.00    -0.166 F 
ENDBRANCH  28  31
ENDBRANCH   3  25
TORSDOF 5
ENDMDL
MODEL 4
REMARK VINA RESULT:      -9.1      2.879      4.059
REMARK  5 active torsions:
REMARK  status: ('A' for Active; 'I' for Inactive)
REMARK       I    between atoms: C_2  and  N_4 
REMARK    1  A    between atoms: N_4  and  C_5 
REMARK    2  A    between atoms: C_9  and  O_10 
REMARK    3  A    between atoms: O_10  and  C_11 
REMARK    4  A    between atoms: C_13  and  C_14 
REMARK    5  A    between atoms: C_17  and  C_18 
ROOT
HETATM    1  C   UNL     1     -20.963  -8.178  -4.333  1.00  0.00     0.151 A 
HETATM    2  C   UNL     1     -20.907  -7.660  -5.608  1.00  0.00     0.086 A 
HETATM    3  C   UNL     1     -21.216  -6.317  -5.740  1.00  0.00     0.047 A 
HETATM    4  N   UNL     1     -21.567  -5.567  -4.671  1.00  0.00    -0.352 N 
ATOM      5  HN  UNL     1     -21.823  -4.584  -4.771  1.00  0.00     0.166 HD
HETATM    6  C   UNL     1     -21.565  -6.170  -3.474  1.00  0.00     0.182 A 
HETATM    7  N   UNL     1     -21.262  -7.449  -3.243  1.00  0.00    -0.333 N 
ATOM      8  HN  UNL     1     -21.256  -7.847  -2.304  1.00  0.00     0.168 HD
ENDROOT
BRANCH   1   9
HETATM    9  O   UNL     1     -20.675  -9.533  -4.202  1.00  0.00    -0.291 OA
BRANCH   9  10
HETATM   10  C   UNL     1     -19.489  -9.896  -3.586  1.00  0.00     0.105 A 
HETATM   11  C   UNL     1     -19.529 -10.796  -2.488  1.00  0.00     0.085 A 
HETATM   12  N   UNL     1     -20.657 -11.403  -1.924  1.00  0.00    -0.333 N 
HETATM   13  C   UNL     1     -18.324 -11.122  -1.857  1.00  0.00     0.038 A 
HETATM   14  C   UNL     1     -20.304 -12.077  -0.853  1.00  0.00     0.152 C 
ATOM     15  HN  UNL     1     -21.607 -11.333  -2.289  1.00  0.00     0.168 HD
HETATM   16  S   UNL     1     -18.635 -12.205  -0.565  1.00  0.00    -0.052 SA
HETATM   17  C   UNL     1     -17.086 -10.600  -2.263  1.00  0.00     0.021 A 
HETATM   18  C   UNL     1     -17.075  -9.672  -3.300  1.00  0.00     0.004 A 
HETATM   19  C   UNL     1     -18.256  -9.307  -3.934  1.00  0.00     0.040 A 
BRANCH  14  20
HETATM   20  N   UNL     1     -21.222 -12.705  -0.044  1.00  0.00    -0.307 N 
HETATM   21  C   UNL     1     -22.465 -12.203   0.282  1.00  0.00     0.219 C 
HETATM   22  C   UNL     1     -23.229 -13.106   1.215  1.00  0.00     0.117 C 
HETATM   23  O   UNL     1     -22.972 -11.157  -0.110  1.00  0.00    -0.274 OA
HETATM   24  H   UNL     1     -21.015 -13.679   0.131  1.00  0.00     0.171 HD
ENDBRANCH  14  20
ENDBRANCH   9  10
ENDBRANCH   1   9
BRANCH   3  25
HETATM   25  C   UNL     1     -21.208  -5.603  -7.039  1.00  0.00    -0.009 A 
HETATM   26  C   UNL     1     -22.346  -4.911  -7.489  1.00  0.00     0.014 A 
HETATM   27  C   UNL     1     -22.362  -4.238  -8.716  1.00  0.00     0.017 A 
HETATM   28  C   UNL     1     -21.230  -4.234  -9.537  1.00  0.00     0.048 A 
HETATM   29  C   UNL     1     -20.081  -4.905  -9.097  1.00  0.00     0.017 A 
HETATM   30  C   UNL     1     -20.071  -5.575  -7.868  1.00  0.00     0.014 A 
BRANCH  28  31
HETATM   31  C   UNL     1     -21.228  -3.529 -10.871  1.00  0.00     0.417 C 
HETATM   32  F   UNL     1     -21.349  -4.370 -11.935  1.00  0.00    -0.166 F 
HETATM   33  F   UNL     1     -22.246  -2.630 -10.987  1.00  0.00    -0.166 F 
HETATM   34  F   UNL     1     -20.082  -2.823 -11.082  1.00  0.00    -0.166 F 
ENDBRANCH  28  31
ENDBRANCH   3  25
TORSDOF 5
ENDMDL
MODEL 5
REMARK VINA RESULT:      -8.8      2.522      4.036
REMARK  5 active torsions:
REMARK  status: ('A' for Active; 'I' for Inactive)
REMARK       I    between atoms: C_2  and  N_4 
REMARK    1  A    between atoms: N_4  and  C_5 
REMARK    2  A    between atoms: C_9  and  O_10 
REMARK    3  A    between atoms: O_10  and  C_11 
REMARK    4  A    between atoms: C_13  and  C_14 
REMARK    5  A    between atoms: C_17  and  C_18 
ROOT
HETATM    1  C   UNL     1     -20.207  -7.649  -4.517  1.00  0.00     0.151 A 
HETATM    2  C   UNL     1     -20.108  -7.061  -5.758  1.00  0.00     0.086 A 
HETATM    3  C   UNL     1     -21.082  -6.131  -6.078  1.00  0.00     0.047 A 
HETATM    4  N   UNL     1     -22.082  -5.834  -5.217  1.00  0.00    -0.352 N 
ATOM      5  HN  UNL     1     -22.817  -5.171  -5.464  1.00  0.00     0.166 HD
HETATM    6  C   UNL     1     -22.066  -6.450  -4.027  1.00  0.00     0.182 A 
HETATM    7  N   UNL     1     -21.160  -7.341  -3.619  1.00  0.00    -0.333 N 
ATOM      8  HN  UNL     1     -21.188  -7.761  -2.690  1.00  0.00     0.168 HD
ENDROOT
BRANCH   1   9
HETATM    9  O   UNL     1     -19.242  -8.601  -4.203  1.00  0.00    -0.291 OA
BRANCH   9  10
HETATM   10  C   UNL     1     -19.312  -9.837  -4.822  1.00  0.00     0.105 A 
HETATM   11  C   UNL     1     -20.232 -10.802  -4.334  1.00  0.00     0.085 A 
HETATM   12  N   UNL     1     -21.128 -10.663  -3.268  1.00  0.00    -0.333 N 
HETATM   13  C   UNL     1     -20.262 -12.057  -4.951  1.00  0.00     0.038 A 
HETATM   14  C   UNL     1     -21.728 -11.810  -3.045  1.00  0.00     0.152 C 
ATOM     15  HN  UNL     1     -21.290  -9.803  -2.744  1.00  0.00     0.168 HD
HETATM   16  S   UNL     1     -21.435 -13.041  -4.180  1.00  0.00    -0.052 SA
HETATM   17  C   UNL     1     -19.425 -12.398  -6.025  1.00  0.00     0.021 A 
HETATM   18  C   UNL     1     -18.488 -11.461  -6.448  1.00  0.00     0.004 A 
HETATM   19  C   UNL     1     -18.414 -10.212  -5.842  1.00  0.00     0.040 A 
BRANCH  14  20
HETATM   20  N   UNL     1     -22.601 -11.993  -1.998  1.00  0.00    -0.307 N 
HETATM   21  C   UNL     1     -23.010 -11.004  -1.127  1.00  0.00     0.219 C 
HETATM   22  C   UNL     1     -23.942 -11.519  -0.061  1.00  0.00     0.117 C 
HETATM   23  O   UNL     1     -22.709  -9.815  -1.155  1.00  0.00    -0.274 OA
HETATM   24  H   UNL     1     -23.103 -12.869  -2.031  1.00  0.00     0.171 HD
ENDBRANCH  14  20
ENDBRANCH   9  10
ENDBRANCH   1   9
BRANCH   3  25
HETATM   25  C   UNL     1     -21.125  -5.409  -7.372  1.00  0.00    -0.009 A 
HETATM   26  C   UNL     1     -20.013  -5.406  -8.233  1.00  0.00     0.014 A 
HETATM   27  C   UNL     1     -20.030  -4.724  -9.455  1.00  0.00     0.017 A 
HETATM   28  C   UNL     1     -21.169  -4.020  -9.858  1.00  0.00     0.048 A 
HETATM   29  C   UNL     1     -22.291  -4.026  -9.020  1.00  0.00     0.017 A 
HETATM   30  C   UNL     1     -22.269  -4.712  -7.800  1.00  0.00     0.014 A 
BRANCH  28  31
HETATM   31  C   UNL     1     -21.205  -3.264 -11.164  1.00  0.00     0.417 C 
HETATM   32  F   UNL     1     -20.089  -2.519 -11.397  1.00  0.00    -0.166 F 
HETATM   33  F   UNL     1     -21.336  -4.089 -12.240  1.00  0.00    -0.166 F 
HETATM   34  F   UNL     1     -22.253  -2.396 -11.230  1.00  0.00    -0.166 F 
ENDBRANCH  28  31
ENDBRANCH   3  25
TORSDOF 5
ENDMDL
MODEL 6
REMARK VINA RESULT:      -8.8     14.330     17.553
REMARK  5 active torsions:
REMARK  status: ('A' for Active; 'I' for Inactive)
REMARK       I    between atoms: C_2  and  N_4 
REMARK    1  A    between atoms: N_4  and  C_5 
REMARK    2  A    between atoms: C_9  and  O_10 
REMARK    3  A    between atoms: O_10  and  C_11 
REMARK    4  A    between atoms: C_13  and  C_14 
REMARK    5  A    between atoms: C_17  and  C_18 
ROOT
HETATM    1  C   UNL     1     -33.729  -4.085 -15.555  1.00  0.00     0.151 A 
HETATM    2  C   UNL     1     -32.476  -4.650 -15.469  1.00  0.00     0.086 A 
HETATM    3  C   UNL     1     -31.607  -4.383 -16.513  1.00  0.00     0.047 A 
HETATM    4  N   UNL     1     -31.983  -3.618 -17.563  1.00  0.00    -0.352 N 
ATOM      5  HN  UNL     1     -31.354  -3.444 -18.347  1.00  0.00     0.166 HD
HETATM    6  C   UNL     1     -33.219  -3.100 -17.531  1.00  0.00     0.182 A 
HETATM    7  N   UNL     1     -34.118  -3.282 -16.561  1.00  0.00    -0.333 N 
ATOM      8  HN  UNL     1     -35.038  -2.842 -16.581  1.00  0.00     0.168 HD
ENDROOT
BRANCH   1   9
HETATM    9  O   UNL     1     -34.611  -4.372 -14.518  1.00  0.00    -0.291 OA
BRANCH   9  10
HETATM   10  C   UNL     1     -34.387  -3.785 -13.284  1.00  0.00     0.105 A 
HETATM   11  C   UNL     1     -34.717  -2.415 -13.102  1.00  0.00     0.085 A 
HETATM   12  N   UNL     1     -35.273  -1.540 -14.042  1.00  0.00    -0.333 N 
HETATM   13  C   UNL     1     -34.451  -1.832 -11.859  1.00  0.00     0.038 A 
HETATM   14  C   UNL     1     -35.324  -0.328 -13.538  1.00  0.00     0.152 C 
ATOM     15  HN  UNL     1     -35.591  -1.803 -14.975  1.00  0.00     0.168 HD
HETATM   16  S   UNL     1     -34.921  -0.184 -11.893  1.00  0.00    -0.052 SA
HETATM   17  C   UNL     1     -33.875  -2.540 -10.792  1.00  0.00     0.021 A 
HETATM   18  C   UNL     1     -33.502  -3.863 -11.010  1.00  0.00     0.004 A 
HETATM   19  C   UNL     1     -33.730  -4.468 -12.240  1.00  0.00     0.040 A 
BRANCH  14  20
HETATM   20  N   UNL     1     -35.746   0.756 -14.271  1.00  0.00    -0.307 N 
HETATM   21  C   UNL     1     -36.029   0.737 -15.621  1.00  0.00     0.219 C 
HETATM   22  C   UNL     1     -36.435   2.089 -16.148  1.00  0.00     0.117 C 
HETATM   23  O   UNL     1     -35.993  -0.229 -16.376  1.00  0.00    -0.274 OA
HETATM   24  H   UNL     1     -36.049   1.539 -13.708  1.00  0.00     0.171 HD
ENDBRANCH  14  20
ENDBRANCH   9  10
ENDBRANCH   1   9
BRANCH   3  25
HETATM   25  C   UNL     1     -30.225  -4.915 -16.579  1.00  0.00    -0.009 A 
HETATM   26  C   UNL     1     -29.639  -5.538 -15.463  1.00  0.00     0.014 A 
HETATM   27  C   UNL     1     -28.332  -6.039 -15.502  1.00  0.00     0.017 A 
HETATM   28  C   UNL     1     -27.567  -5.934 -16.668  1.00  0.00     0.048 A 
HETATM   29  C   UNL     1     -28.142  -5.331 -17.794  1.00  0.00     0.017 A 
HETATM   30  C   UNL     1     -29.449  -4.834 -17.750  1.00  0.00     0.014 A 
BRANCH  28  31
HETATM   31  C   UNL     1     -26.151  -6.453 -16.728  1.00  0.00     0.417 C 
HETATM   32  F   UNL     1     -25.670  -6.586 -17.995  1.00  0.00    -0.166 F 
HETATM   33  F   UNL     1     -25.271  -5.644 -16.076  1.00  0.00    -0.166 F 
HETATM   34  F   UNL     1     -26.026  -7.681 -16.152  1.00  0.00    -0.166 F 
ENDBRANCH  28  31
ENDBRANCH   3  25
TORSDOF 5
ENDMDL
MODEL 7
REMARK VINA RESULT:      -8.7      2.849      4.206
REMARK  5 active torsions:
REMARK  status: ('A' for Active; 'I' for Inactive)
REMARK       I    between atoms: C_2  and  N_4 
REMARK    1  A    between atoms: N_4  and  C_5 
REMARK    2  A    between atoms: C_9  and  O_10 
REMARK    3  A    between atoms: O_10  and  C_11 
REMARK    4  A    between atoms: C_13  and  C_14 
REMARK    5  A    between atoms: C_17  and  C_18 
ROOT
HETATM    1  C   UNL     1     -20.288  -7.860  -4.323  1.00  0.00     0.151 A 
HETATM    2  C   UNL     1     -20.235  -7.323  -5.590  1.00  0.00     0.086 A 
HETATM    3  C   UNL     1     -21.010  -6.198  -5.815  1.00  0.00     0.047 A 
HETATM    4  N   UNL     1     -21.784  -5.671  -4.841  1.00  0.00    -0.352 N 
ATOM      5  HN  UNL     1     -22.378  -4.859  -5.014  1.00  0.00     0.166 HD
HETATM    6  C   UNL     1     -21.739  -6.260  -3.638  1.00  0.00     0.182 A 
HETATM    7  N   UNL     1     -21.010  -7.331  -3.319  1.00  0.00    -0.333 N 
ATOM      8  HN  UNL     1     -21.000  -7.723  -2.377  1.00  0.00     0.168 HD
ENDROOT
BRANCH   1   9
HETATM    9  O   UNL     1     -19.527  -9.004  -4.102  1.00  0.00    -0.291 OA
BRANCH   9  10
HETATM   10  C   UNL     1     -20.184 -10.218  -3.988  1.00  0.00     0.105 A 
HETATM   11  C   UNL     1     -19.812 -11.108  -2.947  1.00  0.00     0.085 A 
HETATM   12  N   UNL     1     -18.833 -10.913  -1.966  1.00  0.00    -0.333 N 
HETATM   13  C   UNL     1     -20.464 -12.344  -2.871  1.00  0.00     0.038 A 
HETATM   14  C   UNL     1     -18.701 -12.007  -1.253  1.00  0.00     0.152 C 
ATOM     15  HN  UNL     1     -18.304 -10.052  -1.827  1.00  0.00     0.168 HD
HETATM   16  S   UNL     1     -19.835 -13.237  -1.550  1.00  0.00    -0.052 SA
HETATM   17  C   UNL     1     -21.462 -12.736  -3.777  1.00  0.00     0.021 A 
HETATM   18  C   UNL     1     -21.768 -11.875  -4.827  1.00  0.00     0.004 A 
HETATM   19  C   UNL     1     -21.124 -10.650  -4.946  1.00  0.00     0.040 A 
BRANCH  14  20
HETATM   20  N   UNL     1     -17.746 -12.134  -0.270  1.00  0.00    -0.307 N 
HETATM   21  C   UNL     1     -16.419 -11.781  -0.405  1.00  0.00     0.219 C 
HETATM   22  C   UNL     1     -15.613 -12.070   0.834  1.00  0.00     0.117 C 
HETATM   23  O   UNL     1     -15.880 -11.270  -1.382  1.00  0.00    -0.274 OA
HETATM   24  H   UNL     1     -18.126 -12.308   0.650  1.00  0.00     0.171 HD
ENDBRANCH  14  20
ENDBRANCH   9  10
ENDBRANCH   1   9
BRANCH   3  25
HETATM   25  C   UNL     1     -21.071  -5.500  -7.122  1.00  0.00    -0.009 A 
HETATM   26  C   UNL     1     -19.971  -5.511  -7.997  1.00  0.00     0.014 A 
HETATM   27  C   UNL     1     -20.006  -4.851  -9.231  1.00  0.00     0.017 A 
HETATM   28  C   UNL     1     -21.151  -4.156  -9.632  1.00  0.00     0.048 A 
HETATM   29  C   UNL     1     -22.262  -4.149  -8.779  1.00  0.00     0.017 A 
HETATM   30  C   UNL     1     -22.222  -4.812  -7.546  1.00  0.00     0.014 A 
BRANCH  28  31
HETATM   31  C   UNL     1     -21.206  -3.424 -10.950  1.00  0.00     0.417 C 
HETATM   32  F   UNL     1     -20.102  -2.669 -11.204  1.00  0.00    -0.166 F 
HETATM   33  F   UNL     1     -21.333  -4.269 -12.011  1.00  0.00    -0.166 F 
HETATM   34  F   UNL     1     -22.265  -2.571 -11.024  1.00  0.00    -0.166 F 
ENDBRANCH  28  31
ENDBRANCH   3  25
TORSDOF 5
ENDMDL
MODEL 8
REMARK VINA RESULT:      -8.7      1.915      2.884
REMARK  5 active torsions:
REMARK  status: ('A' for Active; 'I' for Inactive)
REMARK       I    between atoms: C_2  and  N_4 
REMARK    1  A    between atoms: N_4  and  C_5 
REMARK    2  A    between atoms: C_9  and  O_10 
REMARK    3  A    between atoms: O_10  and  C_11 
REMARK    4  A    between atoms: C_13  and  C_14 
REMARK    5  A    between atoms: C_17  and  C_18 
ROOT
HETATM    1  C   UNL     1     -20.209  -7.949  -4.564  1.00  0.00     0.151 A 
HETATM    2  C   UNL     1     -20.176  -7.382  -5.818  1.00  0.00     0.086 A 
HETATM    3  C   UNL     1     -20.917  -6.225  -5.991  1.00  0.00     0.047 A 
HETATM    4  N   UNL     1     -21.642  -5.697  -4.979  1.00  0.00    -0.352 N 
ATOM      5  HN  UNL     1     -22.212  -4.861  -5.113  1.00  0.00     0.166 HD
HETATM    6  C   UNL     1     -21.582  -6.319  -3.794  1.00  0.00     0.182 A 
HETATM    7  N   UNL     1     -20.881  -7.423  -3.525  1.00  0.00    -0.333 N 
ATOM      8  HN  UNL     1     -20.857  -7.840  -2.594  1.00  0.00     0.168 HD
ENDROOT
BRANCH   1   9
HETATM    9  O   UNL     1     -19.483  -9.124  -4.396  1.00  0.00    -0.291 OA
BRANCH   9  10
HETATM   10  C   UNL     1     -19.892 -10.253  -5.086  1.00  0.00     0.105 A 
HETATM   11  C   UNL     1     -18.910 -11.105  -5.658  1.00  0.00     0.085 A 
HETATM   12  N   UNL     1     -17.519 -10.956  -5.609  1.00  0.00    -0.333 N 
HETATM   13  C   UNL     1     -19.344 -12.221  -6.381  1.00  0.00     0.038 A 
HETATM   14  C   UNL     1     -16.952 -11.878  -6.353  1.00  0.00     0.152 C 
ATOM     15  HN  UNL     1     -17.022 -10.242  -5.077  1.00  0.00     0.168 HD
HETATM   16  S   UNL     1     -17.984 -13.075  -6.978  1.00  0.00    -0.052 SA
HETATM   17  C   UNL     1     -20.702 -12.530  -6.561  1.00  0.00     0.021 A 
HETATM   18  C   UNL     1     -21.649 -11.650  -6.046  1.00  0.00     0.004 A 
HETATM   19  C   UNL     1     -21.252 -10.519  -5.342  1.00  0.00     0.040 A 
BRANCH  14  20
HETATM   20  N   UNL     1     -15.593 -11.921  -6.562  1.00  0.00    -0.307 N 
HETATM   21  C   UNL     1     -14.744 -12.881  -6.051  1.00  0.00     0.219 C 
HETATM   22  C   UNL     1     -13.305 -12.640  -6.426  1.00  0.00     0.117 C 
HETATM   23  O   UNL     1     -15.045 -13.857  -5.372  1.00  0.00    -0.274 OA
HETATM   24  H   UNL     1     -15.274 -11.316  -7.305  1.00  0.00     0.171 HD
ENDBRANCH  14  20
ENDBRANCH   9  10
ENDBRANCH   1   9
BRANCH   3  25
HETATM   25  C   UNL     1     -20.993  -5.491  -7.276  1.00  0.00    -0.009 A 
HETATM   26  C   UNL     1     -19.895  -5.459  -8.155  1.00  0.00     0.014 A 
HETATM   27  C   UNL     1     -19.944  -4.765  -9.369  1.00  0.00     0.017 A 
HETATM   28  C   UNL     1     -21.101  -4.077  -9.747  1.00  0.00     0.048 A 
HETATM   29  C   UNL     1     -22.210  -4.112  -8.891  1.00  0.00     0.017 A 
HETATM   30  C   UNL     1     -22.156  -4.810  -7.679  1.00  0.00     0.014 A 
BRANCH  28  31
HETATM   31  C   UNL     1     -21.171  -3.309 -11.044  1.00  0.00     0.417 C 
HETATM   32  F   UNL     1     -20.099  -2.499 -11.259  1.00  0.00    -0.166 F 
HETATM   33  F   UNL     1     -21.248  -4.127 -12.131  1.00  0.00    -0.166 F 
HETATM   34  F   UNL     1     -22.267  -2.501 -11.108  1.00  0.00    -0.166 F 
ENDBRANCH  28  31
ENDBRANCH   3  25
TORSDOF 5
ENDMDL
MODEL 9
REMARK VINA RESULT:      -8.5      2.272      2.778
REMARK  5 active torsions:
REMARK  status: ('A' for Active; 'I' for Inactive)
REMARK       I    between atoms: C_2  and  N_4 
REMARK    1  A    between atoms: N_4  and  C_5 
REMARK    2  A    between atoms: C_9  and  O_10 
REMARK    3  A    between atoms: O_10  and  C_11 
REMARK    4  A    between atoms: C_13  and  C_14 
REMARK    5  A    between atoms: C_17  and  C_18 
ROOT
HETATM    1  C   UNL     1     -21.873  -8.701  -2.532  1.00  0.00     0.151 A 
HETATM    2  C   UNL     1     -21.603  -8.264  -3.810  1.00  0.00     0.086 A 
HETATM    3  C   UNL     1     -21.561  -6.893  -3.996  1.00  0.00     0.047 A 
HETATM    4  N   UNL     1     -21.789  -6.037  -2.974  1.00  0.00    -0.352 N 
ATOM      5  HN  UNL     1     -21.787  -5.026  -3.116  1.00  0.00     0.166 HD
HETATM    6  C   UNL     1     -22.019  -6.572  -1.767  1.00  0.00     0.182 A 
HETATM    7  N   UNL     1     -22.057  -7.877  -1.485  1.00  0.00    -0.333 N 
ATOM      8  HN  UNL     1     -22.215  -8.225  -0.540  1.00  0.00     0.168 HD
ENDROOT
BRANCH   1   9
HETATM    9  O   UNL     1     -21.938 -10.078  -2.349  1.00  0.00    -0.291 OA
BRANCH   9  10
HETATM   10  C   UNL     1     -20.839 -10.721  -1.804  1.00  0.00     0.105 A 
HETATM   11  C   UNL     1     -19.942 -11.405  -2.668  1.00  0.00     0.085 A 
HETATM   12  N   UNL     1     -20.016 -11.513  -4.061  1.00  0.00    -0.333 N 
HETATM   13  C   UNL     1     -18.858 -12.077  -2.095  1.00  0.00     0.038 A 
HETATM   14  C   UNL     1     -19.072 -12.320  -4.490  1.00  0.00     0.152 C 
ATOM     15  HN  UNL     1     -20.697 -11.038  -4.653  1.00  0.00     0.168 HD
HETATM   16  S   UNL     1     -17.938 -12.829  -3.331  1.00  0.00    -0.052 SA
HETATM   17  C   UNL     1     -18.622 -12.104  -0.711  1.00  0.00     0.021 A 
HETATM   18  C   UNL     1     -19.547 -11.481   0.122  1.00  0.00     0.004 A 
HETATM   19  C   UNL     1     -20.648 -10.823  -0.411  1.00  0.00     0.040 A 
BRANCH  14  20
HETATM   20  N   UNL     1     -18.959 -12.682  -5.812  1.00  0.00    -0.307 N 
HETATM   21  C   UNL     1     -18.715 -11.811  -6.854  1.00  0.00     0.219 C 
HETATM   22  C   UNL     1     -18.680 -12.502  -8.192  1.00  0.00     0.117 C 
HETATM   23  O   UNL     1     -18.524 -10.601  -6.784  1.00  0.00    -0.274 OA
HETATM   24  H   UNL     1     -18.850 -13.676  -5.957  1.00  0.00     0.171 HD
ENDBRANCH  14  20
ENDBRANCH   9  10
ENDBRANCH   1   9
BRANCH   3  25
HETATM   25  C   UNL     1     -21.287  -6.257  -5.307  1.00  0.00    -0.009 A 
HETATM   26  C   UNL     1     -20.034  -6.397  -5.928  1.00  0.00     0.014 A 
HETATM   27  C   UNL     1     -19.753  -5.798  -7.162  1.00  0.00     0.017 A 
HETATM   28  C   UNL     1     -20.724  -5.035  -7.818  1.00  0.00     0.048 A 
HETATM   29  C   UNL     1     -21.984  -4.899  -7.220  1.00  0.00     0.017 A 
HETATM   30  C   UNL     1     -22.260  -5.502  -5.987  1.00  0.00     0.014 A 
BRANCH  28  31
HETATM   31  C   UNL     1     -20.438  -4.367  -9.140  1.00  0.00     0.417 C 
HETATM   32  F   UNL     1     -19.643  -3.267  -9.037  1.00  0.00    -0.166 F 
HETATM   33  F   UNL     1     -19.814  -5.199 -10.021  1.00  0.00    -0.166 F 
HETATM   34  F   UNL     1     -21.575  -3.949  -9.764  1.00  0.00    -0.166 F 
ENDBRANCH  28  31
ENDBRANCH   3  25
TORSDOF 5
ENDMDL
