REMARK  8 active torsions:
REMARK  status: ('A' for Active; 'I' for Inactive)
REMARK    1  A    between atoms: C_2  and  C_5 
REMARK    2  A    between atoms: C_8  and  C_9 
REMARK    3  A    between atoms: C_9  and  N_10 
REMARK    4  A    between atoms: N_10  and  C_11 
REMARK    5  A    between atoms: N_13  and  C_14 
REMARK    6  A    between atoms: C_14  and  C_15 
REMARK    7  A    between atoms: C_18  and  N_19 
REMARK    8  A    between atoms: N_19  and  S_20 
ROOT
HETATM    1  C   UNL     1       6.578  -6.824   0.165  1.00  0.00     0.168 C 
HETATM    2  S   UNL     1       5.929  -8.359   0.235  1.00  0.00    -0.041 SA
HETATM    3  N   UNL     1       7.910  -6.711  -0.100  1.00  0.00    -0.363 N 
HETATM    4  H   UNL     1       8.311  -7.521  -0.561  1.00  0.00     0.162 HD
ENDROOT
BRANCH   3   5
HETATM    5  C   UNL     1       8.760  -5.564   0.126  1.00  0.00     0.160 C 
BRANCH   5   6
HETATM    6  C   UNL     1      10.235  -5.882   0.190  1.00  0.00    -0.037 A 
HETATM    7  C   UNL     1      10.734  -7.107   0.661  1.00  0.00     0.011 A 
HETATM    8  C   UNL     1      12.117  -7.319   0.806  1.00  0.00     0.034 A 
HETATM    9  C   UNL     1      13.006  -6.284   0.538  1.00  0.00     0.081 A 
HETATM   10  C   UNL     1      12.518  -5.073   0.053  1.00  0.00     0.144 A 
HETATM   11  F   UNL     1      13.366  -4.065  -0.216  1.00  0.00    -0.204 F 
HETATM   12  C   UNL     1      11.152  -4.865  -0.120  1.00  0.00     0.053 A 
BRANCH   9  13
HETATM   13  N   UNL     1      14.399  -6.436   0.819  1.00  0.00    -0.282 N 
HETATM   14  H   UNL     1      14.826  -5.695   1.375  1.00  0.00     0.178 HD
BRANCH  13  15
HETATM   15  S   UNL     1      15.433  -7.079  -0.310  1.00  0.00     0.227 S 
HETATM   16  C   UNL     1      15.330  -5.954  -1.693  1.00  0.00     0.186 C 
HETATM   17  O   UNL     1      16.763  -6.957   0.248  1.00  0.00    -0.206 OA
HETATM   18  O   UNL     1      14.923  -8.372  -0.739  1.00  0.00    -0.206 OA
ENDBRANCH  13  15
ENDBRANCH   9  13
ENDBRANCH   5   6
ENDBRANCH   3   5
BRANCH   1  19
HETATM   19  N   UNL     1       5.906  -5.646   0.326  1.00  0.00    -0.363 N 
HETATM   20  H   UNL     1       6.432  -4.804   0.164  1.00  0.00     0.162 HD
BRANCH  19  21
HETATM   21  C   UNL     1       4.466  -5.459   0.201  1.00  0.00     0.160 C 
BRANCH  21  22
HETATM   22  C   UNL     1       4.084  -5.069  -1.209  1.00  0.00    -0.041 A 
HETATM   23  C   UNL     1       3.748  -6.040  -2.157  1.00  0.00     0.009 A 
HETATM   24  C   UNL     1       3.363  -5.679  -3.456  1.00  0.00     0.008 A 
HETATM   25  C   UNL     1       3.309  -4.336  -3.861  1.00  0.00    -0.051 A 
HETATM   26  C   UNL     1       3.672  -3.369  -2.904  1.00  0.00     0.008 A 
HETATM   27  C   UNL     1       4.060  -3.727  -1.605  1.00  0.00     0.009 A 
BRANCH  25  28
HETATM   28  C   UNL     1       2.884  -3.914  -5.280  1.00  0.00    -0.024 C 
HETATM   29  C   UNL     1       2.534  -5.105  -6.203  1.00  0.00     0.019 C 
HETATM   30  C   UNL     1       4.033  -3.136  -5.958  1.00  0.00     0.019 C 
HETATM   31  C   UNL     1       1.634  -3.009  -5.216  1.00  0.00     0.019 C 
ENDBRANCH  25  28
ENDBRANCH  21  22
ENDBRANCH  19  21
ENDBRANCH   1  19
TORSDOF 8
