MODEL 1
REMARK VINA RESULT:      -9.3      0.000      0.000
REMARK  8 active torsions:
REMARK  status: ('A' for Active; 'I' for Inactive)
REMARK    1  A    between atoms: C_2  and  C_5 
REMARK    2  A    between atoms: C_8  and  C_9 
REMARK    3  A    between atoms: C_9  and  N_10 
REMARK    4  A    between atoms: N_10  and  C_11 
REMARK    5  A    between atoms: N_13  and  C_14 
REMARK    6  A    between atoms: C_14  and  C_15 
REMARK    7  A    between atoms: C_18  and  N_19 
REMARK    8  A    between atoms: N_19  and  S_20 
ROOT
HETATM    1  C   UNL     1     -19.966  -6.893  -6.259  1.00  0.00     0.168 C 
HETATM    2  S   UNL     1     -19.025  -8.181  -5.771  1.00  0.00    -0.041 SA
HETATM    3  N   UNL     1     -19.576  -6.210  -7.372  1.00  0.00    -0.363 N 
HETATM    4  H   UNL     1     -18.966  -6.736  -7.989  1.00  0.00     0.162 HD
ENDROOT
BRANCH   3   5
HETATM    5  C   UNL     1     -19.995  -4.891  -7.789  1.00  0.00     0.160 C 
BRANCH   5   6
HETATM    6  C   UNL     1     -20.802  -4.865  -9.066  1.00  0.00    -0.037 A 
HETATM    7  C   UNL     1     -20.227  -4.659 -10.330  1.00  0.00     0.011 A 
HETATM    8  C   UNL     1     -21.028  -4.534 -11.479  1.00  0.00     0.034 A 
HETATM    9  C   UNL     1     -22.414  -4.554 -11.361  1.00  0.00     0.081 A 
HETATM   10  C   UNL     1     -22.989  -4.777 -10.112  1.00  0.00     0.144 A 
HETATM   11  F   UNL     1     -24.327  -4.804  -9.982  1.00  0.00    -0.204 F 
HETATM   12  C   UNL     1     -22.201  -4.930  -8.974  1.00  0.00     0.053 A 
BRANCH   9  13
HETATM   13  N   UNL     1     -23.241  -4.282 -12.494  1.00  0.00    -0.282 N 
HETATM   14  H   UNL     1     -23.147  -4.926 -13.280  1.00  0.00     0.178 HD
BRANCH  13  15
HETATM   15  S   UNL     1     -23.558  -2.722 -12.967  1.00  0.00     0.227 S 
HETATM   16  C   UNL     1     -23.056  -2.671 -14.680  1.00  0.00     0.186 C 
HETATM   17  O   UNL     1     -24.997  -2.578 -12.934  1.00  0.00    -0.206 OA
HETATM   18  O   UNL     1     -22.702  -1.816 -12.217  1.00  0.00    -0.206 OA
ENDBRANCH  13  15
ENDBRANCH   9  13
ENDBRANCH   5   6
ENDBRANCH   3   5
BRANCH   1  19
HETATM   19  N   UNL     1     -21.116  -6.452  -5.668  1.00  0.00    -0.363 N 
HETATM   20  H   UNL     1     -21.948  -6.985  -5.855  1.00  0.00     0.162 HD
BRANCH  19  21
HETATM   21  C   UNL     1     -21.200  -5.659  -4.449  1.00  0.00     0.160 C 
BRANCH  21  22
HETATM   22  C   UNL     1     -21.495  -6.529  -3.248  1.00  0.00    -0.041 A 
HETATM   23  C   UNL     1     -22.006  -5.977  -2.069  1.00  0.00     0.009 A 
HETATM   24  C   UNL     1     -22.310  -6.786  -0.965  1.00  0.00     0.008 A 
HETATM   25  C   UNL     1     -22.104  -8.175  -0.992  1.00  0.00    -0.051 A 
HETATM   26  C   UNL     1     -21.567  -8.715  -2.176  1.00  0.00     0.008 A 
HETATM   27  C   UNL     1     -21.260  -7.908  -3.281  1.00  0.00     0.009 A 
BRANCH  25  28
HETATM   28  C   UNL     1     -22.435  -9.085   0.206  1.00  0.00    -0.024 C 
HETATM   29  C   UNL     1     -23.457 -10.199  -0.125  1.00  0.00     0.019 C 
HETATM   30  C   UNL     1     -23.037  -8.242   1.351  1.00  0.00     0.019 C 
HETATM   31  C   UNL     1     -21.155  -9.783   0.716  1.00  0.00     0.019 C 
ENDBRANCH  25  28
ENDBRANCH  21  22
ENDBRANCH  19  21
ENDBRANCH   1  19
TORSDOF 8
ENDMDL
MODEL 2
REMARK VINA RESULT:      -9.1      1.585      2.077
REMARK  8 active torsions:
REMARK  status: ('A' for Active; 'I' for Inactive)
REMARK    1  A    between atoms: C_2  and  C_5 
REMARK    2  A    between atoms: C_8  and  C_9 
REMARK    3  A    between atoms: C_9  and  N_10 
REMARK    4  A    between atoms: N_10  and  C_11 
REMARK    5  A    between atoms: N_13  and  C_14 
REMARK    6  A    between atoms: C_14  and  C_15 
REMARK    7  A    between atoms: C_18  and  N_19 
REMARK    8  A    between atoms: N_19  and  S_20 
ROOT
HETATM    1  C   UNL     1     -21.518  -6.498  -5.916  1.00  0.00     0.168 C 
HETATM    2  S   UNL     1     -22.761  -6.320  -4.818  1.00  0.00    -0.041 SA
HETATM    3  N   UNL     1     -21.124  -5.394  -6.612  1.00  0.00    -0.363 N 
HETATM    4  H   UNL     1     -21.374  -4.515  -6.170  1.00  0.00     0.162 HD
ENDROOT
BRANCH   3   5
HETATM    5  C   UNL     1     -20.345  -5.349  -7.828  1.00  0.00     0.160 C 
BRANCH   5   6
HETATM    6  C   UNL     1     -21.038  -4.679  -8.991  1.00  0.00    -0.037 A 
HETATM    7  C   UNL     1     -20.379  -4.340 -10.183  1.00  0.00     0.011 A 
HETATM    8  C   UNL     1     -21.037  -3.619 -11.196  1.00  0.00     0.034 A 
HETATM    9  C   UNL     1     -22.341  -3.181 -10.995  1.00  0.00     0.081 A 
HETATM   10  C   UNL     1     -23.006  -3.530  -9.823  1.00  0.00     0.144 A 
HETATM   11  F   UNL     1     -24.270  -3.119  -9.618  1.00  0.00    -0.204 F 
HETATM   12  C   UNL     1     -22.371  -4.268  -8.827  1.00  0.00     0.053 A 
BRANCH   9  13
HETATM   13  N   UNL     1     -22.971  -2.325 -11.951  1.00  0.00    -0.282 N 
HETATM   14  H   UNL     1     -23.348  -1.450 -11.587  1.00  0.00     0.178 HD
BRANCH  13  15
HETATM   15  S   UNL     1     -23.874  -2.953 -13.195  1.00  0.00     0.227 S 
HETATM   16  C   UNL     1     -22.802  -2.837 -14.619  1.00  0.00     0.186 C 
HETATM   17  O   UNL     1     -24.045  -4.359 -12.897  1.00  0.00    -0.206 OA
HETATM   18  O   UNL     1     -25.027  -2.096 -13.425  1.00  0.00    -0.206 OA
ENDBRANCH  13  15
ENDBRANCH   9  13
ENDBRANCH   5   6
ENDBRANCH   3   5
BRANCH   1  19
HETATM   19  N   UNL     1     -20.824  -7.643  -6.184  1.00  0.00    -0.363 N 
HETATM   20  H   UNL     1     -20.680  -7.863  -7.155  1.00  0.00     0.162 HD
BRANCH  19  21
HETATM   21  C   UNL     1     -19.862  -8.287  -5.299  1.00  0.00     0.160 C 
BRANCH  21  22
HETATM   22  C   UNL     1     -20.475  -8.589  -3.950  1.00  0.00    -0.041 A 
HETATM   23  C   UNL     1     -21.391  -9.633  -3.794  1.00  0.00     0.009 A 
HETATM   24  C   UNL     1     -21.937  -9.934  -2.538  1.00  0.00     0.008 A 
HETATM   25  C   UNL     1     -21.597  -9.198  -1.392  1.00  0.00    -0.051 A 
HETATM   26  C   UNL     1     -20.691  -8.134  -1.567  1.00  0.00     0.008 A 
HETATM   27  C   UNL     1     -20.146  -7.828  -2.822  1.00  0.00     0.009 A 
BRANCH  25  28
HETATM   28  C   UNL     1     -22.178  -9.513  -0.001  1.00  0.00    -0.024 C 
HETATM   29  C   UNL     1     -21.102  -9.819   1.066  1.00  0.00     0.019 C 
HETATM   30  C   UNL     1     -23.097 -10.751  -0.089  1.00  0.00     0.019 C 
HETATM   31  C   UNL     1     -23.002  -8.313   0.517  1.00  0.00     0.019 C 
ENDBRANCH  25  28
ENDBRANCH  21  22
ENDBRANCH  19  21
ENDBRANCH   1  19
TORSDOF 8
ENDMDL
MODEL 3
REMARK VINA RESULT:      -9.0      2.238      2.880
REMARK  8 active torsions:
REMARK  status: ('A' for Active; 'I' for Inactive)
REMARK    1  A    between atoms: C_2  and  C_5 
REMARK    2  A    between atoms: C_8  and  C_9 
REMARK    3  A    between atoms: C_9  and  N_10 
REMARK    4  A    between atoms: N_10  and  C_11 
REMARK    5  A    between atoms: N_13  and  C_14 
REMARK    6  A    between atoms: C_14  and  C_15 
REMARK    7  A    between atoms: C_18  and  N_19 
REMARK    8  A    between atoms: N_19  and  S_20 
ROOT
HETATM    1  C   UNL     1     -20.818  -6.760  -4.965  1.00  0.00     0.168 C 
HETATM    2  S   UNL     1     -21.796  -6.394  -3.664  1.00  0.00    -0.041 SA
HETATM    3  N   UNL     1     -20.211  -5.725  -5.612  1.00  0.00    -0.363 N 
HETATM    4  H   UNL     1     -20.127  -4.881  -5.055  1.00  0.00     0.162 HD
ENDROOT
BRANCH   3   5
HETATM    5  C   UNL     1     -19.621  -5.734  -6.931  1.00  0.00     0.160 C 
BRANCH   5   6
HETATM    6  C   UNL     1     -20.359  -4.899  -7.951  1.00  0.00    -0.037 A 
HETATM    7  C   UNL     1     -21.609  -4.312  -7.699  1.00  0.00     0.011 A 
HETATM    8  C   UNL     1     -22.311  -3.635  -8.713  1.00  0.00     0.034 A 
HETATM    9  C   UNL     1     -21.792  -3.595 -10.003  1.00  0.00     0.081 A 
HETATM   10  C   UNL     1     -20.544  -4.161 -10.254  1.00  0.00     0.144 A 
HETATM   11  F   UNL     1     -20.027  -4.125 -11.495  1.00  0.00    -0.204 F 
HETATM   12  C   UNL     1     -19.831  -4.808  -9.249  1.00  0.00     0.053 A 
BRANCH   9  13
HETATM   13  N   UNL     1     -22.558  -3.040 -11.074  1.00  0.00    -0.282 N 
HETATM   14  H   UNL     1     -22.594  -2.022 -11.116  1.00  0.00     0.178 HD
BRANCH  13  15
HETATM   15  S   UNL     1     -23.965  -3.761 -11.581  1.00  0.00     0.227 S 
HETATM   16  C   UNL     1     -24.089  -3.320 -13.307  1.00  0.00     0.186 C 
HETATM   17  O   UNL     1     -23.732  -5.188 -11.515  1.00  0.00    -0.206 OA
HETATM   18  O   UNL     1     -25.087  -3.159 -10.878  1.00  0.00    -0.206 OA
ENDBRANCH  13  15
ENDBRANCH   9  13
ENDBRANCH   5   6
ENDBRANCH   3   5
BRANCH   1  19
HETATM   19  N   UNL     1     -20.538  -8.005  -5.450  1.00  0.00    -0.363 N 
HETATM   20  H   UNL     1     -20.513  -8.102  -6.451  1.00  0.00     0.162 HD
BRANCH  19  21
HETATM   21  C   UNL     1     -19.795  -9.047  -4.753  1.00  0.00     0.160 C 
BRANCH  21  22
HETATM   22  C   UNL     1     -20.642  -9.705  -3.687  1.00  0.00    -0.041 A 
HETATM   23  C   UNL     1     -21.810 -10.397  -4.023  1.00  0.00     0.009 A 
HETATM   24  C   UNL     1     -22.580 -11.034  -3.041  1.00  0.00     0.008 A 
HETATM   25  C   UNL     1     -22.221 -10.997  -1.684  1.00  0.00    -0.051 A 
HETATM   26  C   UNL     1     -21.056 -10.278  -1.356  1.00  0.00     0.008 A 
HETATM   27  C   UNL     1     -20.284  -9.637  -2.336  1.00  0.00     0.009 A 
BRANCH  25  28
HETATM   28  C   UNL     1     -23.047 -11.694  -0.587  1.00  0.00    -0.024 C 
HETATM   29  C   UNL     1     -23.809 -12.945  -1.085  1.00  0.00     0.019 C 
HETATM   30  C   UNL     1     -24.101 -10.713  -0.027  1.00  0.00     0.019 C 
HETATM   31  C   UNL     1     -22.127 -12.153   0.564  1.00  0.00     0.019 C 
ENDBRANCH  25  28
ENDBRANCH  21  22
ENDBRANCH  19  21
ENDBRANCH   1  19
TORSDOF 8
ENDMDL
MODEL 4
REMARK VINA RESULT:      -8.5      3.914      5.150
REMARK  8 active torsions:
REMARK  status: ('A' for Active; 'I' for Inactive)
REMARK    1  A    between atoms: C_2  and  C_5 
REMARK    2  A    between atoms: C_8  and  C_9 
REMARK    3  A    between atoms: C_9  and  N_10 
REMARK    4  A    between atoms: N_10  and  C_11 
REMARK    5  A    between atoms: N_13  and  C_14 
REMARK    6  A    between atoms: C_14  and  C_15 
REMARK    7  A    between atoms: C_18  and  N_19 
REMARK    8  A    between atoms: N_19  and  S_20 
ROOT
HETATM    1  C   UNL     1     -20.627  -6.690  -5.257  1.00  0.00     0.168 C 
HETATM    2  S   UNL     1     -21.736  -6.551  -4.018  1.00  0.00    -0.041 SA
HETATM    3  N   UNL     1     -20.465  -5.619  -6.084  1.00  0.00    -0.363 N 
HETATM    4  H   UNL     1     -20.764  -4.736  -5.682  1.00  0.00     0.162 HD
ENDROOT
BRANCH   3   5
HETATM    5  C   UNL     1     -19.855  -5.601  -7.394  1.00  0.00     0.160 C 
BRANCH   5   6
HETATM    6  C   UNL     1     -20.710  -4.980  -8.473  1.00  0.00    -0.037 A 
HETATM    7  C   UNL     1     -20.197  -4.567  -9.713  1.00  0.00     0.011 A 
HETATM    8  C   UNL     1     -21.008  -3.894 -10.645  1.00  0.00     0.034 A 
HETATM    9  C   UNL     1     -22.321  -3.576 -10.315  1.00  0.00     0.081 A 
HETATM   10  C   UNL     1     -22.840  -3.999  -9.094  1.00  0.00     0.144 A 
HETATM   11  F   UNL     1     -24.109  -3.703  -8.764  1.00  0.00    -0.204 F 
HETATM   12  C   UNL     1     -22.052  -4.691  -8.178  1.00  0.00     0.053 A 
BRANCH   9  13
HETATM   13  N   UNL     1     -23.110  -2.766 -11.190  1.00  0.00    -0.282 N 
HETATM   14  H   UNL     1     -23.608  -1.991 -10.752  1.00  0.00     0.178 HD
BRANCH  13  15
HETATM   15  S   UNL     1     -23.943  -3.440 -12.458  1.00  0.00     0.227 S 
HETATM   16  C   UNL     1     -23.073  -2.869 -13.909  1.00  0.00     0.186 C 
HETATM   17  O   UNL     1     -23.732  -4.869 -12.363  1.00  0.00    -0.206 OA
HETATM   18  O   UNL     1     -25.288  -2.889 -12.490  1.00  0.00    -0.206 OA
ENDBRANCH  13  15
ENDBRANCH   9  13
ENDBRANCH   5   6
ENDBRANCH   3   5
BRANCH   1  19
HETATM   19  N   UNL     1     -19.836  -7.770  -5.526  1.00  0.00    -0.363 N 
HETATM   20  H   UNL     1     -18.858  -7.583  -5.674  1.00  0.00     0.162 HD
BRANCH  19  21
HETATM   21  C   UNL     1     -20.107  -9.148  -5.136  1.00  0.00     0.160 C 
BRANCH  21  22
HETATM   22  C   UNL     1     -18.847  -9.983  -5.162  1.00  0.00    -0.041 A 
HETATM   23  C   UNL     1     -18.766 -11.183  -4.450  1.00  0.00     0.009 A 
HETATM   24  C   UNL     1     -17.610 -11.976  -4.497  1.00  0.00     0.008 A 
HETATM   25  C   UNL     1     -16.488 -11.595  -5.249  1.00  0.00    -0.051 A 
HETATM   26  C   UNL     1     -16.574 -10.373  -5.944  1.00  0.00     0.008 A 
HETATM   27  C   UNL     1     -17.727  -9.577  -5.896  1.00  0.00     0.009 A 
BRANCH  25  28
HETATM   28  C   UNL     1     -15.209 -12.450  -5.322  1.00  0.00    -0.024 C 
HETATM   29  C   UNL     1     -15.476 -13.972  -5.255  1.00  0.00     0.019 C 
HETATM   30  C   UNL     1     -14.280 -12.100  -4.139  1.00  0.00     0.019 C 
HETATM   31  C   UNL     1     -14.461 -12.180  -6.646  1.00  0.00     0.019 C 
ENDBRANCH  25  28
ENDBRANCH  21  22
ENDBRANCH  19  21
ENDBRANCH   1  19
TORSDOF 8
ENDMDL
MODEL 5
REMARK VINA RESULT:      -8.3      5.056      7.604
REMARK  8 active torsions:
REMARK  status: ('A' for Active; 'I' for Inactive)
REMARK    1  A    between atoms: C_2  and  C_5 
REMARK    2  A    between atoms: C_8  and  C_9 
REMARK    3  A    between atoms: C_9  and  N_10 
REMARK    4  A    between atoms: N_10  and  C_11 
REMARK    5  A    between atoms: N_13  and  C_14 
REMARK    6  A    between atoms: C_14  and  C_15 
REMARK    7  A    between atoms: C_18  and  N_19 
REMARK    8  A    between atoms: N_19  and  S_20 
ROOT
HETATM    1  C   UNL     1     -22.784 -14.634  -3.684  1.00  0.00     0.168 C 
HETATM    2  S   UNL     1     -23.904 -15.542  -4.521  1.00  0.00    -0.041 SA
HETATM    3  N   UNL     1     -21.983 -13.797  -4.402  1.00  0.00    -0.363 N 
HETATM    4  H   UNL     1     -22.356 -13.545  -5.311  1.00  0.00     0.162 HD
ENDROOT
BRANCH   3   5
HETATM    5  C   UNL     1     -20.741 -13.188  -3.982  1.00  0.00     0.160 C 
BRANCH   5   6
HETATM    6  C   UNL     1     -20.794 -11.684  -3.854  1.00  0.00    -0.037 A 
HETATM    7  C   UNL     1     -21.994 -10.956  -3.878  1.00  0.00     0.011 A 
HETATM    8  C   UNL     1     -21.989  -9.549  -3.865  1.00  0.00     0.034 A 
HETATM    9  C   UNL     1     -20.780  -8.863  -3.890  1.00  0.00     0.081 A 
HETATM   10  C   UNL     1     -19.587  -9.580  -3.848  1.00  0.00     0.144 A 
HETATM   11  F   UNL     1     -18.410  -8.930  -3.866  1.00  0.00    -0.204 F 
HETATM   12  C   UNL     1     -19.584 -10.972  -3.831  1.00  0.00     0.053 A 
BRANCH   9  13
HETATM   13  N   UNL     1     -20.759  -7.440  -4.025  1.00  0.00    -0.282 N 
HETATM   14  H   UNL     1     -20.876  -6.908  -3.162  1.00  0.00     0.178 HD
BRANCH  13  15
HETATM   15  S   UNL     1     -21.439  -6.697  -5.345  1.00  0.00     0.227 S 
HETATM   16  C   UNL     1     -20.491  -5.196  -5.542  1.00  0.00     0.186 C 
HETATM   17  O   UNL     1     -21.145  -7.546  -6.479  1.00  0.00    -0.206 OA
HETATM   18  O   UNL     1     -22.810  -6.328  -5.028  1.00  0.00    -0.206 OA
ENDBRANCH  13  15
ENDBRANCH   9  13
ENDBRANCH   5   6
ENDBRANCH   3   5
BRANCH   1  19
HETATM   19  N   UNL     1     -22.590 -14.620  -2.332  1.00  0.00    -0.363 N 
HETATM   20  H   UNL     1     -21.635 -14.626  -2.016  1.00  0.00     0.162 HD
BRANCH  19  21
HETATM   21  C   UNL     1     -23.523 -14.100  -1.340  1.00  0.00     0.160 C 
BRANCH  21  22
HETATM   22  C   UNL     1     -23.098 -12.735  -0.850  1.00  0.00    -0.041 A 
HETATM   23  C   UNL     1     -21.788 -12.502  -0.419  1.00  0.00     0.009 A 
HETATM   24  C   UNL     1     -21.383 -11.229   0.007  1.00  0.00     0.008 A 
HETATM   25  C   UNL     1     -22.272 -10.142   0.027  1.00  0.00    -0.051 A 
HETATM   26  C   UNL     1     -23.594 -10.395  -0.388  1.00  0.00     0.008 A 
HETATM   27  C   UNL     1     -24.003 -11.668  -0.811  1.00  0.00     0.009 A 
BRANCH  25  28
HETATM   28  C   UNL     1     -21.850  -8.734   0.485  1.00  0.00    -0.024 C 
HETATM   29  C   UNL     1     -20.953  -8.733   1.745  1.00  0.00     0.019 C 
HETATM   30  C   UNL     1     -23.104  -7.897   0.819  1.00  0.00     0.019 C 
HETATM   31  C   UNL     1     -21.056  -8.024  -0.635  1.00  0.00     0.019 C 
ENDBRANCH  25  28
ENDBRANCH  21  22
ENDBRANCH  19  21
ENDBRANCH   1  19
TORSDOF 8
ENDMDL
MODEL 6
REMARK VINA RESULT:      -8.2      2.366      3.388
REMARK  8 active torsions:
REMARK  status: ('A' for Active; 'I' for Inactive)
REMARK    1  A    between atoms: C_2  and  C_5 
REMARK    2  A    between atoms: C_8  and  C_9 
REMARK    3  A    between atoms: C_9  and  N_10 
REMARK    4  A    between atoms: N_10  and  C_11 
REMARK    5  A    between atoms: N_13  and  C_14 
REMARK    6  A    between atoms: C_14  and  C_15 
REMARK    7  A    between atoms: C_18  and  N_19 
REMARK    8  A    between atoms: N_19  and  S_20 
ROOT
HETATM    1  C   UNL     1     -20.564  -8.395  -4.915  1.00  0.00     0.168 C 
HETATM    2  S   UNL     1     -19.808  -9.849  -5.227  1.00  0.00    -0.041 SA
HETATM    3  N   UNL     1     -20.367  -7.376  -5.798  1.00  0.00    -0.363 N 
HETATM    4  H   UNL     1     -20.071  -7.679  -6.720  1.00  0.00     0.162 HD
ENDROOT
BRANCH   3   5
HETATM    5  C   UNL     1     -20.607  -5.967  -5.587  1.00  0.00     0.160 C 
BRANCH   5   6
HETATM    6  C   UNL     1     -20.966  -5.199  -6.837  1.00  0.00    -0.037 A 
HETATM    7  C   UNL     1     -22.146  -4.450  -6.963  1.00  0.00     0.011 A 
HETATM    8  C   UNL     1     -22.492  -3.841  -8.183  1.00  0.00     0.034 A 
HETATM    9  C   UNL     1     -21.688  -4.030  -9.301  1.00  0.00     0.081 A 
HETATM   10  C   UNL     1     -20.507  -4.757  -9.178  1.00  0.00     0.144 A 
HETATM   11  F   UNL     1     -19.716  -4.944 -10.249  1.00  0.00    -0.204 F 
HETATM   12  C   UNL     1     -20.143  -5.339  -7.966  1.00  0.00     0.053 A 
BRANCH   9  13
HETATM   13  N   UNL     1     -22.100  -3.541 -10.580  1.00  0.00    -0.282 N 
HETATM   14  H   UNL     1     -21.754  -2.617 -10.837  1.00  0.00     0.178 HD
BRANCH  13  15
HETATM   15  S   UNL     1     -23.625  -3.850 -11.161  1.00  0.00     0.227 S 
HETATM   16  C   UNL     1     -23.566  -3.307 -12.861  1.00  0.00     0.186 C 
HETATM   17  O   UNL     1     -23.766  -5.291 -11.173  1.00  0.00    -0.206 OA
HETATM   18  O   UNL     1     -24.582  -3.015 -10.452  1.00  0.00    -0.206 OA
ENDBRANCH  13  15
ENDBRANCH   9  13
ENDBRANCH   5   6
ENDBRANCH   3   5
BRANCH   1  19
HETATM   19  N   UNL     1     -21.392  -8.115  -3.865  1.00  0.00    -0.363 N 
HETATM   20  H   UNL     1     -22.380  -8.181  -4.043  1.00  0.00     0.162 HD
BRANCH  19  21
HETATM   21  C   UNL     1     -21.051  -8.231  -2.453  1.00  0.00     0.160 C 
BRANCH  21  22
HETATM   22  C   UNL     1     -21.511  -9.554  -1.885  1.00  0.00    -0.041 A 
HETATM   23  C   UNL     1     -20.917 -10.090  -0.739  1.00  0.00     0.009 A 
HETATM   24  C   UNL     1     -21.363 -11.301  -0.192  1.00  0.00     0.008 A 
HETATM   25  C   UNL     1     -22.413 -12.029  -0.774  1.00  0.00    -0.051 A 
HETATM   26  C   UNL     1     -22.988 -11.490  -1.941  1.00  0.00     0.008 A 
HETATM   27  C   UNL     1     -22.542 -10.281  -2.492  1.00  0.00     0.009 A 
BRANCH  25  28
HETATM   28  C   UNL     1     -22.925 -13.359  -0.189  1.00  0.00    -0.024 C 
HETATM   29  C   UNL     1     -21.904 -14.516  -0.292  1.00  0.00     0.019 C 
HETATM   30  C   UNL     1     -24.195 -13.805  -0.945  1.00  0.00     0.019 C 
HETATM   31  C   UNL     1     -23.265 -13.188   1.308  1.00  0.00     0.019 C 
ENDBRANCH  25  28
ENDBRANCH  21  22
ENDBRANCH  19  21
ENDBRANCH   1  19
TORSDOF 8
ENDMDL
MODEL 7
REMARK VINA RESULT:      -8.2      2.671      4.247
REMARK  8 active torsions:
REMARK  status: ('A' for Active; 'I' for Inactive)
REMARK    1  A    between atoms: C_2  and  C_5 
REMARK    2  A    between atoms: C_8  and  C_9 
REMARK    3  A    between atoms: C_9  and  N_10 
REMARK    4  A    between atoms: N_10  and  C_11 
REMARK    5  A    between atoms: N_13  and  C_14 
REMARK    6  A    between atoms: C_14  and  C_15 
REMARK    7  A    between atoms: C_18  and  N_19 
REMARK    8  A    between atoms: N_19  and  S_20 
ROOT
HETATM    1  C   UNL     1     -20.968  -8.420  -2.927  1.00  0.00     0.168 C 
HETATM    2  S   UNL     1     -20.217  -9.907  -2.999  1.00  0.00    -0.041 SA
HETATM    3  N   UNL     1     -20.791  -7.569  -3.977  1.00  0.00    -0.363 N 
HETATM    4  H   UNL     1     -20.515  -8.027  -4.839  1.00  0.00     0.162 HD
ENDROOT
BRANCH   3   5
HETATM    5  C   UNL     1     -21.028  -6.143  -4.007  1.00  0.00     0.160 C 
BRANCH   5   6
HETATM    6  C   UNL     1     -21.086  -5.548  -5.393  1.00  0.00    -0.037 A 
HETATM    7  C   UNL     1     -19.947  -5.102  -6.083  1.00  0.00     0.011 A 
HETATM    8  C   UNL     1     -20.060  -4.454  -7.326  1.00  0.00     0.034 A 
HETATM    9  C   UNL     1     -21.318  -4.195  -7.858  1.00  0.00     0.081 A 
HETATM   10  C   UNL     1     -22.450  -4.652  -7.188  1.00  0.00     0.144 A 
HETATM   11  F   UNL     1     -23.673  -4.414  -7.693  1.00  0.00    -0.204 F 
HETATM   12  C   UNL     1     -22.345  -5.319  -5.970  1.00  0.00     0.053 A 
BRANCH   9  13
HETATM   13  N   UNL     1     -21.454  -3.411  -9.046  1.00  0.00    -0.282 N 
HETATM   14  H   UNL     1     -22.029  -2.573  -8.964  1.00  0.00     0.178 HD
BRANCH  13  15
HETATM   15  S   UNL     1     -21.565  -4.133 -10.537  1.00  0.00     0.227 S 
HETATM   16  C   UNL     1     -21.771  -2.769 -11.672  1.00  0.00     0.186 C 
HETATM   17  O   UNL     1     -20.268  -4.719 -10.797  1.00  0.00    -0.206 OA
HETATM   18  O   UNL     1     -22.770  -4.946 -10.583  1.00  0.00    -0.206 OA
ENDBRANCH  13  15
ENDBRANCH   9  13
ENDBRANCH   5   6
ENDBRANCH   3   5
BRANCH   1  19
HETATM   19  N   UNL     1     -21.772  -7.960  -1.924  1.00  0.00    -0.363 N 
HETATM   20  H   UNL     1     -22.729  -7.768  -2.168  1.00  0.00     0.162 HD
BRANCH  19  21
HETATM   21  C   UNL     1     -21.577  -8.190  -0.498  1.00  0.00     0.160 C 
BRANCH  21  22
HETATM   22  C   UNL     1     -21.937  -9.609  -0.117  1.00  0.00    -0.041 A 
HETATM   23  C   UNL     1     -23.193 -10.139  -0.425  1.00  0.00     0.009 A 
HETATM   24  C   UNL     1     -23.517 -11.464  -0.102  1.00  0.00     0.008 A 
HETATM   25  C   UNL     1     -22.604 -12.307   0.551  1.00  0.00    -0.051 A 
HETATM   26  C   UNL     1     -21.350 -11.754   0.877  1.00  0.00     0.008 A 
HETATM   27  C   UNL     1     -21.024 -10.428   0.557  1.00  0.00     0.009 A 
BRANCH  25  28
HETATM   28  C   UNL     1     -22.934 -13.767   0.912  1.00  0.00    -0.024 C 
HETATM   29  C   UNL     1     -21.686 -14.671   1.044  1.00  0.00     0.019 C 
HETATM   30  C   UNL     1     -23.829 -14.385  -0.184  1.00  0.00     0.019 C 
HETATM   31  C   UNL     1     -23.681 -13.827   2.263  1.00  0.00     0.019 C 
ENDBRANCH  25  28
ENDBRANCH  21  22
ENDBRANCH  19  21
ENDBRANCH   1  19
TORSDOF 8
ENDMDL
MODEL 8
REMARK VINA RESULT:      -8.2      3.915      5.408
REMARK  8 active torsions:
REMARK  status: ('A' for Active; 'I' for Inactive)
REMARK    1  A    between atoms: C_2  and  C_5 
REMARK    2  A    between atoms: C_8  and  C_9 
REMARK    3  A    between atoms: C_9  and  N_10 
REMARK    4  A    between atoms: N_10  and  C_11 
REMARK    5  A    between atoms: N_13  and  C_14 
REMARK    6  A    between atoms: C_14  and  C_15 
REMARK    7  A    between atoms: C_18  and  N_19 
REMARK    8  A    between atoms: N_19  and  S_20 
ROOT
HETATM    1  C   UNL     1     -20.937  -6.866  -4.072  1.00  0.00     0.168 C 
HETATM    2  S   UNL     1     -21.901  -6.416  -2.787  1.00  0.00    -0.041 SA
HETATM    3  N   UNL     1     -20.706  -5.939  -5.045  1.00  0.00    -0.363 N 
HETATM    4  H   UNL     1     -20.846  -4.980  -4.745  1.00  0.00     0.162 HD
ENDROOT
BRANCH   3   5
HETATM    5  C   UNL     1     -20.219  -6.172  -6.386  1.00  0.00     0.160 C 
BRANCH   5   6
HETATM    6  C   UNL     1     -20.813  -5.259  -7.433  1.00  0.00    -0.037 A 
HETATM    7  C   UNL     1     -22.077  -4.663  -7.301  1.00  0.00     0.011 A 
HETATM    8  C   UNL     1     -22.636  -3.909  -8.348  1.00  0.00     0.034 A 
HETATM    9  C   UNL     1     -21.959  -3.798  -9.557  1.00  0.00     0.081 A 
HETATM   10  C   UNL     1     -20.696  -4.371  -9.687  1.00  0.00     0.144 A 
HETATM   11  F   UNL     1     -20.026  -4.267 -10.848  1.00  0.00    -0.204 F 
HETATM   12  C   UNL     1     -20.124  -5.096  -8.645  1.00  0.00     0.053 A 
BRANCH   9  13
HETATM   13  N   UNL     1     -22.577  -3.160 -10.677  1.00  0.00    -0.282 N 
HETATM   14  H   UNL     1     -22.549  -2.140 -10.681  1.00  0.00     0.178 HD
BRANCH  13  15
HETATM   15  S   UNL     1     -23.963  -3.775 -11.353  1.00  0.00     0.227 S 
HETATM   16  C   UNL     1     -23.971  -3.121 -13.014  1.00  0.00     0.186 C 
HETATM   17  O   UNL     1     -23.761  -5.205 -11.452  1.00  0.00    -0.206 OA
HETATM   18  O   UNL     1     -25.115  -3.235 -10.648  1.00  0.00    -0.206 OA
ENDBRANCH  13  15
ENDBRANCH   9  13
ENDBRANCH   5   6
ENDBRANCH   3   5
BRANCH   1  19
HETATM   19  N   UNL     1     -20.326  -8.074  -4.250  1.00  0.00    -0.363 N 
HETATM   20  H   UNL     1     -19.323  -8.084  -4.174  1.00  0.00     0.162 HD
BRANCH  19  21
HETATM   21  C   UNL     1     -20.934  -9.380  -4.032  1.00  0.00     0.160 C 
BRANCH  21  22
HETATM   22  C   UNL     1     -20.378 -10.411  -4.987  1.00  0.00    -0.041 A 
HETATM   23  C   UNL     1     -19.041 -10.813  -4.911  1.00  0.00     0.009 A 
HETATM   24  C   UNL     1     -18.530 -11.792  -5.776  1.00  0.00     0.008 A 
HETATM   25  C   UNL     1     -19.332 -12.398  -6.756  1.00  0.00    -0.051 A 
HETATM   26  C   UNL     1     -20.670 -11.968  -6.838  1.00  0.00     0.008 A 
HETATM   27  C   UNL     1     -21.183 -10.988  -5.976  1.00  0.00     0.009 A 
BRANCH  25  28
HETATM   28  C   UNL     1     -18.796 -13.479  -7.714  1.00  0.00    -0.024 C 
HETATM   29  C   UNL     1     -19.070 -13.177  -9.206  1.00  0.00     0.019 C 
HETATM   30  C   UNL     1     -19.463 -14.835  -7.394  1.00  0.00     0.019 C 
HETATM   31  C   UNL     1     -17.266 -13.622  -7.554  1.00  0.00     0.019 C 
ENDBRANCH  25  28
ENDBRANCH  21  22
ENDBRANCH  19  21
ENDBRANCH   1  19
TORSDOF 8
ENDMDL
MODEL 9
REMARK VINA RESULT:      -8.1      6.538     11.329
REMARK  8 active torsions:
REMARK  status: ('A' for Active; 'I' for Inactive)
REMARK    1  A    between atoms: C_2  and  C_5 
REMARK    2  A    between atoms: C_8  and  C_9 
REMARK    3  A    between atoms: C_9  and  N_10 
REMARK    4  A    between atoms: N_10  and  C_11 
REMARK    5  A    between atoms: N_13  and  C_14 
REMARK    6  A    between atoms: C_14  and  C_15 
REMARK    7  A    between atoms: C_18  and  N_19 
REMARK    8  A    between atoms: N_19  and  S_20 
ROOT
HETATM    1  C   UNL     1     -20.491  -7.294  -4.894  1.00  0.00     0.168 C 
HETATM    2  S   UNL     1     -21.656  -6.534  -3.974  1.00  0.00    -0.041 SA
HETATM    3  N   UNL     1     -19.923  -8.424  -4.388  1.00  0.00    -0.363 N 
HETATM    4  H   UNL     1     -20.482  -8.888  -3.680  1.00  0.00     0.162 HD
ENDROOT
BRANCH   3   5
HETATM    5  C   UNL     1     -18.688  -9.052  -4.802  1.00  0.00     0.160 C 
BRANCH   5   6
HETATM    6  C   UNL     1     -17.902  -9.686  -3.679  1.00  0.00    -0.037 A 
HETATM    7  C   UNL     1     -16.499  -9.676  -3.626  1.00  0.00     0.011 A 
HETATM    8  C   UNL     1     -15.806 -10.372  -2.619  1.00  0.00     0.034 A 
HETATM    9  C   UNL     1     -16.513 -11.134  -1.695  1.00  0.00     0.081 A 
HETATM   10  C   UNL     1     -17.905 -11.132  -1.731  1.00  0.00     0.144 A 
HETATM   11  F   UNL     1     -18.602 -11.859  -0.840  1.00  0.00    -0.204 F 
HETATM   12  C   UNL     1     -18.599 -10.422  -2.707  1.00  0.00     0.053 A 
BRANCH   9  13
HETATM   13  N   UNL     1     -15.820 -11.962  -0.759  1.00  0.00    -0.282 N 
HETATM   14  H   UNL     1     -14.969 -11.567  -0.358  1.00  0.00     0.178 HD
BRANCH  13  15
HETATM   15  S   UNL     1     -15.735 -13.606  -0.972  1.00  0.00     0.227 S 
HETATM   16  C   UNL     1     -14.108 -14.044  -0.380  1.00  0.00     0.186 C 
HETATM   17  O   UNL     1     -16.697 -14.180  -0.055  1.00  0.00    -0.206 OA
HETATM   18  O   UNL     1     -15.795 -13.904  -2.395  1.00  0.00    -0.206 OA
ENDBRANCH  13  15
ENDBRANCH   9  13
ENDBRANCH   5   6
ENDBRANCH   3   5
BRANCH   1  19
HETATM   19  N   UNL     1     -20.050  -6.913  -6.129  1.00  0.00    -0.363 N 
HETATM   20  H   UNL     1     -20.316  -7.501  -6.901  1.00  0.00     0.162 HD
BRANCH  19  21
HETATM   21  C   UNL     1     -19.701  -5.557  -6.532  1.00  0.00     0.160 C 
BRANCH  21  22
HETATM   22  C   UNL     1     -20.602  -5.065  -7.641  1.00  0.00    -0.041 A 
HETATM   23  C   UNL     1     -20.104  -4.851  -8.930  1.00  0.00     0.009 A 
HETATM   24  C   UNL     1     -20.945  -4.425  -9.968  1.00  0.00     0.008 A 
HETATM   25  C   UNL     1     -22.312  -4.186  -9.757  1.00  0.00    -0.051 A 
HETATM   26  C   UNL     1     -22.796  -4.382  -8.449  1.00  0.00     0.008 A 
HETATM   27  C   UNL     1     -21.958  -4.806  -7.409  1.00  0.00     0.009 A 
BRANCH  25  28
HETATM   28  C   UNL     1     -23.257  -3.723 -10.882  1.00  0.00    -0.024 C 
HETATM   29  C   UNL     1     -22.688  -2.563 -11.732  1.00  0.00     0.019 C 
HETATM   30  C   UNL     1     -24.588  -3.231 -10.274  1.00  0.00     0.019 C 
HETATM   31  C   UNL     1     -23.548  -4.892 -11.849  1.00  0.00     0.019 C 
ENDBRANCH  25  28
ENDBRANCH  21  22
ENDBRANCH  19  21
ENDBRANCH   1  19
TORSDOF 8
ENDMDL
