MODEL 1
REMARK VINA RESULT:     -10.2      0.000      0.000
REMARK  10 active torsions:
REMARK  status: ('A' for Active; 'I' for Inactive)
REMARK    1  A    between atoms: C_3  and  C_10 
REMARK    2  A    between atoms: C_11  and  C_12 
REMARK    3  A    between atoms: C_13  and  C_14 
REMARK    4  A    between atoms: C_15  and  C_16 
REMARK    5  A    between atoms: C_17  and  C_18 
REMARK    6  A    between atoms: C_19  and  C_20 
REMARK    7  A    between atoms: C_21  and  C_23 
REMARK    8  A    between atoms: C_24  and  C_25 
REMARK    9  A    between atoms: C_26  and  C_28 
REMARK   10  A    between atoms: C_29  and  C_30 
ROOT
HETATM    1  C   UNL     1     -21.068 -10.369  -0.782  1.00  0.00     0.001 C 
HETATM    2  C   UNL     1     -20.698  -9.064  -0.754  1.00  0.00     0.001 C 
ENDROOT
BRANCH   1   3
HETATM    3  C   UNL     1     -21.463 -11.229   0.333  1.00  0.00     0.007 C 
HETATM    4  C   UNL     1     -21.828 -12.540   0.250  1.00  0.00    -0.062 C 
HETATM    5  C   UNL     1     -22.186 -13.416   1.425  1.00  0.00     0.048 C 
BRANCH   4   6
HETATM    6  C   UNL     1     -21.966 -13.199  -1.043  1.00  0.00     0.007 C 
HETATM    7  C   UNL     1     -22.837 -12.687  -1.916  1.00  0.00     0.001 C 
BRANCH   7   8
HETATM    8  C   UNL     1     -23.079 -13.064  -3.279  1.00  0.00     0.007 C 
HETATM    9  C   UNL     1     -22.232 -12.696  -4.268  1.00  0.00    -0.062 C 
HETATM   10  C   UNL     1     -22.340 -13.313  -5.627  1.00  0.00     0.048 C 
BRANCH   9  11
HETATM   11  C   UNL     1     -21.185 -11.683  -4.094  1.00  0.00     0.007 C 
HETATM   12  C   UNL     1     -19.896 -12.036  -3.957  1.00  0.00     0.009 C 
BRANCH  12  13
HETATM   13  C   UNL     1     -18.724 -11.215  -3.691  1.00  0.00    -0.048 C 
HETATM   14  C   UNL     1     -18.028 -11.488  -2.543  1.00  0.00    -0.077 C 
HETATM   15  C   UNL     1     -18.283 -12.602  -1.535  1.00  0.00     0.044 C 
HETATM   16  C   UNL     1     -16.833 -10.676  -2.107  1.00  0.00     0.034 C 
HETATM   17  C   UNL     1     -16.730  -9.398  -2.914  1.00  0.00     0.005 C 
HETATM   18  C   UNL     1     -16.729  -9.798  -4.389  1.00  0.00     0.014 C 
HETATM   19  C   UNL     1     -18.157 -10.257  -4.815  1.00  0.00    -0.020 C 
HETATM   20  C   UNL     1     -18.023 -11.048  -6.145  1.00  0.00     0.020 C 
HETATM   21  C   UNL     1     -18.922  -8.951  -5.190  1.00  0.00     0.020 C 
ENDBRANCH  12  13
ENDBRANCH   9  11
ENDBRANCH   7   8
ENDBRANCH   4   6
ENDBRANCH   1   3
BRANCH   2  22
HETATM   22  C   UNL     1     -20.591  -8.221  -1.963  1.00  0.00     0.007 C 
HETATM   23  C   UNL     1     -21.287  -7.108  -2.310  1.00  0.00    -0.062 C 
HETATM   24  C   UNL     1     -22.327  -6.376  -1.489  1.00  0.00     0.048 C 
BRANCH  23  25
HETATM   25  C   UNL     1     -21.113  -6.407  -3.603  1.00  0.00     0.007 C 
HETATM   26  C   UNL     1     -21.915  -6.584  -4.677  1.00  0.00     0.001 C 
BRANCH  26  27
HETATM   27  C   UNL     1     -22.094  -5.611  -5.766  1.00  0.00     0.007 C 
HETATM   28  C   UNL     1     -21.119  -4.899  -6.389  1.00  0.00    -0.062 C 
HETATM   29  C   UNL     1     -19.719  -4.781  -5.838  1.00  0.00     0.048 C 
BRANCH  28  30
HETATM   30  C   UNL     1     -21.374  -4.218  -7.686  1.00  0.00     0.007 C 
HETATM   31  C   UNL     1     -21.872  -4.815  -8.793  1.00  0.00     0.009 C 
BRANCH  31  32
HETATM   32  C   UNL     1     -22.313  -4.200 -10.055  1.00  0.00    -0.048 C 
HETATM   33  C   UNL     1     -21.459  -3.749 -11.007  1.00  0.00    -0.077 C 
HETATM   34  C   UNL     1     -21.928  -3.133 -12.315  1.00  0.00     0.034 C 
HETATM   35  C   UNL     1     -19.955  -3.848 -10.939  1.00  0.00     0.044 C 
HETATM   36  C   UNL     1     -23.411  -2.798 -12.375  1.00  0.00     0.005 C 
HETATM   37  C   UNL     1     -24.223  -3.931 -11.777  1.00  0.00     0.014 C 
HETATM   38  C   UNL     1     -23.856  -4.203 -10.290  1.00  0.00    -0.020 C 
HETATM   39  C   UNL     1     -24.516  -5.561  -9.944  1.00  0.00     0.020 C 
HETATM   40  C   UNL     1     -24.511  -3.122  -9.404  1.00  0.00     0.020 C 
ENDBRANCH  31  32
ENDBRANCH  28  30
ENDBRANCH  26  27
ENDBRANCH  23  25
ENDBRANCH   2  22
TORSDOF 10
BEGIN_RES ARG D 557
REMARK  4 active torsions:
REMARK  status: ('A' for Active; 'I' for Inactive)
REMARK    1  A    between atoms: CA   and  CB  
REMARK    2  A    between atoms: CB   and  CG  
REMARK    3  A    between atoms: CG   and  CD  
REMARK    4  A    between atoms: CD   and  NE  
REMARK       I    between atoms: NE   and  CZ  
REMARK       I    between atoms: CZ   and  NH1 
REMARK       I    between atoms: CZ   and  NH2 
ROOT
ATOM      1  CA  ARG D 557     -26.217   2.705 -17.014  1.00 35.49     0.159 C 
ENDROOT
BRANCH   1   2
ATOM      2  CB  ARG D 557     -26.789   1.319 -17.183  1.00 35.49     0.034 C 
BRANCH   2   3
ATOM      3  CG  ARG D 557     -28.240   1.223 -17.381  1.00 35.49     0.027 C 
BRANCH   3   4
ATOM      4  CD  ARG D 557     -28.875   0.262 -16.450  1.00 35.49     0.116 C 
BRANCH   4   5
ATOM      5  NE  ARG D 557     -29.267  -0.955 -17.110  1.00 35.49    -0.212 N 
ATOM      6  CZ  ARG D 557     -28.644  -2.109 -17.026  1.00 35.49     0.666 C 
ATOM      7  NH1 ARG D 557     -27.545  -2.272 -16.313  1.00 35.49    -0.235 N 
ATOM      8  NH2 ARG D 557     -29.154  -3.115 -17.676  1.00 35.49    -0.235 N 
ATOM      9  HH  ARG D 557     -27.193  -1.624 -15.876  1.00 35.49     0.174 HD
ATOM     10  HH  ARG D 557     -27.184  -3.048 -16.293  1.00 35.49     0.174 HD
ATOM     11  HH  ARG D 557     -29.868  -2.982 -18.122  1.00 35.49     0.174 HD
ATOM     12  HH  ARG D 557     -28.782  -3.876 -17.643  1.00 35.49     0.174 HD
ATOM     13  HE  ARG D 557     -29.924  -0.923 -17.649  1.00 35.49     0.178 HD
ENDBRANCH   4   5
ENDBRANCH   3   4
ENDBRANCH   2   3
ENDBRANCH   1   2
END_RES ARG D 557
BEGIN_RES GLU D 570
REMARK  3 active torsions:
REMARK  status: ('A' for Active; 'I' for Inactive)
REMARK    5  A    between atoms: CA   and  CB  
REMARK    6  A    between atoms: CB   and  CG  
REMARK    7  A    between atoms: CG   and  CD  
ROOT
ATOM     14  CA  GLU D 570     -18.033  -6.348 -13.375  1.00 32.92     0.160 C 
ENDROOT
BRANCH  14  15
ATOM     15  CB  GLU D 570     -19.500  -6.345 -13.794  1.00 32.92     0.043 C 
BRANCH  15  16
ATOM     16  CG  GLU D 570     -19.816  -5.907 -15.178  1.00 32.92     0.100 C 
BRANCH  16  17
ATOM     17  CD  GLU D 570     -21.284  -5.615 -15.384  1.00 32.92     0.185 C 
ATOM     18  OE1 GLU D 570     -22.082  -5.846 -14.455  1.00 32.92    -0.647 OA
ATOM     19  OE2 GLU D 570     -21.641  -5.167 -16.491  1.00 32.92    -0.647 OA
ENDBRANCH  16  17
ENDBRANCH  15  16
ENDBRANCH  14  15
END_RES GLU D 570
ENDMDL
MODEL 2
REMARK VINA RESULT:     -10.0      2.601     12.081
REMARK  10 active torsions:
REMARK  status: ('A' for Active; 'I' for Inactive)
REMARK    1  A    between atoms: C_3  and  C_10 
REMARK    2  A    between atoms: C_11  and  C_12 
REMARK    3  A    between atoms: C_13  and  C_14 
REMARK    4  A    between atoms: C_15  and  C_16 
REMARK    5  A    between atoms: C_17  and  C_18 
REMARK    6  A    between atoms: C_19  and  C_20 
REMARK    7  A    between atoms: C_21  and  C_23 
REMARK    8  A    between atoms: C_24  and  C_25 
REMARK    9  A    between atoms: C_26  and  C_28 
REMARK   10  A    between atoms: C_29  and  C_30 
ROOT
HETATM    1  C   UNL     1     -22.600  -3.064 -11.241  1.00  0.00     0.001 C 
HETATM    2  C   UNL     1     -23.227  -3.688 -10.213  1.00  0.00     0.001 C 
ENDROOT
BRANCH   1   3
HETATM    3  C   UNL     1     -23.184  -2.246 -12.303  1.00  0.00     0.007 C 
HETATM    4  C   UNL     1     -23.332  -2.608 -13.610  1.00  0.00    -0.062 C 
HETATM    5  C   UNL     1     -23.982  -1.760 -14.676  1.00  0.00     0.048 C 
BRANCH   4   6
HETATM    6  C   UNL     1     -22.793  -3.869 -14.104  1.00  0.00     0.007 C 
HETATM    7  C   UNL     1     -23.615  -4.919 -14.167  1.00  0.00     0.001 C 
BRANCH   7   8
HETATM    8  C   UNL     1     -23.376  -6.223 -14.715  1.00  0.00     0.007 C 
HETATM    9  C   UNL     1     -24.255  -6.794 -15.571  1.00  0.00    -0.062 C 
HETATM   10  C   UNL     1     -23.875  -8.020 -16.341  1.00  0.00     0.048 C 
BRANCH   9  11
HETATM   11  C   UNL     1     -25.613  -6.282 -15.791  1.00  0.00     0.007 C 
HETATM   12  C   UNL     1     -26.376  -6.752 -16.791  1.00  0.00     0.009 C 
BRANCH  12  13
HETATM   13  C   UNL     1     -27.697  -6.334 -17.237  1.00  0.00    -0.048 C 
HETATM   14  C   UNL     1     -27.820  -5.989 -18.557  1.00  0.00    -0.077 C 
HETATM   15  C   UNL     1     -26.759  -6.059 -19.647  1.00  0.00     0.044 C 
HETATM   16  C   UNL     1     -29.113  -5.473 -19.142  1.00  0.00     0.034 C 
HETATM   17  C   UNL     1     -30.093  -5.114 -18.045  1.00  0.00     0.005 C 
HETATM   18  C   UNL     1     -30.240  -6.346 -17.154  1.00  0.00     0.014 C 
HETATM   19  C   UNL     1     -28.952  -6.538 -16.296  1.00  0.00    -0.020 C 
HETATM   20  C   UNL     1     -28.957  -7.993 -15.754  1.00  0.00     0.020 C 
HETATM   21  C   UNL     1     -29.146  -5.632 -15.040  1.00  0.00     0.020 C 
ENDBRANCH  12  13
ENDBRANCH   9  11
ENDBRANCH   7   8
ENDBRANCH   4   6
ENDBRANCH   1   3
BRANCH   2  22
HETATM   22  C   UNL     1     -22.517  -4.250  -9.045  1.00  0.00     0.007 C 
HETATM   23  C   UNL     1     -21.225  -4.651  -8.924  1.00  0.00    -0.062 C 
HETATM   24  C   UNL     1     -20.126  -4.548  -9.960  1.00  0.00     0.048 C 
BRANCH  23  25
HETATM   25  C   UNL     1     -20.674  -5.268  -7.695  1.00  0.00     0.007 C 
HETATM   26  C   UNL     1     -20.437  -4.593  -6.548  1.00  0.00     0.001 C 
BRANCH  26  27
HETATM   27  C   UNL     1     -20.364  -5.203  -5.211  1.00  0.00     0.007 C 
HETATM   28  C   UNL     1     -21.249  -6.078  -4.665  1.00  0.00    -0.062 C 
HETATM   29  C   UNL     1     -22.618  -6.323  -5.253  1.00  0.00     0.048 C 
BRANCH  28  30
HETATM   30  C   UNL     1     -20.895  -6.881  -3.465  1.00  0.00     0.007 C 
HETATM   31  C   UNL     1     -21.674  -7.840  -2.915  1.00  0.00     0.009 C 
BRANCH  31  32
HETATM   32  C   UNL     1     -21.344  -8.795  -1.844  1.00  0.00    -0.048 C 
HETATM   33  C   UNL     1     -21.707  -8.621  -0.548  1.00  0.00    -0.077 C 
HETATM   34  C   UNL     1     -21.378  -9.624   0.545  1.00  0.00     0.034 C 
HETATM   35  C   UNL     1     -22.526  -7.467  -0.025  1.00  0.00     0.044 C 
HETATM   36  C   UNL     1     -20.377 -10.701   0.152  1.00  0.00     0.005 C 
HETATM   37  C   UNL     1     -20.695 -11.222  -1.236  1.00  0.00     0.014 C 
HETATM   38  C   UNL     1     -20.640 -10.104  -2.317  1.00  0.00    -0.020 C 
HETATM   39  C   UNL     1     -21.294 -10.719  -3.579  1.00  0.00     0.020 C 
HETATM   40  C   UNL     1     -19.164  -9.800  -2.651  1.00  0.00     0.020 C 
ENDBRANCH  31  32
ENDBRANCH  28  30
ENDBRANCH  26  27
ENDBRANCH  23  25
ENDBRANCH   2  22
TORSDOF 10
BEGIN_RES ARG D 557
REMARK  4 active torsions:
REMARK  status: ('A' for Active; 'I' for Inactive)
REMARK    1  A    between atoms: CA   and  CB  
REMARK    2  A    between atoms: CB   and  CG  
REMARK    3  A    between atoms: CG   and  CD  
REMARK    4  A    between atoms: CD   and  NE  
REMARK       I    between atoms: NE   and  CZ  
REMARK       I    between atoms: CZ   and  NH1 
REMARK       I    between atoms: CZ   and  NH2 
ROOT
ATOM      1  CA  ARG D 557     -26.217   2.705 -17.014  1.00 35.49     0.159 C 
ENDROOT
BRANCH   1   2
ATOM      2  CB  ARG D 557     -26.789   1.319 -17.183  1.00 35.49     0.034 C 
BRANCH   2   3
ATOM      3  CG  ARG D 557     -28.245   1.220 -17.344  1.00 35.49     0.027 C 
BRANCH   3   4
ATOM      4  CD  ARG D 557     -28.865   0.328 -16.338  1.00 35.49     0.116 C 
BRANCH   4   5
ATOM      5  NE  ARG D 557     -28.061  -0.837 -16.078  1.00 35.49    -0.212 N 
ATOM      6  CZ  ARG D 557     -28.228  -2.023 -16.619  1.00 35.49     0.666 C 
ATOM      7  NH1 ARG D 557     -29.197  -2.280 -17.478  1.00 35.49    -0.235 N 
ATOM      8  NH2 ARG D 557     -27.390  -2.960 -16.282  1.00 35.49    -0.235 N 
ATOM      9  HH  ARG D 557     -29.758  -1.677 -17.716  1.00 35.49     0.174 HD
ATOM     10  HH  ARG D 557     -29.256  -3.071 -17.801  1.00 35.49     0.174 HD
ATOM     11  HH  ARG D 557     -26.770  -2.763 -15.731  1.00 35.49     0.174 HD
ATOM     12  HH  ARG D 557     -27.464  -3.737 -16.614  1.00 35.49     0.174 HD
ATOM     13  HE  ARG D 557     -27.458  -0.781 -15.481  1.00 35.49     0.178 HD
ENDBRANCH   4   5
ENDBRANCH   3   4
ENDBRANCH   2   3
ENDBRANCH   1   2
END_RES ARG D 557
BEGIN_RES GLU D 570
REMARK  3 active torsions:
REMARK  status: ('A' for Active; 'I' for Inactive)
REMARK    5  A    between atoms: CA   and  CB  
REMARK    6  A    between atoms: CB   and  CG  
REMARK    7  A    between atoms: CG   and  CD  
ROOT
ATOM     14  CA  GLU D 570     -18.033  -6.348 -13.375  1.00 32.92     0.160 C 
ENDROOT
BRANCH  14  15
ATOM     15  CB  GLU D 570     -19.500  -6.345 -13.794  1.00 32.92     0.043 C 
BRANCH  15  16
ATOM     16  CG  GLU D 570     -20.097  -7.642 -14.207  1.00 32.92     0.100 C 
BRANCH  16  17
ATOM     17  CD  GLU D 570     -20.397  -7.708 -15.686  1.00 32.92     0.185 C 
ATOM     18  OE1 GLU D 570     -20.631  -8.815 -16.207  1.00 32.92    -0.647 OA
ATOM     19  OE2 GLU D 570     -20.382  -6.643 -16.334  1.00 32.92    -0.647 OA
ENDBRANCH  16  17
ENDBRANCH  15  16
ENDBRANCH  14  15
END_RES GLU D 570
ENDMDL
MODEL 3
REMARK VINA RESULT:      -9.9      2.586     12.114
REMARK  10 active torsions:
REMARK  status: ('A' for Active; 'I' for Inactive)
REMARK    1  A    between atoms: C_3  and  C_10 
REMARK    2  A    between atoms: C_11  and  C_12 
REMARK    3  A    between atoms: C_13  and  C_14 
REMARK    4  A    between atoms: C_15  and  C_16 
REMARK    5  A    between atoms: C_17  and  C_18 
REMARK    6  A    between atoms: C_19  and  C_20 
REMARK    7  A    between atoms: C_21  and  C_23 
REMARK    8  A    between atoms: C_24  and  C_25 
REMARK    9  A    between atoms: C_26  and  C_28 
REMARK   10  A    between atoms: C_29  and  C_30 
ROOT
HETATM    1  C   UNL     1     -23.151  -4.013  -9.734  1.00  0.00     0.001 C 
HETATM    2  C   UNL     1     -23.087  -3.765  -8.402  1.00  0.00     0.001 C 
ENDROOT
BRANCH   1   3
HETATM    3  C   UNL     1     -23.575  -3.117 -10.809  1.00  0.00     0.007 C 
HETATM    4  C   UNL     1     -23.743  -3.453 -12.120  1.00  0.00    -0.062 C 
HETATM    5  C   UNL     1     -24.227  -2.517 -13.200  1.00  0.00     0.048 C 
BRANCH   4   6
HETATM    6  C   UNL     1     -23.390  -4.782 -12.604  1.00  0.00     0.007 C 
HETATM    7  C   UNL     1     -23.747  -5.111 -13.847  1.00  0.00     0.001 C 
BRANCH   7   8
HETATM    8  C   UNL     1     -23.427  -6.291 -14.599  1.00  0.00     0.007 C 
HETATM    9  C   UNL     1     -24.240  -6.734 -15.585  1.00  0.00    -0.062 C 
HETATM   10  C   UNL     1     -23.773  -7.794 -16.533  1.00  0.00     0.048 C 
BRANCH   9  11
HETATM   11  C   UNL     1     -25.608  -6.240 -15.783  1.00  0.00     0.007 C 
HETATM   12  C   UNL     1     -26.361  -6.678 -16.805  1.00  0.00     0.009 C 
BRANCH  12  13
HETATM   13  C   UNL     1     -27.689  -6.266 -17.233  1.00  0.00    -0.048 C 
HETATM   14  C   UNL     1     -27.839  -5.954 -18.559  1.00  0.00    -0.077 C 
HETATM   15  C   UNL     1     -26.801  -6.056 -19.669  1.00  0.00     0.044 C 
HETATM   16  C   UNL     1     -29.141  -5.448 -19.130  1.00  0.00     0.034 C 
HETATM   17  C   UNL     1     -30.097  -5.057 -18.022  1.00  0.00     0.005 C 
HETATM   18  C   UNL     1     -30.230  -6.265 -17.097  1.00  0.00     0.014 C 
HETATM   19  C   UNL     1     -28.925  -6.441 -16.262  1.00  0.00    -0.020 C 
HETATM   20  C   UNL     1     -28.923  -7.882 -15.683  1.00  0.00     0.020 C 
HETATM   21  C   UNL     1     -29.089  -5.502 -15.026  1.00  0.00     0.020 C 
ENDBRANCH  12  13
ENDBRANCH   9  11
ENDBRANCH   7   8
ENDBRANCH   4   6
ENDBRANCH   1   3
BRANCH   2  22
HETATM   22  C   UNL     1     -22.383  -4.640  -7.442  1.00  0.00     0.007 C 
HETATM   23  C   UNL     1     -21.052  -4.833  -7.257  1.00  0.00    -0.062 C 
HETATM   24  C   UNL     1     -19.911  -4.122  -7.952  1.00  0.00     0.048 C 
BRANCH  23  25
HETATM   25  C   UNL     1     -20.496  -5.810  -6.292  1.00  0.00     0.007 C 
HETATM   26  C   UNL     1     -21.062  -6.105  -5.100  1.00  0.00     0.001 C 
BRANCH  26  27
HETATM   27  C   UNL     1     -20.849  -7.355  -4.353  1.00  0.00     0.007 C 
HETATM   28  C   UNL     1     -21.291  -7.639  -3.099  1.00  0.00    -0.062 C 
HETATM   29  C   UNL     1     -21.816  -6.579  -2.162  1.00  0.00     0.048 C 
BRANCH  28  30
HETATM   30  C   UNL     1     -21.314  -9.036  -2.591  1.00  0.00     0.007 C 
HETATM   31  C   UNL     1     -21.466  -9.389  -1.294  1.00  0.00     0.009 C 
BRANCH  31  32
HETATM   32  C   UNL     1     -21.670 -10.729  -0.720  1.00  0.00    -0.048 C 
HETATM   33  C   UNL     1     -20.654 -11.558  -0.374  1.00  0.00    -0.077 C 
HETATM   34  C   UNL     1     -20.878 -12.932   0.237  1.00  0.00     0.034 C 
HETATM   35  C   UNL     1     -19.187 -11.223  -0.483  1.00  0.00     0.044 C 
HETATM   36  C   UNL     1     -22.313 -13.436   0.182  1.00  0.00     0.005 C 
HETATM   37  C   UNL     1     -23.269 -12.317   0.547  1.00  0.00     0.014 C 
HETATM   38  C   UNL     1     -23.155 -11.100  -0.416  1.00  0.00    -0.020 C 
HETATM   39  C   UNL     1     -23.934  -9.954   0.275  1.00  0.00     0.020 C 
HETATM   40  C   UNL     1     -23.880 -11.435  -1.737  1.00  0.00     0.020 C 
ENDBRANCH  31  32
ENDBRANCH  28  30
ENDBRANCH  26  27
ENDBRANCH  23  25
ENDBRANCH   2  22
TORSDOF 10
BEGIN_RES ARG D 557
REMARK  4 active torsions:
REMARK  status: ('A' for Active; 'I' for Inactive)
REMARK    1  A    between atoms: CA   and  CB  
REMARK    2  A    between atoms: CB   and  CG  
REMARK    3  A    between atoms: CG   and  CD  
REMARK    4  A    between atoms: CD   and  NE  
REMARK       I    between atoms: NE   and  CZ  
REMARK       I    between atoms: CZ   and  NH1 
REMARK       I    between atoms: CZ   and  NH2 
ROOT
ATOM      1  CA  ARG D 557     -26.217   2.705 -17.014  1.00 35.49     0.159 C 
ENDROOT
BRANCH   1   2
ATOM      2  CB  ARG D 557     -26.789   1.319 -17.183  1.00 35.49     0.034 C 
BRANCH   2   3
ATOM      3  CG  ARG D 557     -28.240   1.223 -17.380  1.00 35.49     0.027 C 
BRANCH   3   4
ATOM      4  CD  ARG D 557     -28.867   0.224 -16.485  1.00 35.49     0.116 C 
BRANCH   4   5
ATOM      5  NE  ARG D 557     -27.920  -0.755 -16.018  1.00 35.49    -0.212 N 
ATOM      6  CZ  ARG D 557     -27.844  -2.004 -16.422  1.00 35.49     0.666 C 
ATOM      7  NH1 ARG D 557     -28.669  -2.510 -17.320  1.00 35.49    -0.235 N 
ATOM      8  NH2 ARG D 557     -26.908  -2.746 -15.905  1.00 35.49    -0.235 N 
ATOM      9  HH  ARG D 557     -29.291  -2.039 -17.674  1.00 35.49     0.174 HD
ATOM     10  HH  ARG D 557     -28.570  -3.330 -17.546  1.00 35.49     0.174 HD
ATOM     11  HH  ARG D 557     -26.385  -2.390 -15.333  1.00 35.49     0.174 HD
ATOM     12  HH  ARG D 557     -26.825  -3.555 -16.144  1.00 35.49     0.174 HD
ATOM     13  HE  ARG D 557     -27.397  -0.535 -15.385  1.00 35.49     0.178 HD
ENDBRANCH   4   5
ENDBRANCH   3   4
ENDBRANCH   2   3
ENDBRANCH   1   2
END_RES ARG D 557
BEGIN_RES GLU D 570
REMARK  3 active torsions:
REMARK  status: ('A' for Active; 'I' for Inactive)
REMARK    5  A    between atoms: CA   and  CB  
REMARK    6  A    between atoms: CB   and  CG  
REMARK    7  A    between atoms: CG   and  CD  
ROOT
ATOM     14  CA  GLU D 570     -18.033  -6.348 -13.375  1.00 32.92     0.160 C 
ENDROOT
BRANCH  14  15
ATOM     15  CB  GLU D 570     -19.500  -6.345 -13.794  1.00 32.92     0.043 C 
BRANCH  15  16
ATOM     16  CG  GLU D 570     -20.092  -7.639 -14.223  1.00 32.92     0.100 C 
BRANCH  16  17
ATOM     17  CD  GLU D 570     -20.407  -7.682 -15.700  1.00 32.92     0.185 C 
ATOM     18  OE1 GLU D 570     -20.656  -8.780 -16.233  1.00 32.92    -0.647 OA
ATOM     19  OE2 GLU D 570     -20.387  -6.609 -16.334  1.00 32.92    -0.647 OA
ENDBRANCH  16  17
ENDBRANCH  15  16
ENDBRANCH  14  15
END_RES GLU D 570
ENDMDL
MODEL 4
REMARK VINA RESULT:      -9.8      2.639     12.136
REMARK  10 active torsions:
REMARK  status: ('A' for Active; 'I' for Inactive)
REMARK    1  A    between atoms: C_3  and  C_10 
REMARK    2  A    between atoms: C_11  and  C_12 
REMARK    3  A    between atoms: C_13  and  C_14 
REMARK    4  A    between atoms: C_15  and  C_16 
REMARK    5  A    between atoms: C_17  and  C_18 
REMARK    6  A    between atoms: C_19  and  C_20 
REMARK    7  A    between atoms: C_21  and  C_23 
REMARK    8  A    between atoms: C_24  and  C_25 
REMARK    9  A    between atoms: C_26  and  C_28 
REMARK   10  A    between atoms: C_29  and  C_30 
ROOT
HETATM    1  C   UNL     1     -23.358  -3.837 -10.361  1.00  0.00     0.001 C 
HETATM    2  C   UNL     1     -23.297  -3.607  -9.026  1.00  0.00     0.001 C 
ENDROOT
BRANCH   1   3
HETATM    3  C   UNL     1     -23.861  -2.958 -11.416  1.00  0.00     0.007 C 
HETATM    4  C   UNL     1     -23.952  -3.260 -12.743  1.00  0.00    -0.062 C 
HETATM    5  C   UNL     1     -24.519  -2.349 -13.803  1.00  0.00     0.048 C 
BRANCH   4   6
HETATM    6  C   UNL     1     -23.426  -4.517 -13.263  1.00  0.00     0.007 C 
HETATM    7  C   UNL     1     -24.220  -5.251 -14.045  1.00  0.00     0.001 C 
BRANCH   7   8
HETATM    8  C   UNL     1     -23.917  -6.451 -14.771  1.00  0.00     0.007 C 
HETATM    9  C   UNL     1     -24.636  -6.812 -15.859  1.00  0.00    -0.062 C 
HETATM   10  C   UNL     1     -24.151  -7.903 -16.761  1.00  0.00     0.048 C 
BRANCH   9  11
HETATM   11  C   UNL     1     -25.917  -6.192 -16.218  1.00  0.00     0.007 C 
HETATM   12  C   UNL     1     -27.045  -6.918 -16.275  1.00  0.00     0.009 C 
BRANCH  12  13
HETATM   13  C   UNL     1     -28.387  -6.533 -16.686  1.00  0.00    -0.048 C 
HETATM   14  C   UNL     1     -29.156  -5.891 -15.751  1.00  0.00    -0.077 C 
HETATM   15  C   UNL     1     -28.758  -5.459 -14.346  1.00  0.00     0.044 C 
HETATM   16  C   UNL     1     -30.588  -5.493 -16.015  1.00  0.00     0.034 C 
HETATM   17  C   UNL     1     -31.107  -6.159 -17.273  1.00  0.00     0.005 C 
HETATM   18  C   UNL     1     -30.129  -5.817 -18.397  1.00  0.00     0.014 C 
HETATM   19  C   UNL     1     -28.805  -6.618 -18.210  1.00  0.00    -0.020 C 
HETATM   20  C   UNL     1     -27.713  -5.938 -19.080  1.00  0.00     0.020 C 
HETATM   21  C   UNL     1     -29.055  -8.006 -18.877  1.00  0.00     0.020 C 
ENDBRANCH  12  13
ENDBRANCH   9  11
ENDBRANCH   7   8
ENDBRANCH   4   6
ENDBRANCH   1   3
BRANCH   2  22
HETATM   22  C   UNL     1     -22.518  -4.444  -8.089  1.00  0.00     0.007 C 
HETATM   23  C   UNL     1     -21.197  -4.753  -8.094  1.00  0.00    -0.062 C 
HETATM   24  C   UNL     1     -20.133  -4.243  -9.041  1.00  0.00     0.048 C 
BRANCH  23  25
HETATM   25  C   UNL     1     -20.570  -5.673  -7.116  1.00  0.00     0.007 C 
HETATM   26  C   UNL     1     -20.970  -5.800  -5.830  1.00  0.00     0.001 C 
BRANCH  26  27
HETATM   27  C   UNL     1     -20.735  -6.983  -4.988  1.00  0.00     0.007 C 
HETATM   28  C   UNL     1     -21.093  -7.141  -3.686  1.00  0.00    -0.062 C 
HETATM   29  C   UNL     1     -21.526  -5.985  -2.816  1.00  0.00     0.048 C 
BRANCH  28  30
HETATM   30  C   UNL     1     -21.113  -8.485  -3.051  1.00  0.00     0.007 C 
HETATM   31  C   UNL     1     -20.257  -8.905  -2.093  1.00  0.00     0.009 C 
BRANCH  31  32
HETATM   32  C   UNL     1     -20.301 -10.139  -1.292  1.00  0.00    -0.048 C 
HETATM   33  C   UNL     1     -19.450 -11.180  -1.474  1.00  0.00    -0.077 C 
HETATM   34  C   UNL     1     -19.493 -12.441  -0.626  1.00  0.00     0.034 C 
HETATM   35  C   UNL     1     -18.322 -11.214  -2.475  1.00  0.00     0.044 C 
HETATM   36  C   UNL     1     -20.725 -12.584   0.255  1.00  0.00     0.005 C 
HETATM   37  C   UNL     1     -21.046 -11.257   0.916  1.00  0.00     0.014 C 
HETATM   38  C   UNL     1     -21.329 -10.132  -0.120  1.00  0.00    -0.020 C 
HETATM   39  C   UNL     1     -21.311  -8.812   0.691  1.00  0.00     0.020 C 
HETATM   40  C   UNL     1     -22.753 -10.317  -0.686  1.00  0.00     0.020 C 
ENDBRANCH  31  32
ENDBRANCH  28  30
ENDBRANCH  26  27
ENDBRANCH  23  25
ENDBRANCH   2  22
TORSDOF 10
BEGIN_RES ARG D 557
REMARK  4 active torsions:
REMARK  status: ('A' for Active; 'I' for Inactive)
REMARK    1  A    between atoms: CA   and  CB  
REMARK    2  A    between atoms: CB   and  CG  
REMARK    3  A    between atoms: CG   and  CD  
REMARK    4  A    between atoms: CD   and  NE  
REMARK       I    between atoms: NE   and  CZ  
REMARK       I    between atoms: CZ   and  NH1 
REMARK       I    between atoms: CZ   and  NH2 
ROOT
ATOM      1  CA  ARG D 557     -26.217   2.705 -17.014  1.00 35.49     0.159 C 
ENDROOT
BRANCH   1   2
ATOM      2  CB  ARG D 557     -26.789   1.319 -17.183  1.00 35.49     0.034 C 
BRANCH   2   3
ATOM      3  CG  ARG D 557     -28.232   1.226 -17.437  1.00 35.49     0.027 C 
BRANCH   3   4
ATOM      4  CD  ARG D 557     -28.896   0.233 -16.563  1.00 35.49     0.116 C 
BRANCH   4   5
ATOM      5  NE  ARG D 557     -28.009  -0.835 -16.184  1.00 35.49    -0.212 N 
ATOM      6  CZ  ARG D 557     -28.095  -2.084 -16.584  1.00 35.49     0.666 C 
ATOM      7  NH1 ARG D 557     -29.048  -2.504 -17.395  1.00 35.49    -0.235 N 
ATOM      8  NH2 ARG D 557     -27.190  -2.915 -16.156  1.00 35.49    -0.235 N 
ATOM      9  HH  ARG D 557     -29.653  -1.974 -17.691  1.00 35.49     0.174 HD
ATOM     10  HH  ARG D 557     -29.052  -3.330 -17.625  1.00 35.49     0.174 HD
ATOM     11  HH  ARG D 557     -26.582  -2.614 -15.640  1.00 35.49     0.174 HD
ATOM     12  HH  ARG D 557     -27.210  -3.728 -16.396  1.00 35.49     0.174 HD
ATOM     13  HE  ARG D 557     -27.408  -0.669 -15.606  1.00 35.49     0.178 HD
ENDBRANCH   4   5
ENDBRANCH   3   4
ENDBRANCH   2   3
ENDBRANCH   1   2
END_RES ARG D 557
BEGIN_RES GLU D 570
REMARK  3 active torsions:
REMARK  status: ('A' for Active; 'I' for Inactive)
REMARK    5  A    between atoms: CA   and  CB  
REMARK    6  A    between atoms: CB   and  CG  
REMARK    7  A    between atoms: CG   and  CD  
ROOT
ATOM     14  CA  GLU D 570     -18.033  -6.348 -13.375  1.00 32.92     0.160 C 
ENDROOT
BRANCH  14  15
ATOM     15  CB  GLU D 570     -19.500  -6.345 -13.794  1.00 32.92     0.043 C 
BRANCH  15  16
ATOM     16  CG  GLU D 570     -20.094  -7.640 -14.215  1.00 32.92     0.100 C 
BRANCH  16  17
ATOM     17  CD  GLU D 570     -20.541  -7.642 -15.659  1.00 32.92     0.185 C 
ATOM     18  OE1 GLU D 570     -20.688  -6.554 -16.248  1.00 32.92    -0.647 OA
ATOM     19  OE2 GLU D 570     -20.761  -8.743 -16.201  1.00 32.92    -0.647 OA
ENDBRANCH  16  17
ENDBRANCH  15  16
ENDBRANCH  14  15
END_RES GLU D 570
ENDMDL
MODEL 5
REMARK VINA RESULT:      -9.6      1.319      1.674
REMARK  10 active torsions:
REMARK  status: ('A' for Active; 'I' for Inactive)
REMARK    1  A    between atoms: C_3  and  C_10 
REMARK    2  A    between atoms: C_11  and  C_12 
REMARK    3  A    between atoms: C_13  and  C_14 
REMARK    4  A    between atoms: C_15  and  C_16 
REMARK    5  A    between atoms: C_17  and  C_18 
REMARK    6  A    between atoms: C_19  and  C_20 
REMARK    7  A    between atoms: C_21  and  C_23 
REMARK    8  A    between atoms: C_24  and  C_25 
REMARK    9  A    between atoms: C_26  and  C_28 
REMARK   10  A    between atoms: C_29  and  C_30 
ROOT
HETATM    1  C   UNL     1     -22.145 -10.901  -0.512  1.00  0.00     0.001 C 
HETATM    2  C   UNL     1     -21.370  -9.791  -0.592  1.00  0.00     0.001 C 
ENDROOT
BRANCH   1   3
HETATM    3  C   UNL     1     -22.393 -11.758   0.647  1.00  0.00     0.007 C 
HETATM    4  C   UNL     1     -23.080 -12.937   0.646  1.00  0.00    -0.062 C 
HETATM    5  C   UNL     1     -23.279 -13.824   1.849  1.00  0.00     0.048 C 
BRANCH   4   6
HETATM    6  C   UNL     1     -23.753 -13.410  -0.557  1.00  0.00     0.007 C 
HETATM    7  C   UNL     1     -23.039 -14.115  -1.437  1.00  0.00     0.001 C 
BRANCH   7   8
HETATM    8  C   UNL     1     -23.477 -14.788  -2.627  1.00  0.00     0.007 C 
HETATM    9  C   UNL     1     -23.013 -14.429  -3.845  1.00  0.00    -0.062 C 
HETATM   10  C   UNL     1     -23.261 -15.299  -5.038  1.00  0.00     0.048 C 
BRANCH   9  11
HETATM   11  C   UNL     1     -22.269 -13.187  -4.089  1.00  0.00     0.007 C 
HETATM   12  C   UNL     1     -20.948 -13.115  -3.857  1.00  0.00     0.009 C 
BRANCH  12  13
HETATM   13  C   UNL     1     -20.043 -11.979  -3.945  1.00  0.00    -0.048 C 
HETATM   14  C   UNL     1     -19.211 -11.770  -2.877  1.00  0.00    -0.077 C 
HETATM   15  C   UNL     1     -19.057 -12.628  -1.627  1.00  0.00     0.044 C 
HETATM   16  C   UNL     1     -18.268 -10.594  -2.802  1.00  0.00     0.034 C 
HETATM   17  C   UNL     1     -18.598  -9.573  -3.871  1.00  0.00     0.005 C 
HETATM   18  C   UNL     1     -18.598 -10.310  -5.210  1.00  0.00     0.014 C 
HETATM   19  C   UNL     1     -19.863 -11.214  -5.318  1.00  0.00    -0.020 C 
HETATM   20  C   UNL     1     -19.613 -12.245  -6.452  1.00  0.00     0.020 C 
HETATM   21  C   UNL     1     -20.998 -10.285  -5.852  1.00  0.00     0.020 C 
ENDBRANCH  12  13
ENDBRANCH   9  11
ENDBRANCH   7   8
ENDBRANCH   4   6
ENDBRANCH   1   3
BRANCH   2  22
HETATM   22  C   UNL     1     -21.412  -8.847  -1.729  1.00  0.00     0.007 C 
HETATM   23  C   UNL     1     -21.849  -7.563  -1.775  1.00  0.00    -0.062 C 
HETATM   24  C   UNL     1     -22.347  -6.715  -0.624  1.00  0.00     0.048 C 
BRANCH  23  25
HETATM   25  C   UNL     1     -21.895  -6.760  -3.020  1.00  0.00     0.007 C 
HETATM   26  C   UNL     1     -21.275  -7.109  -4.170  1.00  0.00     0.001 C 
BRANCH  26  27
HETATM   27  C   UNL     1     -21.663  -6.644  -5.511  1.00  0.00     0.007 C 
HETATM   28  C   UNL     1     -21.081  -5.646  -6.227  1.00  0.00    -0.062 C 
HETATM   29  C   UNL     1     -20.124  -4.654  -5.611  1.00  0.00     0.048 C 
BRANCH  28  30
HETATM   30  C   UNL     1     -21.330  -5.500  -7.685  1.00  0.00     0.007 C 
HETATM   31  C   UNL     1     -22.063  -4.515  -8.254  1.00  0.00     0.009 C 
BRANCH  31  32
HETATM   32  C   UNL     1     -22.225  -4.192  -9.680  1.00  0.00    -0.048 C 
HETATM   33  C   UNL     1     -21.189  -3.886 -10.501  1.00  0.00    -0.077 C 
HETATM   34  C   UNL     1     -21.367  -3.573 -11.978  1.00  0.00     0.034 C 
HETATM   35  C   UNL     1     -19.736  -3.875 -10.095  1.00  0.00     0.044 C 
HETATM   36  C   UNL     1     -22.806  -3.350 -12.420  1.00  0.00     0.005 C 
HETATM   37  C   UNL     1     -23.710  -4.390 -11.787  1.00  0.00     0.014 C 
HETATM   38  C   UNL     1     -23.677  -4.338 -10.232  1.00  0.00    -0.020 C 
HETATM   39  C   UNL     1     -24.373  -5.639  -9.761  1.00  0.00     0.020 C 
HETATM   40  C   UNL     1     -24.530  -3.145  -9.751  1.00  0.00     0.020 C 
ENDBRANCH  31  32
ENDBRANCH  28  30
ENDBRANCH  26  27
ENDBRANCH  23  25
ENDBRANCH   2  22
TORSDOF 10
BEGIN_RES ARG D 557
REMARK  4 active torsions:
REMARK  status: ('A' for Active; 'I' for Inactive)
REMARK    1  A    between atoms: CA   and  CB  
REMARK    2  A    between atoms: CB   and  CG  
REMARK    3  A    between atoms: CG   and  CD  
REMARK    4  A    between atoms: CD   and  NE  
REMARK       I    between atoms: NE   and  CZ  
REMARK       I    between atoms: CZ   and  NH1 
REMARK       I    between atoms: CZ   and  NH2 
ROOT
ATOM      1  CA  ARG D 557     -26.217   2.705 -17.014  1.00 35.49     0.159 C 
ENDROOT
BRANCH   1   2
ATOM      2  CB  ARG D 557     -26.789   1.319 -17.183  1.00 35.49     0.034 C 
BRANCH   2   3
ATOM      3  CG  ARG D 557     -26.048   0.217 -16.557  1.00 35.49     0.027 C 
BRANCH   3   4
ATOM      4  CD  ARG D 557     -26.934  -0.889 -16.130  1.00 35.49     0.116 C 
BRANCH   4   5
ATOM      5  NE  ARG D 557     -26.227  -1.892 -15.378  1.00 35.49    -0.212 N 
ATOM      6  CZ  ARG D 557     -26.478  -3.182 -15.392  1.00 35.49     0.666 C 
ATOM      7  NH1 ARG D 557     -27.451  -3.707 -16.113  1.00 35.49    -0.235 N 
ATOM      8  NH2 ARG D 557     -25.721  -3.948 -14.663  1.00 35.49    -0.235 N 
ATOM      9  HH  ARG D 557     -27.961  -3.221 -16.602  1.00 35.49     0.174 HD
ATOM     10  HH  ARG D 557     -27.567  -4.555 -16.084  1.00 35.49     0.174 HD
ATOM     11  HH  ARG D 557     -25.095  -3.582 -14.213  1.00 35.49     0.174 HD
ATOM     12  HH  ARG D 557     -25.850  -4.786 -14.649  1.00 35.49     0.174 HD
ATOM     13  HE  ARG D 557     -25.630  -1.633 -14.830  1.00 35.49     0.178 HD
ENDBRANCH   4   5
ENDBRANCH   3   4
ENDBRANCH   2   3
ENDBRANCH   1   2
END_RES ARG D 557
BEGIN_RES GLU D 570
REMARK  3 active torsions:
REMARK  status: ('A' for Active; 'I' for Inactive)
REMARK    5  A    between atoms: CA   and  CB  
REMARK    6  A    between atoms: CB   and  CG  
REMARK    7  A    between atoms: CG   and  CD  
ROOT
ATOM     14  CA  GLU D 570     -18.033  -6.348 -13.375  1.00 32.92     0.160 C 
ENDROOT
BRANCH  14  15
ATOM     15  CB  GLU D 570     -19.500  -6.345 -13.794  1.00 32.92     0.043 C 
BRANCH  15  16
ATOM     16  CG  GLU D 570     -19.822  -5.848 -15.157  1.00 32.92     0.100 C 
BRANCH  16  17
ATOM     17  CD  GLU D 570     -21.281  -5.496 -15.326  1.00 32.92     0.185 C 
ATOM     18  OE1 GLU D 570     -21.595  -4.568 -16.097  1.00 32.92    -0.647 OA
ATOM     19  OE2 GLU D 570     -22.119  -6.144 -14.669  1.00 32.92    -0.647 OA
ENDBRANCH  16  17
ENDBRANCH  15  16
ENDBRANCH  14  15
END_RES GLU D 570
ENDMDL
MODEL 6
REMARK VINA RESULT:      -9.3      1.250      2.866
REMARK  10 active torsions:
REMARK  status: ('A' for Active; 'I' for Inactive)
REMARK    1  A    between atoms: C_3  and  C_10 
REMARK    2  A    between atoms: C_11  and  C_12 
REMARK    3  A    between atoms: C_13  and  C_14 
REMARK    4  A    between atoms: C_15  and  C_16 
REMARK    5  A    between atoms: C_17  and  C_18 
REMARK    6  A    between atoms: C_19  and  C_20 
REMARK    7  A    between atoms: C_21  and  C_23 
REMARK    8  A    between atoms: C_24  and  C_25 
REMARK    9  A    between atoms: C_26  and  C_28 
REMARK   10  A    between atoms: C_29  and  C_30 
ROOT
HETATM    1  C   UNL     1     -23.196 -10.975  -1.352  1.00  0.00     0.001 C 
HETATM    2  C   UNL     1     -22.417 -10.913  -2.460  1.00  0.00     0.001 C 
ENDROOT
BRANCH   1   3
HETATM    3  C   UNL     1     -23.239 -12.014  -0.324  1.00  0.00     0.007 C 
HETATM    4  C   UNL     1     -22.219 -12.365   0.511  1.00  0.00    -0.062 C 
HETATM    5  C   UNL     1     -22.307 -13.411   1.595  1.00  0.00     0.048 C 
BRANCH   4   6
HETATM    6  C   UNL     1     -20.895 -11.772   0.368  1.00  0.00     0.007 C 
HETATM    7  C   UNL     1     -19.884 -12.574   0.024  1.00  0.00     0.001 C 
BRANCH   7   8
HETATM    8  C   UNL     1     -18.527 -12.233  -0.293  1.00  0.00     0.007 C 
HETATM    9  C   UNL     1     -18.198 -11.719  -1.501  1.00  0.00    -0.062 C 
HETATM   10  C   UNL     1     -16.846 -11.120  -1.727  1.00  0.00     0.048 C 
BRANCH   9  11
HETATM   11  C   UNL     1     -19.108 -11.725  -2.652  1.00  0.00     0.007 C 
HETATM   12  C   UNL     1     -19.213 -12.804  -3.445  1.00  0.00     0.009 C 
BRANCH  12  13
HETATM   13  C   UNL     1     -19.975 -12.995  -4.671  1.00  0.00    -0.048 C 
HETATM   14  C   UNL     1     -21.133 -13.721  -4.568  1.00  0.00    -0.077 C 
HETATM   15  C   UNL     1     -21.770 -14.297  -3.311  1.00  0.00     0.044 C 
HETATM   16  C   UNL     1     -21.988 -14.054  -5.767  1.00  0.00     0.034 C 
HETATM   17  C   UNL     1     -21.247 -13.758  -7.054  1.00  0.00     0.005 C 
HETATM   18  C   UNL     1     -20.785 -12.304  -6.981  1.00  0.00     0.014 C 
HETATM   19  C   UNL     1     -19.606 -12.171  -5.970  1.00  0.00    -0.020 C 
HETATM   20  C   UNL     1     -19.464 -10.669  -5.602  1.00  0.00     0.020 C 
HETATM   21  C   UNL     1     -18.318 -12.519  -6.778  1.00  0.00     0.020 C 
ENDBRANCH  12  13
ENDBRANCH   9  11
ENDBRANCH   7   8
ENDBRANCH   4   6
ENDBRANCH   1   3
BRANCH   2  22
HETATM   22  C   UNL     1     -22.255  -9.692  -3.276  1.00  0.00     0.007 C 
HETATM   23  C   UNL     1     -21.429  -8.630  -3.095  1.00  0.00    -0.062 C 
HETATM   24  C   UNL     1     -20.374  -8.453  -2.024  1.00  0.00     0.048 C 
BRANCH  23  25
HETATM   25  C   UNL     1     -21.433  -7.434  -3.970  1.00  0.00     0.007 C 
HETATM   26  C   UNL     1     -20.940  -7.414  -5.230  1.00  0.00     0.001 C 
BRANCH  26  27
HETATM   27  C   UNL     1     -21.337  -6.457  -6.274  1.00  0.00     0.007 C 
HETATM   28  C   UNL     1     -20.789  -5.236  -6.512  1.00  0.00    -0.062 C 
HETATM   29  C   UNL     1     -19.875  -4.550  -5.525  1.00  0.00     0.048 C 
BRANCH  28  30
HETATM   30  C   UNL     1     -21.035  -4.519  -7.790  1.00  0.00     0.007 C 
HETATM   31  C   UNL     1     -21.822  -4.967  -8.794  1.00  0.00     0.009 C 
BRANCH  31  32
HETATM   32  C   UNL     1     -22.258  -4.261 -10.011  1.00  0.00    -0.048 C 
HETATM   33  C   UNL     1     -21.400  -3.781 -10.946  1.00  0.00    -0.077 C 
HETATM   34  C   UNL     1     -21.864  -3.072 -12.208  1.00  0.00     0.034 C 
HETATM   35  C   UNL     1     -19.899  -3.932 -10.904  1.00  0.00     0.044 C 
HETATM   36  C   UNL     1     -23.336  -2.686 -12.226  1.00  0.00     0.005 C 
HETATM   37  C   UNL     1     -24.177  -3.827 -11.687  1.00  0.00     0.014 C 
HETATM   38  C   UNL     1     -23.802  -4.200 -10.224  1.00  0.00    -0.020 C 
HETATM   39  C   UNL     1     -24.502  -5.555  -9.953  1.00  0.00     0.020 C 
HETATM   40  C   UNL     1     -24.411  -3.155  -9.266  1.00  0.00     0.020 C 
ENDBRANCH  31  32
ENDBRANCH  28  30
ENDBRANCH  26  27
ENDBRANCH  23  25
ENDBRANCH   2  22
TORSDOF 10
BEGIN_RES ARG D 557
REMARK  4 active torsions:
REMARK  status: ('A' for Active; 'I' for Inactive)
REMARK    1  A    between atoms: CA   and  CB  
REMARK    2  A    between atoms: CB   and  CG  
REMARK    3  A    between atoms: CG   and  CD  
REMARK    4  A    between atoms: CD   and  NE  
REMARK       I    between atoms: NE   and  CZ  
REMARK       I    between atoms: CZ   and  NH1 
REMARK       I    between atoms: CZ   and  NH2 
ROOT
ATOM      1  CA  ARG D 557     -26.217   2.705 -17.014  1.00 35.49     0.159 C 
ENDROOT
BRANCH   1   2
ATOM      2  CB  ARG D 557     -26.789   1.319 -17.183  1.00 35.49     0.034 C 
BRANCH   2   3
ATOM      3  CG  ARG D 557     -28.221   1.157 -16.904  1.00 35.49     0.027 C 
BRANCH   3   4
ATOM      4  CD  ARG D 557     -28.581  -0.247 -16.600  1.00 35.49     0.116 C 
BRANCH   4   5
ATOM      5  NE  ARG D 557     -27.543  -0.928 -15.872  1.00 35.49    -0.212 N 
ATOM      6  CZ  ARG D 557     -27.274  -2.213 -15.939  1.00 35.49     0.666 C 
ATOM      7  NH1 ARG D 557     -27.964  -3.043 -16.698  1.00 35.49    -0.235 N 
ATOM      8  NH2 ARG D 557     -26.281  -2.656 -15.224  1.00 35.49    -0.235 N 
ATOM      9  HH  ARG D 557     -28.621  -2.773 -17.178  1.00 35.49     0.174 HD
ATOM     10  HH  ARG D 557     -27.742  -3.871 -16.703  1.00 35.49     0.174 HD
ATOM     11  HH  ARG D 557     -25.848  -2.096 -14.749  1.00 35.49     0.174 HD
ATOM     12  HH  ARG D 557     -26.075  -3.479 -15.244  1.00 35.49     0.174 HD
ATOM     13  HE  ARG D 557     -27.095  -0.482 -15.304  1.00 35.49     0.178 HD
ENDBRANCH   4   5
ENDBRANCH   3   4
ENDBRANCH   2   3
ENDBRANCH   1   2
END_RES ARG D 557
BEGIN_RES GLU D 570
REMARK  3 active torsions:
REMARK  status: ('A' for Active; 'I' for Inactive)
REMARK    5  A    between atoms: CA   and  CB  
REMARK    6  A    between atoms: CB   and  CG  
REMARK    7  A    between atoms: CG   and  CD  
ROOT
ATOM     14  CA  GLU D 570     -18.033  -6.348 -13.375  1.00 32.92     0.160 C 
ENDROOT
BRANCH  14  15
ATOM     15  CB  GLU D 570     -19.500  -6.345 -13.794  1.00 32.92     0.043 C 
BRANCH  15  16
ATOM     16  CG  GLU D 570     -19.802  -6.100 -15.228  1.00 32.92     0.100 C 
BRANCH  16  17
ATOM     17  CD  GLU D 570     -21.263  -5.813 -15.482  1.00 32.92     0.185 C 
ATOM     18  OE1 GLU D 570     -21.580  -4.756 -16.061  1.00 32.92    -0.647 OA
ATOM     19  OE2 GLU D 570     -22.101  -6.645 -15.082  1.00 32.92    -0.647 OA
ENDBRANCH  16  17
ENDBRANCH  15  16
ENDBRANCH  14  15
END_RES GLU D 570
ENDMDL
MODEL 7
REMARK VINA RESULT:      -9.2      1.930      3.345
REMARK  10 active torsions:
REMARK  status: ('A' for Active; 'I' for Inactive)
REMARK    1  A    between atoms: C_3  and  C_10 
REMARK    2  A    between atoms: C_11  and  C_12 
REMARK    3  A    between atoms: C_13  and  C_14 
REMARK    4  A    between atoms: C_15  and  C_16 
REMARK    5  A    between atoms: C_17  and  C_18 
REMARK    6  A    between atoms: C_19  and  C_20 
REMARK    7  A    between atoms: C_21  and  C_23 
REMARK    8  A    between atoms: C_24  and  C_25 
REMARK    9  A    between atoms: C_26  and  C_28 
REMARK   10  A    between atoms: C_29  and  C_30 
ROOT
HETATM    1  C   UNL     1     -21.528 -11.119  -0.161  1.00  0.00     0.001 C 
HETATM    2  C   UNL     1     -20.860  -9.939  -0.193  1.00  0.00     0.001 C 
ENDROOT
BRANCH   1   3
HETATM    3  C   UNL     1     -21.767 -12.000   0.981  1.00  0.00     0.007 C 
HETATM    4  C   UNL     1     -22.630 -13.056   1.018  1.00  0.00    -0.062 C 
HETATM    5  C   UNL     1     -22.822 -13.978   2.197  1.00  0.00     0.048 C 
BRANCH   4   6
HETATM    6  C   UNL     1     -23.512 -13.342  -0.107  1.00  0.00     0.007 C 
HETATM    7  C   UNL     1     -23.699 -14.620  -0.446  1.00  0.00     0.001 C 
BRANCH   7   8
HETATM    8  C   UNL     1     -24.592 -15.176  -1.422  1.00  0.00     0.007 C 
HETATM    9  C   UNL     1     -24.188 -15.399  -2.694  1.00  0.00    -0.062 C 
HETATM   10  C   UNL     1     -25.027 -16.219  -3.622  1.00  0.00     0.048 C 
BRANCH   9  11
HETATM   11  C   UNL     1     -22.944 -14.855  -3.249  1.00  0.00     0.007 C 
HETATM   12  C   UNL     1     -22.962 -14.023  -4.303  1.00  0.00     0.009 C 
BRANCH  12  13
HETATM   13  C   UNL     1     -21.860 -13.443  -5.057  1.00  0.00    -0.048 C 
HETATM   14  C   UNL     1     -21.657 -13.930  -6.322  1.00  0.00    -0.077 C 
HETATM   15  C   UNL     1     -22.490 -14.958  -7.076  1.00  0.00     0.044 C 
HETATM   16  C   UNL     1     -20.512 -13.470  -7.192  1.00  0.00     0.034 C 
HETATM   17  C   UNL     1     -19.506 -12.680  -6.382  1.00  0.00     0.005 C 
HETATM   18  C   UNL     1     -20.272 -11.557  -5.685  1.00  0.00     0.014 C 
HETATM   19  C   UNL     1     -21.134 -12.142  -4.525  1.00  0.00    -0.020 C 
HETATM   20  C   UNL     1     -22.199 -11.079  -4.144  1.00  0.00     0.020 C 
HETATM   21  C   UNL     1     -20.179 -12.226  -3.294  1.00  0.00     0.020 C 
ENDBRANCH  12  13
ENDBRANCH   9  11
ENDBRANCH   7   8
ENDBRANCH   4   6
ENDBRANCH   1   3
BRANCH   2  22
HETATM   22  C   UNL     1     -20.918  -8.999  -1.332  1.00  0.00     0.007 C 
HETATM   23  C   UNL     1     -21.609  -7.839  -1.467  1.00  0.00    -0.062 C 
HETATM   24  C   UNL     1     -22.461  -7.146  -0.425  1.00  0.00     0.048 C 
BRANCH  23  25
HETATM   25  C   UNL     1     -21.621  -7.036  -2.712  1.00  0.00     0.007 C 
HETATM   26  C   UNL     1     -21.216  -7.498  -3.916  1.00  0.00     0.001 C 
BRANCH  26  27
HETATM   27  C   UNL     1     -21.642  -6.953  -5.215  1.00  0.00     0.007 C 
HETATM   28  C   UNL     1     -21.135  -5.861  -5.846  1.00  0.00    -0.062 C 
HETATM   29  C   UNL     1     -20.247  -4.858  -5.149  1.00  0.00     0.048 C 
BRANCH  28  30
HETATM   30  C   UNL     1     -21.401  -5.613  -7.287  1.00  0.00     0.007 C 
HETATM   31  C   UNL     1     -21.791  -4.430  -7.814  1.00  0.00     0.009 C 
BRANCH  31  32
HETATM   32  C   UNL     1     -21.913  -4.045  -9.229  1.00  0.00    -0.048 C 
HETATM   33  C   UNL     1     -23.097  -3.763  -9.829  1.00  0.00    -0.077 C 
HETATM   34  C   UNL     1     -23.208  -3.346 -11.286  1.00  0.00     0.034 C 
HETATM   35  C   UNL     1     -24.439  -3.757  -9.139  1.00  0.00     0.044 C 
HETATM   36  C   UNL     1     -21.941  -3.535 -12.109  1.00  0.00     0.005 C 
HETATM   37  C   UNL     1     -20.734  -3.073 -11.314  1.00  0.00     0.014 C 
HETATM   38  C   UNL     1     -20.561  -3.863  -9.986  1.00  0.00    -0.020 C 
HETATM   39  C   UNL     1     -19.514  -3.067  -9.167  1.00  0.00     0.020 C 
HETATM   40  C   UNL     1     -19.959  -5.249 -10.300  1.00  0.00     0.020 C 
ENDBRANCH  31  32
ENDBRANCH  28  30
ENDBRANCH  26  27
ENDBRANCH  23  25
ENDBRANCH   2  22
TORSDOF 10
BEGIN_RES ARG D 557
REMARK  4 active torsions:
REMARK  status: ('A' for Active; 'I' for Inactive)
REMARK    1  A    between atoms: CA   and  CB  
REMARK    2  A    between atoms: CB   and  CG  
REMARK    3  A    between atoms: CG   and  CD  
REMARK    4  A    between atoms: CD   and  NE  
REMARK       I    between atoms: NE   and  CZ  
REMARK       I    between atoms: CZ   and  NH1 
REMARK       I    between atoms: CZ   and  NH2 
ROOT
ATOM      1  CA  ARG D 557     -26.217   2.705 -17.014  1.00 35.49     0.159 C 
ENDROOT
BRANCH   1   2
ATOM      2  CB  ARG D 557     -26.789   1.319 -17.183  1.00 35.49     0.034 C 
BRANCH   2   3
ATOM      3  CG  ARG D 557     -25.969   0.202 -16.697  1.00 35.49     0.027 C 
BRANCH   3   4
ATOM      4  CD  ARG D 557     -26.787  -0.887 -16.116  1.00 35.49     0.116 C 
BRANCH   4   5
ATOM      5  NE  ARG D 557     -26.039  -1.689 -15.184  1.00 35.49    -0.212 N 
ATOM      6  CZ  ARG D 557     -26.157  -2.988 -15.021  1.00 35.49     0.666 C 
ATOM      7  NH1 ARG D 557     -27.018  -3.714 -15.710  1.00 35.49    -0.235 N 
ATOM      8  NH2 ARG D 557     -25.381  -3.555 -14.144  1.00 35.49    -0.235 N 
ATOM      9  HH  ARG D 557     -27.537  -3.361 -16.294  1.00 35.49     0.174 HD
ATOM     10  HH  ARG D 557     -27.049  -4.557 -15.562  1.00 35.49     0.174 HD
ATOM     11  HH  ARG D 557     -24.830  -3.063 -13.719  1.00 35.49     0.174 HD
ATOM     12  HH  ARG D 557     -25.426  -4.392 -14.013  1.00 35.49     0.174 HD
ATOM     13  HE  ARG D 557     -25.512  -1.291 -14.648  1.00 35.49     0.178 HD
ENDBRANCH   4   5
ENDBRANCH   3   4
ENDBRANCH   2   3
ENDBRANCH   1   2
END_RES ARG D 557
BEGIN_RES GLU D 570
REMARK  3 active torsions:
REMARK  status: ('A' for Active; 'I' for Inactive)
REMARK    5  A    between atoms: CA   and  CB  
REMARK    6  A    between atoms: CB   and  CG  
REMARK    7  A    between atoms: CG   and  CD  
ROOT
ATOM     14  CA  GLU D 570     -18.033  -6.348 -13.375  1.00 32.92     0.160 C 
ENDROOT
BRANCH  14  15
ATOM     15  CB  GLU D 570     -19.500  -6.345 -13.794  1.00 32.92     0.043 C 
BRANCH  15  16
ATOM     16  CG  GLU D 570     -20.098  -7.642 -14.202  1.00 32.92     0.100 C 
BRANCH  16  17
ATOM     17  CD  GLU D 570     -20.544  -7.657 -15.646  1.00 32.92     0.185 C 
ATOM     18  OE1 GLU D 570     -20.753  -8.752 -16.203  1.00 32.92    -0.647 OA
ATOM     19  OE2 GLU D 570     -20.669  -6.563 -16.231  1.00 32.92    -0.647 OA
ENDBRANCH  16  17
ENDBRANCH  15  16
ENDBRANCH  14  15
END_RES GLU D 570
ENDMDL
MODEL 8
REMARK VINA RESULT:      -9.2      1.606      4.710
REMARK  10 active torsions:
REMARK  status: ('A' for Active; 'I' for Inactive)
REMARK    1  A    between atoms: C_3  and  C_10 
REMARK    2  A    between atoms: C_11  and  C_12 
REMARK    3  A    between atoms: C_13  and  C_14 
REMARK    4  A    between atoms: C_15  and  C_16 
REMARK    5  A    between atoms: C_17  and  C_18 
REMARK    6  A    between atoms: C_19  and  C_20 
REMARK    7  A    between atoms: C_21  and  C_23 
REMARK    8  A    between atoms: C_24  and  C_25 
REMARK    9  A    between atoms: C_26  and  C_28 
REMARK   10  A    between atoms: C_29  and  C_30 
ROOT
HETATM    1  C   UNL     1     -16.286 -10.943  -5.760  1.00  0.00     0.001 C 
HETATM    2  C   UNL     1     -17.608 -11.128  -5.520  1.00  0.00     0.001 C 
ENDROOT
BRANCH   1   3
HETATM    3  C   UNL     1     -15.218 -11.941  -5.800  1.00  0.00     0.007 C 
HETATM    4  C   UNL     1     -14.545 -12.445  -4.726  1.00  0.00    -0.062 C 
HETATM    5  C   UNL     1     -13.479 -13.511  -4.793  1.00  0.00     0.048 C 
BRANCH   4   6
HETATM    6  C   UNL     1     -14.775 -11.921  -3.385  1.00  0.00     0.007 C 
HETATM    7  C   UNL     1     -15.297 -12.744  -2.473  1.00  0.00     0.001 C 
BRANCH   7   8
HETATM    8  C   UNL     1     -15.512 -12.522  -1.071  1.00  0.00     0.007 C 
HETATM    9  C   UNL     1     -16.725 -12.153  -0.599  1.00  0.00    -0.062 C 
HETATM   10  C   UNL     1     -17.010 -12.187   0.870  1.00  0.00     0.048 C 
BRANCH   9  11
HETATM   11  C   UNL     1     -17.817 -11.687  -1.463  1.00  0.00     0.007 C 
HETATM   12  C   UNL     1     -19.101 -11.896  -1.129  1.00  0.00     0.009 C 
BRANCH  12  13
HETATM   13  C   UNL     1     -20.320 -11.601  -1.866  1.00  0.00    -0.048 C 
HETATM   14  C   UNL     1     -20.496 -12.262  -3.054  1.00  0.00    -0.077 C 
HETATM   15  C   UNL     1     -19.606 -13.333  -3.671  1.00  0.00     0.044 C 
HETATM   16  C   UNL     1     -21.679 -12.006  -3.956  1.00  0.00     0.034 C 
HETATM   17  C   UNL     1     -22.420 -10.756  -3.527  1.00  0.00     0.005 C 
HETATM   18  C   UNL     1     -22.766 -10.924  -2.049  1.00  0.00     0.014 C 
HETATM   19  C   UNL     1     -21.480 -10.771  -1.181  1.00  0.00    -0.020 C 
HETATM   20  C   UNL     1     -21.779 -11.368   0.221  1.00  0.00     0.020 C 
HETATM   21  C   UNL     1     -21.312  -9.238  -0.947  1.00  0.00     0.020 C 
ENDBRANCH  12  13
ENDBRANCH   9  11
ENDBRANCH   7   8
ENDBRANCH   4   6
ENDBRANCH   1   3
BRANCH   2  22
HETATM   22  C   UNL     1     -18.636 -10.098  -5.780  1.00  0.00     0.007 C 
HETATM   23  C   UNL     1     -19.170  -9.173  -4.942  1.00  0.00    -0.062 C 
HETATM   24  C   UNL     1     -18.783  -8.897  -3.505  1.00  0.00     0.048 C 
BRANCH  23  25
HETATM   25  C   UNL     1     -20.257  -8.247  -5.336  1.00  0.00     0.007 C 
HETATM   26  C   UNL     1     -20.247  -6.917  -5.089  1.00  0.00     0.001 C 
BRANCH  26  27
HETATM   27  C   UNL     1     -21.013  -5.914  -5.845  1.00  0.00     0.007 C 
HETATM   28  C   UNL     1     -20.519  -5.013  -6.735  1.00  0.00    -0.062 C 
HETATM   29  C   UNL     1     -19.044  -4.709  -6.851  1.00  0.00     0.048 C 
BRANCH  28  30
HETATM   30  C   UNL     1     -21.414  -4.296  -7.680  1.00  0.00     0.007 C 
HETATM   31  C   UNL     1     -21.428  -4.469  -9.021  1.00  0.00     0.009 C 
BRANCH  31  32
HETATM   32  C   UNL     1     -22.380  -3.939 -10.011  1.00  0.00    -0.048 C 
HETATM   33  C   UNL     1     -23.706  -3.787  -9.768  1.00  0.00    -0.077 C 
HETATM   34  C   UNL     1     -24.675  -3.219 -10.792  1.00  0.00     0.034 C 
HETATM   35  C   UNL     1     -24.387  -4.090  -8.456  1.00  0.00     0.044 C 
HETATM   36  C   UNL     1     -24.120  -3.092 -12.203  1.00  0.00     0.005 C 
HETATM   37  C   UNL     1     -22.709  -2.536 -12.157  1.00  0.00     0.014 C 
HETATM   38  C   UNL     1     -21.741  -3.443 -11.345  1.00  0.00    -0.020 C 
HETATM   39  C   UNL     1     -20.467  -2.590 -11.123  1.00  0.00     0.020 C 
HETATM   40  C   UNL     1     -21.349  -4.660 -12.209  1.00  0.00     0.020 C 
ENDBRANCH  31  32
ENDBRANCH  28  30
ENDBRANCH  26  27
ENDBRANCH  23  25
ENDBRANCH   2  22
TORSDOF 10
BEGIN_RES ARG D 557
REMARK  4 active torsions:
REMARK  status: ('A' for Active; 'I' for Inactive)
REMARK    1  A    between atoms: CA   and  CB  
REMARK    2  A    between atoms: CB   and  CG  
REMARK    3  A    between atoms: CG   and  CD  
REMARK    4  A    between atoms: CD   and  NE  
REMARK       I    between atoms: NE   and  CZ  
REMARK       I    between atoms: CZ   and  NH1 
REMARK       I    between atoms: CZ   and  NH2 
ROOT
ATOM      1  CA  ARG D 557     -26.217   2.705 -17.014  1.00 35.49     0.159 C 
ENDROOT
BRANCH   1   2
ATOM      2  CB  ARG D 557     -26.789   1.319 -17.183  1.00 35.49     0.034 C 
BRANCH   2   3
ATOM      3  CG  ARG D 557     -28.250   1.193 -17.106  1.00 35.49     0.027 C 
BRANCH   3   4
ATOM      4  CD  ARG D 557     -28.678  -0.160 -16.683  1.00 35.49     0.116 C 
BRANCH   4   5
ATOM      5  NE  ARG D 557     -27.629  -0.873 -16.002  1.00 35.49    -0.212 N 
ATOM      6  CZ  ARG D 557     -27.403  -2.165 -16.079  1.00 35.49     0.666 C 
ATOM      7  NH1 ARG D 557     -28.153  -2.974 -16.804  1.00 35.49    -0.235 N 
ATOM      8  NH2 ARG D 557     -26.393  -2.639 -15.409  1.00 35.49    -0.235 N 
ATOM      9  HH  ARG D 557     -28.822  -2.684 -17.254  1.00 35.49     0.174 HD
ATOM     10  HH  ARG D 557     -27.957  -3.808 -16.818  1.00 35.49     0.174 HD
ATOM     11  HH  ARG D 557     -25.921  -2.092 -14.956  1.00 35.49     0.174 HD
ATOM     12  HH  ARG D 557     -26.214  -3.467 -15.437  1.00 35.49     0.174 HD
ATOM     13  HE  ARG D 557     -27.142  -0.440 -15.455  1.00 35.49     0.178 HD
ENDBRANCH   4   5
ENDBRANCH   3   4
ENDBRANCH   2   3
ENDBRANCH   1   2
END_RES ARG D 557
BEGIN_RES GLU D 570
REMARK  3 active torsions:
REMARK  status: ('A' for Active; 'I' for Inactive)
REMARK    5  A    between atoms: CA   and  CB  
REMARK    6  A    between atoms: CB   and  CG  
REMARK    7  A    between atoms: CG   and  CD  
ROOT
ATOM     14  CA  GLU D 570     -18.033  -6.348 -13.375  1.00 32.92     0.160 C 
ENDROOT
BRANCH  14  15
ATOM     15  CB  GLU D 570     -19.500  -6.345 -13.794  1.00 32.92     0.043 C 
BRANCH  15  16
ATOM     16  CG  GLU D 570     -19.799  -6.178 -15.240  1.00 32.92     0.100 C 
BRANCH  16  17
ATOM     17  CD  GLU D 570     -21.265  -5.941 -15.515  1.00 32.92     0.185 C 
ATOM     18  OE1 GLU D 570     -21.599  -4.974 -16.226  1.00 32.92    -0.647 OA
ATOM     19  OE2 GLU D 570     -22.090  -6.721 -15.000  1.00 32.92    -0.647 OA
ENDBRANCH  16  17
ENDBRANCH  15  16
ENDBRANCH  14  15
END_RES GLU D 570
ENDMDL
MODEL 9
REMARK VINA RESULT:      -9.2      2.350      7.159
REMARK  10 active torsions:
REMARK  status: ('A' for Active; 'I' for Inactive)
REMARK    1  A    between atoms: C_3  and  C_10 
REMARK    2  A    between atoms: C_11  and  C_12 
REMARK    3  A    between atoms: C_13  and  C_14 
REMARK    4  A    between atoms: C_15  and  C_16 
REMARK    5  A    between atoms: C_17  and  C_18 
REMARK    6  A    between atoms: C_19  and  C_20 
REMARK    7  A    between atoms: C_21  and  C_23 
REMARK    8  A    between atoms: C_24  and  C_25 
REMARK    9  A    between atoms: C_26  and  C_28 
REMARK   10  A    between atoms: C_29  and  C_30 
ROOT
HETATM    1  C   UNL     1     -22.004  -5.120  -7.541  1.00  0.00     0.001 C 
HETATM    2  C   UNL     1     -21.947  -4.088  -8.419  1.00  0.00     0.001 C 
ENDROOT
BRANCH   1   3
HETATM    3  C   UNL     1     -21.885  -5.085  -6.084  1.00  0.00     0.007 C 
HETATM    4  C   UNL     1     -21.305  -6.038  -5.299  1.00  0.00    -0.062 C 
HETATM    5  C   UNL     1     -21.155  -5.953  -3.800  1.00  0.00     0.048 C 
BRANCH   4   6
HETATM    6  C   UNL     1     -20.824  -7.289  -5.872  1.00  0.00     0.007 C 
HETATM    7  C   UNL     1     -19.824  -7.919  -5.250  1.00  0.00     0.001 C 
BRANCH   7   8
HETATM    8  C   UNL     1     -19.250  -9.203  -5.531  1.00  0.00     0.007 C 
HETATM    9  C   UNL     1     -19.894 -10.346  -5.199  1.00  0.00    -0.062 C 
HETATM   10  C   UNL     1     -19.424 -11.663  -5.732  1.00  0.00     0.048 C 
BRANCH   9  11
HETATM   11  C   UNL     1     -21.057 -10.383  -4.305  1.00  0.00     0.007 C 
HETATM   12  C   UNL     1     -20.942 -10.813  -3.038  1.00  0.00     0.009 C 
BRANCH  12  13
HETATM   13  C   UNL     1     -21.963 -11.011  -2.020  1.00  0.00    -0.048 C 
HETATM   14  C   UNL     1     -22.758 -12.119  -2.153  1.00  0.00    -0.077 C 
HETATM   15  C   UNL     1     -22.661 -13.222  -3.199  1.00  0.00     0.044 C 
HETATM   16  C   UNL     1     -23.899 -12.415  -1.211  1.00  0.00     0.034 C 
HETATM   17  C   UNL     1     -24.210 -11.209  -0.349  1.00  0.00     0.005 C 
HETATM   18  C   UNL     1     -22.906 -10.798   0.333  1.00  0.00     0.014 C 
HETATM   19  C   UNL     1     -21.951 -10.133  -0.704  1.00  0.00    -0.020 C 
HETATM   20  C   UNL     1     -20.520 -10.133  -0.099  1.00  0.00     0.020 C 
HETATM   21  C   UNL     1     -22.372  -8.632  -0.760  1.00  0.00     0.020 C 
ENDBRANCH  12  13
ENDBRANCH   9  11
ENDBRANCH   7   8
ENDBRANCH   4   6
ENDBRANCH   1   3
BRANCH   2  22
HETATM   22  C   UNL     1     -22.357  -4.197  -9.835  1.00  0.00     0.007 C 
HETATM   23  C   UNL     1     -21.598  -4.202 -10.960  1.00  0.00    -0.062 C 
HETATM   24  C   UNL     1     -20.088  -4.175 -11.056  1.00  0.00     0.048 C 
BRANCH  23  25
HETATM   25  C   UNL     1     -22.167  -4.247 -12.328  1.00  0.00     0.007 C 
HETATM   26  C   UNL     1     -23.034  -5.191 -12.758  1.00  0.00     0.001 C 
BRANCH  26  27
HETATM   27  C   UNL     1     -23.971  -5.026 -13.880  1.00  0.00     0.007 C 
HETATM   28  C   UNL     1     -24.264  -5.944 -14.839  1.00  0.00    -0.062 C 
HETATM   29  C   UNL     1     -23.427  -7.180 -15.064  1.00  0.00     0.048 C 
BRANCH  28  30
HETATM   30  C   UNL     1     -25.464  -5.796 -15.704  1.00  0.00     0.007 C 
HETATM   31  C   UNL     1     -26.433  -4.868 -15.537  1.00  0.00     0.009 C 
BRANCH  31  32
HETATM   32  C   UNL     1     -27.557  -4.536 -16.428  1.00  0.00    -0.048 C 
HETATM   33  C   UNL     1     -28.075  -3.288 -16.546  1.00  0.00    -0.077 C 
HETATM   34  C   UNL     1     -29.223  -2.954 -17.485  1.00  0.00     0.034 C 
HETATM   35  C   UNL     1     -27.561  -2.064 -15.829  1.00  0.00     0.044 C 
HETATM   36  C   UNL     1     -29.941  -4.157 -18.079  1.00  0.00     0.005 C 
HETATM   37  C   UNL     1     -28.929  -5.200 -18.515  1.00  0.00     0.014 C 
HETATM   38  C   UNL     1     -28.051  -5.705 -17.335  1.00  0.00    -0.020 C 
HETATM   39  C   UNL     1     -26.889  -6.491 -17.992  1.00  0.00     0.020 C 
HETATM   40  C   UNL     1     -28.872  -6.699 -16.487  1.00  0.00     0.020 C 
ENDBRANCH  31  32
ENDBRANCH  28  30
ENDBRANCH  26  27
ENDBRANCH  23  25
ENDBRANCH   2  22
TORSDOF 10
BEGIN_RES ARG D 557
REMARK  4 active torsions:
REMARK  status: ('A' for Active; 'I' for Inactive)
REMARK    1  A    between atoms: CA   and  CB  
REMARK    2  A    between atoms: CB   and  CG  
REMARK    3  A    between atoms: CG   and  CD  
REMARK    4  A    between atoms: CD   and  NE  
REMARK       I    between atoms: NE   and  CZ  
REMARK       I    between atoms: CZ   and  NH1 
REMARK       I    between atoms: CZ   and  NH2 
ROOT
ATOM      1  CA  ARG D 557     -26.217   2.705 -17.014  1.00 35.49     0.159 C 
ENDROOT
BRANCH   1   2
ATOM      2  CB  ARG D 557     -26.789   1.319 -17.183  1.00 35.49     0.034 C 
BRANCH   2   3
ATOM      3  CG  ARG D 557     -25.828   0.212 -17.252  1.00 35.49     0.027 C 
BRANCH   3   4
ATOM      4  CD  ARG D 557     -24.653   0.428 -16.377  1.00 35.49     0.116 C 
BRANCH   4   5
ATOM      5  NE  ARG D 557     -24.766  -0.285 -15.132  1.00 35.49    -0.212 N 
ATOM      6  CZ  ARG D 557     -23.991  -1.271 -14.739  1.00 35.49     0.666 C 
ATOM      7  NH1 ARG D 557     -23.002  -1.735 -15.481  1.00 35.49    -0.235 N 
ATOM      8  NH2 ARG D 557     -24.225  -1.788 -13.568  1.00 35.49    -0.235 N 
ATOM      9  HH  ARG D 557     -22.829  -1.408 -16.254  1.00 35.49     0.174 HD
ATOM     10  HH  ARG D 557     -22.529  -2.378 -15.171  1.00 35.49     0.174 HD
ATOM     11  HH  ARG D 557     -24.865  -1.463 -13.108  1.00 35.49     0.174 HD
ATOM     12  HH  ARG D 557     -23.744  -2.423 -13.278  1.00 35.49     0.174 HD
ATOM     13  HE  ARG D 557     -25.422  -0.099 -14.624  1.00 35.49     0.178 HD
ENDBRANCH   4   5
ENDBRANCH   3   4
ENDBRANCH   2   3
ENDBRANCH   1   2
END_RES ARG D 557
BEGIN_RES GLU D 570
REMARK  3 active torsions:
REMARK  status: ('A' for Active; 'I' for Inactive)
REMARK    5  A    between atoms: CA   and  CB  
REMARK    6  A    between atoms: CB   and  CG  
REMARK    7  A    between atoms: CG   and  CD  
ROOT
ATOM     14  CA  GLU D 570     -18.033  -6.348 -13.375  1.00 32.92     0.160 C 
ENDROOT
BRANCH  14  15
ATOM     15  CB  GLU D 570     -19.500  -6.345 -13.794  1.00 32.92     0.043 C 
BRANCH  15  16
ATOM     16  CG  GLU D 570     -19.828  -6.874 -15.143  1.00 32.92     0.100 C 
BRANCH  16  17
ATOM     17  CD  GLU D 570     -20.449  -5.836 -16.048  1.00 32.92     0.185 C 
ATOM     18  OE1 GLU D 570     -20.447  -6.028 -17.280  1.00 32.92    -0.647 OA
ATOM     19  OE2 GLU D 570     -20.928  -4.813 -15.522  1.00 32.92    -0.647 OA
ENDBRANCH  16  17
ENDBRANCH  15  16
ENDBRANCH  14  15
END_RES GLU D 570
ENDMDL
