REMARK  15 active torsions:
REMARK  status: ('A' for Active; 'I' for Inactive)
REMARK    1  A    between atoms: O_2  and  C_3 
REMARK    2  A    between atoms: C_5  and  C_6 
REMARK    3  A    between atoms: C_6  and  C_7 
REMARK    4  A    between atoms: C_7  and  O_9 
REMARK    5  A    between atoms: O_9  and  C_10 
REMARK    6  A    between atoms: C_10  and  C_11 
REMARK    7  A    between atoms: C_18  and  O_19 
REMARK    8  A    between atoms: O_19  and  C_20 
REMARK    9  A    between atoms: C_23  and  O_24 
REMARK   10  A    between atoms: O_24  and  C_25 
REMARK   11  A    between atoms: C_25  and  C_27 
REMARK   12  A    between atoms: C_27  and  C_28 
REMARK   13  A    between atoms: C_36  and  O_37 
REMARK   14  A    between atoms: C_44  and  O_45 
REMARK   15  A    between atoms: C_49  and  O_50 
ROOT
HETATM    1  C   UNL     1      -1.558   6.948  -0.637  1.00  0.00    -0.050 C 
HETATM    2  C   UNL     1      -1.896   8.016   0.349  1.00  0.00    -0.013 C 
HETATM    3  C   UNL     1      -1.843   8.035   2.253  1.00  0.00     0.052 C 
HETATM    4  C   UNL     1      -2.436   9.341   3.200  1.00  0.00     0.046 A 
HETATM    5  C   UNL     1      -1.711  10.608   3.653  1.00  0.00    -0.005 A 
HETATM    6  C   UNL     1      -0.599  10.969   2.711  1.00  0.00     0.018 C 
HETATM    7  C   UNL     1      -2.383  11.868   4.181  1.00  0.00     0.018 C 
HETATM    8  C   UNL     1      -1.889   9.439   4.664  1.00  0.00     0.110 A 
HETATM    9  C   UNL     1      -0.924   8.357   5.018  1.00  0.00     0.174 C 
HETATM   10  C   UNL     1      -1.686   6.953   4.764  1.00  0.00     0.050 C 
HETATM   11  C   UNL     1      -3.221   6.847   4.918  1.00  0.00     0.016 C 
HETATM   12  C   UNL     1      -1.265   6.572   3.370  1.00  0.00     0.086 C 
HETATM   13  C   UNL     1      -1.592   4.886   2.730  1.00  0.00     0.131 A 
HETATM   14  C   UNL     1      -2.973   4.736   2.248  1.00  0.00    -0.000 C 
HETATM   15  C   UNL     1      -3.001   5.720   1.370  1.00  0.00    -0.029 C 
HETATM   16  C   UNL     1      -4.283   6.460   1.056  1.00  0.00     0.051 C 
HETATM   17  C   UNL     1      -1.290   5.870   1.299  1.00  0.00     0.099 A 
HETATM   18  O   UNL     1      -0.357   6.712   1.337  1.00  0.00    -0.304 OA
HETATM   19  C   UNL     1      -0.771   4.576   1.308  1.00  0.00     0.134 A 
HETATM   20  C   UNL     1      -0.810   5.287  -0.280  1.00  0.00     0.141 A 
ENDROOT
BRANCH   1  21
HETATM   21  C   UNL     1      -1.747   6.758  -2.147  1.00  0.00     0.213 C 
BRANCH  21  22
HETATM   22  O   UNL     1      -2.711   7.532  -2.844  1.00  0.00    -0.317 OA
BRANCH  22  23
HETATM   23  C   UNL     1      -3.839   6.813  -3.131  1.00  0.00     0.263 C 
HETATM   24  O   UNL     1      -4.292   5.923  -2.414  1.00  0.00    -0.265 OA
BRANCH  23  25
HETATM   25  C   UNL     1      -4.369   7.035  -4.526  1.00  0.00     0.149 C 
BRANCH  25  26
HETATM   26  C   UNL     1      -4.322   8.439  -5.057  1.00  0.00    -0.046 A 
HETATM   27  C   UNL     1      -3.245   8.852  -5.854  1.00  0.00     0.047 A 
HETATM   28  C   UNL     1      -3.252  10.107  -6.467  1.00  0.00     0.101 A 
HETATM   29  C   UNL     1      -4.312  10.982  -6.211  1.00  0.00     0.099 A 
HETATM   30  C   UNL     1      -5.369  10.596  -5.387  1.00  0.00     0.040 A 
HETATM   31  C   UNL     1      -5.378   9.323  -4.816  1.00  0.00     0.010 A 
BRANCH  28  32
HETATM   32  O   UNL     1      -2.261  10.535  -7.311  1.00  0.00    -0.353 OA
HETATM   33  C   UNL     1      -1.662   9.505  -8.093  1.00  0.00     0.210 C 
ENDBRANCH  28  32
BRANCH  29  34
HETATM   34  O   UNL     1      -4.326  12.214  -6.805  1.00  0.00    -0.358 OA
HETATM   35  H   UNL     1      -5.137  12.680  -6.550  1.00  0.00     0.217 HD
ENDBRANCH  29  34
ENDBRANCH  25  26
ENDBRANCH  23  25
ENDBRANCH  22  23
ENDBRANCH  21  22
ENDBRANCH   1  21
BRANCH  19  36
HETATM   36  O   UNL     1       0.609   4.441   1.675  1.00  0.00    -0.381 OA
HETATM   37  H   UNL     1       0.853   5.328   2.044  1.00  0.00     0.211 HD
ENDBRANCH  19  36
BRANCH  12  38
HETATM   38  O   UNL     1       0.195   6.369   3.544  1.00  0.00    -0.387 OA
HETATM   39  H   UNL     1       0.325   5.691   4.231  1.00  0.00     0.210 HD
ENDBRANCH  12  38
BRANCH   8  40
HETATM   40  O   UNL     1      -2.922   9.596   5.750  1.00  0.00    -0.306 OA
BRANCH  40  41
HETATM   41  C   UNL     1      -2.505   9.635   7.068  1.00  0.00     0.255 C 
HETATM   42  C   UNL     1      -3.538   9.147   8.060  1.00  0.00     0.126 C 
HETATM   43  O   UNL     1      -1.376   9.929   7.443  1.00  0.00    -0.266 OA
ENDBRANCH  40  41
ENDBRANCH   8  40
BRANCH   9  44
HETATM   44  O   UNL     1       0.269   8.560   4.207  1.00  0.00    -0.312 OA
BRANCH  44  45
HETATM   45  C   UNL     1       1.231   9.440   4.513  1.00  0.00     0.263 C 
HETATM   46  O   UNL     1       1.266  10.116   5.534  1.00  0.00    -0.265 OA
BRANCH  45  47
HETATM   47  C   UNL     1       2.245   9.570   3.377  1.00  0.00     0.149 C 
BRANCH  47  48
HETATM   48  C   UNL     1       3.620   9.190   3.830  1.00  0.00    -0.049 A 
HETATM   49  C   UNL     1       4.061   7.874   3.666  1.00  0.00     0.007 A 
HETATM   50  C   UNL     1       5.261   7.486   4.247  1.00  0.00     0.001 A 
HETATM   51  C   UNL     1       6.007   8.380   5.013  1.00  0.00     0.000 A 
HETATM   52  C   UNL     1       5.580   9.700   5.144  1.00  0.00     0.001 A 
HETATM   53  C   UNL     1       4.398  10.108   4.546  1.00  0.00     0.007 A 
ENDBRANCH  47  48
ENDBRANCH  45  47
ENDBRANCH  44  45
ENDBRANCH   9  44
TORSDOF 15
