MODEL 1
REMARK VINA RESULT:      -9.3      0.000      0.000
REMARK  15 active torsions:
REMARK  status: ('A' for Active; 'I' for Inactive)
REMARK    1  A    between atoms: O_2  and  C_3 
REMARK    2  A    between atoms: C_5  and  C_6 
REMARK    3  A    between atoms: C_6  and  C_7 
REMARK    4  A    between atoms: C_7  and  O_9 
REMARK    5  A    between atoms: O_9  and  C_10 
REMARK    6  A    between atoms: C_10  and  C_11 
REMARK    7  A    between atoms: C_18  and  O_19 
REMARK    8  A    between atoms: O_19  and  C_20 
REMARK    9  A    between atoms: C_23  and  O_24 
REMARK   10  A    between atoms: O_24  and  C_25 
REMARK   11  A    between atoms: C_25  and  C_27 
REMARK   12  A    between atoms: C_27  and  C_28 
REMARK   13  A    between atoms: C_36  and  O_37 
REMARK   14  A    between atoms: C_44  and  O_45 
REMARK   15  A    between atoms: C_49  and  O_50 
ROOT
HETATM    1  C   UNL     1     -20.967  -8.742  -5.091  1.00  0.00    -0.050 C 
HETATM    2  C   UNL     1     -21.796  -9.800  -4.443  1.00  0.00    -0.013 C 
HETATM    3  C   UNL     1     -21.308 -11.345  -3.441  1.00  0.00     0.052 C 
HETATM    4  C   UNL     1     -22.442 -12.526  -2.918  1.00  0.00     0.046 A 
HETATM    5  C   UNL     1     -23.276 -12.558  -1.637  1.00  0.00    -0.005 A 
HETATM    6  C   UNL     1     -23.521 -11.175  -1.109  1.00  0.00     0.018 C 
HETATM    7  C   UNL     1     -24.498 -13.435  -1.402  1.00  0.00     0.018 C 
HETATM    8  C   UNL     1     -21.993 -13.435  -1.723  1.00  0.00     0.110 A 
HETATM    9  C   UNL     1     -20.621 -13.131  -1.221  1.00  0.00     0.174 C 
HETATM   10  C   UNL     1     -19.621 -13.278  -2.483  1.00  0.00     0.050 C 
HETATM   11  C   UNL     1     -19.938 -14.260  -3.634  1.00  0.00     0.016 C 
HETATM   12  C   UNL     1     -19.504 -11.870  -3.004  1.00  0.00     0.086 C 
HETATM   13  C   UNL     1     -18.215 -11.440  -4.233  1.00  0.00     0.131 A 
HETATM   14  C   UNL     1     -18.610 -11.808  -5.601  1.00  0.00    -0.000 C 
HETATM   15  C   UNL     1     -19.749 -11.148  -5.680  1.00  0.00    -0.029 C 
HETATM   16  C   UNL     1     -20.890 -11.645  -6.540  1.00  0.00     0.051 C 
HETATM   17  C   UNL     1     -19.398 -10.137  -4.334  1.00  0.00     0.099 A 
HETATM   18  O   UNL     1     -19.887  -9.688  -3.266  1.00  0.00    -0.304 OA
HETATM   19  C   UNL     1     -18.052  -9.788  -4.431  1.00  0.00     0.134 A 
HETATM   20  C   UNL     1     -19.126  -8.534  -4.980  1.00  0.00     0.141 A 
ENDROOT
BRANCH   1  21
HETATM   21  C   UNL     1     -21.237  -7.590  -6.067  1.00  0.00     0.213 C 
BRANCH  21  22
HETATM   22  O   UNL     1     -21.951  -6.444  -5.632  1.00  0.00    -0.317 OA
BRANCH  22  23
HETATM   23  C   UNL     1     -21.372  -5.282  -6.064  1.00  0.00     0.263 C 
HETATM   24  O   UNL     1     -20.306  -4.841  -5.639  1.00  0.00    -0.265 OA
BRANCH  23  25
HETATM   25  C   UNL     1     -22.263  -4.446  -6.949  1.00  0.00     0.149 C 
BRANCH  25  26
HETATM   26  C   UNL     1     -21.960  -4.453  -8.420  1.00  0.00    -0.046 A 
HETATM   27  C   UNL     1     -23.006  -4.534  -9.351  1.00  0.00     0.047 A 
HETATM   28  C   UNL     1     -22.754  -4.404 -10.719  1.00  0.00     0.101 A 
HETATM   29  C   UNL     1     -21.433  -4.273 -11.157  1.00  0.00     0.099 A 
HETATM   30  C   UNL     1     -20.381  -4.233 -10.241  1.00  0.00     0.040 A 
HETATM   31  C   UNL     1     -20.645  -4.315  -8.874  1.00  0.00     0.010 A 
BRANCH  28  32
HETATM   32  O   UNL     1     -23.743  -4.405 -11.667  1.00  0.00    -0.353 OA
HETATM   33  C   UNL     1     -24.443  -3.170 -11.796  1.00  0.00     0.210 C 
ENDBRANCH  28  32
BRANCH  29  34
HETATM   34  O   UNL     1     -21.176  -4.148 -12.495  1.00  0.00    -0.358 OA
HETATM   35  H   UNL     1     -20.233  -3.962 -12.621  1.00  0.00     0.217 HD
ENDBRANCH  29  34
ENDBRANCH  25  26
ENDBRANCH  23  25
ENDBRANCH  22  23
ENDBRANCH  21  22
ENDBRANCH   1  21
BRANCH  19  36
HETATM   36  O   UNL     1     -17.425  -9.311  -3.233  1.00  0.00    -0.381 OA
HETATM   37  H   UNL     1     -18.051  -9.567  -2.509  1.00  0.00     0.211 HD
ENDBRANCH  19  36
BRANCH  12  38
HETATM   38  O   UNL     1     -18.840 -11.185  -1.867  1.00  0.00    -0.387 OA
HETATM   39  H   UNL     1     -19.399 -10.434  -1.601  1.00  0.00     0.210 HD
ENDBRANCH  12  38
BRANCH   8  40
HETATM   40  O   UNL     1     -22.164 -14.919  -1.917  1.00  0.00    -0.306 OA
BRANCH  40  41
HETATM   41  C   UNL     1     -21.717 -15.778  -0.930  1.00  0.00     0.255 C 
HETATM   42  C   UNL     1     -22.543 -15.749   0.338  1.00  0.00     0.126 C 
HETATM   43  O   UNL     1     -20.804 -16.586  -1.057  1.00  0.00    -0.266 OA
ENDBRANCH  40  41
ENDBRANCH   8  40
BRANCH   9  44
HETATM   44  O   UNL     1     -20.663 -11.803  -0.626  1.00  0.00    -0.312 OA
BRANCH  44  45
HETATM   45  C   UNL     1     -20.881 -11.582   0.677  1.00  0.00     0.263 C 
HETATM   46  O   UNL     1     -21.540 -12.307   1.412  1.00  0.00    -0.265 OA
BRANCH  45  47
HETATM   47  C   UNL     1     -20.279 -10.249   1.122  1.00  0.00     0.149 C 
BRANCH  47  48
HETATM   48  C   UNL     1     -21.054  -9.093   0.573  1.00  0.00    -0.049 A 
HETATM   49  C   UNL     1     -22.260  -8.723   1.175  1.00  0.00     0.007 A 
HETATM   50  C   UNL     1     -23.060  -7.771   0.557  1.00  0.00     0.001 A 
HETATM   51  C   UNL     1     -22.690  -7.209  -0.663  1.00  0.00     0.000 A 
HETATM   52  C   UNL     1     -21.470  -7.555  -1.241  1.00  0.00     0.001 A 
HETATM   53  C   UNL     1     -20.649  -8.484  -0.621  1.00  0.00     0.007 A 
ENDBRANCH  47  48
ENDBRANCH  45  47
ENDBRANCH  44  45
ENDBRANCH   9  44
TORSDOF 15
ENDMDL
MODEL 2
REMARK VINA RESULT:      -9.0      2.322      4.907
REMARK  15 active torsions:
REMARK  status: ('A' for Active; 'I' for Inactive)
REMARK    1  A    between atoms: O_2  and  C_3 
REMARK    2  A    between atoms: C_5  and  C_6 
REMARK    3  A    between atoms: C_6  and  C_7 
REMARK    4  A    between atoms: C_7  and  O_9 
REMARK    5  A    between atoms: O_9  and  C_10 
REMARK    6  A    between atoms: C_10  and  C_11 
REMARK    7  A    between atoms: C_18  and  O_19 
REMARK    8  A    between atoms: O_19  and  C_20 
REMARK    9  A    between atoms: C_23  and  O_24 
REMARK   10  A    between atoms: O_24  and  C_25 
REMARK   11  A    between atoms: C_25  and  C_27 
REMARK   12  A    between atoms: C_27  and  C_28 
REMARK   13  A    between atoms: C_36  and  O_37 
REMARK   14  A    between atoms: C_44  and  O_45 
REMARK   15  A    between atoms: C_49  and  O_50 
ROOT
HETATM    1  C   UNL     1     -20.526  -8.408  -3.380  1.00  0.00    -0.050 C 
HETATM    2  C   UNL     1     -19.508  -9.046  -2.496  1.00  0.00    -0.013 C 
HETATM    3  C   UNL     1     -19.354 -10.825  -1.831  1.00  0.00     0.052 C 
HETATM    4  C   UNL     1     -18.168 -11.304  -0.684  1.00  0.00     0.046 A 
HETATM    5  C   UNL     1     -16.738 -11.790  -0.923  1.00  0.00    -0.005 A 
HETATM    6  C   UNL     1     -16.185 -11.252  -2.211  1.00  0.00     0.018 C 
HETATM    7  C   UNL     1     -15.642 -11.860   0.132  1.00  0.00     0.018 C 
HETATM    8  C   UNL     1     -17.849 -12.835  -0.615  1.00  0.00     0.110 A 
HETATM    9  C   UNL     1     -18.646 -13.658  -1.572  1.00  0.00     0.174 C 
HETATM   10  C   UNL     1     -20.204 -13.363  -1.252  1.00  0.00     0.050 C 
HETATM   11  C   UNL     1     -20.661 -12.987   0.176  1.00  0.00     0.016 C 
HETATM   12  C   UNL     1     -20.563 -12.275  -2.228  1.00  0.00     0.086 C 
HETATM   13  C   UNL     1     -22.316 -11.816  -2.502  1.00  0.00     0.131 A 
HETATM   14  C   UNL     1     -22.820 -10.911  -1.459  1.00  0.00    -0.000 C 
HETATM   15  C   UNL     1     -21.929  -9.944  -1.566  1.00  0.00    -0.029 C 
HETATM   16  C   UNL     1     -21.536  -9.098  -0.374  1.00  0.00     0.051 C 
HETATM   17  C   UNL     1     -21.383 -10.452  -3.115  1.00  0.00     0.099 A 
HETATM   18  O   UNL     1     -20.343 -10.688  -3.781  1.00  0.00    -0.304 OA
HETATM   19  C   UNL     1     -22.514 -10.830  -3.837  1.00  0.00     0.134 A 
HETATM   20  C   UNL     1     -21.936  -9.242  -4.253  1.00  0.00     0.141 A 
ENDROOT
BRANCH   1  21
HETATM   21  C   UNL     1     -20.852  -6.972  -3.808  1.00  0.00     0.213 C 
BRANCH  21  22
HETATM   22  O   UNL     1     -20.470  -6.511  -5.095  1.00  0.00    -0.317 OA
BRANCH  22  23
HETATM   23  C   UNL     1     -21.368  -5.616  -5.610  1.00  0.00     0.263 C 
HETATM   24  O   UNL     1     -22.582  -5.807  -5.659  1.00  0.00    -0.265 OA
BRANCH  23  25
HETATM   25  C   UNL     1     -20.731  -4.457  -6.335  1.00  0.00     0.149 C 
BRANCH  25  26
HETATM   26  C   UNL     1     -20.900  -4.412  -7.827  1.00  0.00    -0.046 A 
HETATM   27  C   UNL     1     -22.113  -3.980  -8.383  1.00  0.00     0.047 A 
HETATM   28  C   UNL     1     -22.242  -3.802  -9.762  1.00  0.00     0.101 A 
HETATM   29  C   UNL     1     -21.168  -4.137 -10.593  1.00  0.00     0.099 A 
HETATM   30  C   UNL     1     -19.971  -4.605 -10.053  1.00  0.00     0.040 A 
HETATM   31  C   UNL     1     -19.834  -4.736  -8.671  1.00  0.00     0.010 A 
BRANCH  28  32
HETATM   32  O   UNL     1     -23.379  -3.317 -10.353  1.00  0.00    -0.353 OA
HETATM   33  C   UNL     1     -24.542  -3.366  -9.530  1.00  0.00     0.210 C 
ENDBRANCH  28  32
BRANCH  29  34
HETATM   34  O   UNL     1     -21.286  -3.968 -11.945  1.00  0.00    -0.358 OA
HETATM   35  H   UNL     1     -20.866  -3.132 -12.198  1.00  0.00     0.217 HD
ENDBRANCH  29  34
ENDBRANCH  25  26
ENDBRANCH  23  25
ENDBRANCH  22  23
ENDBRANCH  21  22
ENDBRANCH   1  21
BRANCH  19  36
HETATM   36  O   UNL     1     -22.294 -11.670  -4.979  1.00  0.00    -0.381 OA
HETATM   37  H   UNL     1     -23.042 -12.320  -4.954  1.00  0.00     0.211 HD
ENDBRANCH  19  36
BRANCH  12  38
HETATM   38  O   UNL     1     -20.403 -12.974  -3.528  1.00  0.00    -0.387 OA
HETATM   39  H   UNL     1     -21.202 -12.809  -4.059  1.00  0.00     0.210 HD
ENDBRANCH  12  38
BRANCH   8  40
HETATM   40  O   UNL     1     -17.871 -13.458   0.757  1.00  0.00    -0.306 OA
BRANCH  40  41
HETATM   41  C   UNL     1     -17.470 -14.774   0.900  1.00  0.00     0.255 C 
HETATM   42  C   UNL     1     -18.477 -15.656   1.606  1.00  0.00     0.126 C 
HETATM   43  O   UNL     1     -16.449 -15.256   0.424  1.00  0.00    -0.266 OA
ENDBRANCH  40  41
ENDBRANCH   8  40
BRANCH   9  44
HETATM   44  O   UNL     1     -18.219 -13.292  -2.916  1.00  0.00    -0.312 OA
BRANCH  44  45
HETATM   45  C   UNL     1     -17.419 -14.056  -3.672  1.00  0.00     0.263 C 
HETATM   46  O   UNL     1     -16.575 -14.832  -3.240  1.00  0.00    -0.265 OA
BRANCH  45  47
HETATM   47  C   UNL     1     -17.625 -13.772  -5.159  1.00  0.00     0.149 C 
BRANCH  47  48
HETATM   48  C   UNL     1     -17.044 -12.447  -5.544  1.00  0.00    -0.049 A 
HETATM   49  C   UNL     1     -15.656 -12.290  -5.593  1.00  0.00     0.007 A 
HETATM   50  C   UNL     1     -15.126 -11.020  -5.774  1.00  0.00     0.001 A 
HETATM   51  C   UNL     1     -15.956  -9.905  -5.874  1.00  0.00     0.000 A 
HETATM   52  C   UNL     1     -17.340 -10.072  -5.859  1.00  0.00     0.001 A 
HETATM   53  C   UNL     1     -17.883 -11.338  -5.707  1.00  0.00     0.007 A 
ENDBRANCH  47  48
ENDBRANCH  45  47
ENDBRANCH  44  45
ENDBRANCH   9  44
TORSDOF 15
ENDMDL
MODEL 3
REMARK VINA RESULT:      -8.8      1.944      3.716
REMARK  15 active torsions:
REMARK  status: ('A' for Active; 'I' for Inactive)
REMARK    1  A    between atoms: O_2  and  C_3 
REMARK    2  A    between atoms: C_5  and  C_6 
REMARK    3  A    between atoms: C_6  and  C_7 
REMARK    4  A    between atoms: C_7  and  O_9 
REMARK    5  A    between atoms: O_9  and  C_10 
REMARK    6  A    between atoms: C_10  and  C_11 
REMARK    7  A    between atoms: C_18  and  O_19 
REMARK    8  A    between atoms: O_19  and  C_20 
REMARK    9  A    between atoms: C_23  and  O_24 
REMARK   10  A    between atoms: O_24  and  C_25 
REMARK   11  A    between atoms: C_25  and  C_27 
REMARK   12  A    between atoms: C_27  and  C_28 
REMARK   13  A    between atoms: C_36  and  O_37 
REMARK   14  A    between atoms: C_44  and  O_45 
REMARK   15  A    between atoms: C_49  and  O_50 
ROOT
HETATM    1  C   UNL     1     -21.230  -8.039  -5.126  1.00  0.00    -0.050 C 
HETATM    2  C   UNL     1     -21.232  -9.496  -5.452  1.00  0.00    -0.013 C 
HETATM    3  C   UNL     1     -20.869 -11.027  -4.380  1.00  0.00     0.052 C 
HETATM    4  C   UNL     1     -20.775 -12.622  -5.014  1.00  0.00     0.046 A 
HETATM    5  C   UNL     1     -21.894 -13.640  -5.226  1.00  0.00    -0.005 A 
HETATM    6  C   UNL     1     -23.220 -12.964  -5.421  1.00  0.00     0.018 C 
HETATM    7  C   UNL     1     -21.803 -14.882  -6.103  1.00  0.00     0.018 C 
HETATM    8  C   UNL     1     -20.966 -13.788  -3.986  1.00  0.00     0.110 A 
HETATM    9  C   UNL     1     -21.198 -13.323  -2.587  1.00  0.00     0.174 C 
HETATM   10  C   UNL     1     -19.938 -12.389  -2.193  1.00  0.00     0.050 C 
HETATM   11  C   UNL     1     -18.546 -12.633  -2.819  1.00  0.00     0.016 C 
HETATM   12  C   UNL     1     -20.422 -10.997  -2.503  1.00  0.00     0.086 C 
HETATM   13  C   UNL     1     -19.484  -9.536  -1.916  1.00  0.00     0.131 A 
HETATM   14  C   UNL     1     -18.341  -9.227  -2.788  1.00  0.00    -0.000 C 
HETATM   15  C   UNL     1     -18.977  -9.102  -3.937  1.00  0.00    -0.029 C 
HETATM   16  C   UNL     1     -18.304  -9.437  -5.251  1.00  0.00     0.051 C 
HETATM   17  C   UNL     1     -20.522  -8.929  -3.205  1.00  0.00     0.099 A 
HETATM   18  O   UNL     1     -21.709  -9.341  -3.263  1.00  0.00    -0.304 OA
HETATM   19  C   UNL     1     -20.349  -8.117  -2.085  1.00  0.00     0.134 A 
HETATM   20  C   UNL     1     -21.001  -7.264  -3.455  1.00  0.00     0.141 A 
ENDROOT
BRANCH   1  21
HETATM   21  C   UNL     1     -21.310  -6.740  -5.936  1.00  0.00     0.213 C 
BRANCH  21  22
HETATM   22  O   UNL     1     -20.612  -6.627  -7.167  1.00  0.00    -0.317 OA
BRANCH  22  23
HETATM   23  C   UNL     1     -20.063  -5.385  -7.336  1.00  0.00     0.263 C 
HETATM   24  O   UNL     1     -19.718  -4.651  -6.412  1.00  0.00    -0.265 OA
BRANCH  23  25
HETATM   25  C   UNL     1     -20.125  -4.876  -8.755  1.00  0.00     0.149 C 
BRANCH  25  26
HETATM   26  C   UNL     1     -21.454  -4.376  -9.242  1.00  0.00    -0.046 A 
HETATM   27  C   UNL     1     -21.713  -4.299 -10.618  1.00  0.00     0.047 A 
HETATM   28  C   UNL     1     -22.987  -3.967 -11.086  1.00  0.00     0.101 A 
HETATM   29  C   UNL     1     -23.983  -3.633 -10.163  1.00  0.00     0.099 A 
HETATM   30  C   UNL     1     -23.725  -3.668  -8.793  1.00  0.00     0.040 A 
HETATM   31  C   UNL     1     -22.463  -4.046  -8.332  1.00  0.00     0.010 A 
BRANCH  28  32
HETATM   32  O   UNL     1     -23.315  -3.944 -12.416  1.00  0.00    -0.353 OA
HETATM   33  C   UNL     1     -22.947  -2.747 -13.097  1.00  0.00     0.210 C 
ENDBRANCH  28  32
BRANCH  29  34
HETATM   34  O   UNL     1     -25.233  -3.304 -10.613  1.00  0.00    -0.358 OA
HETATM   35  H   UNL     1     -25.531  -2.499 -10.161  1.00  0.00     0.217 HD
ENDBRANCH  29  34
ENDBRANCH  25  26
ENDBRANCH  23  25
ENDBRANCH  22  23
ENDBRANCH  21  22
ENDBRANCH   1  21
BRANCH  19  36
HETATM   36  O   UNL     1     -21.381  -8.167  -1.090  1.00  0.00    -0.381 OA
HETATM   37  H   UNL     1     -21.046  -8.817  -0.421  1.00  0.00     0.211 HD
ENDBRANCH  19  36
BRANCH  12  38
HETATM   38  O   UNL     1     -21.533 -10.844  -1.530  1.00  0.00    -0.387 OA
HETATM   39  H   UNL     1     -21.294 -11.331  -0.721  1.00  0.00     0.210 HD
ENDBRANCH  12  38
BRANCH   8  40
HETATM   40  O   UNL     1     -19.922 -14.874  -4.012  1.00  0.00    -0.306 OA
BRANCH  40  41
HETATM   41  C   UNL     1     -20.105 -15.995  -3.222  1.00  0.00     0.255 C 
HETATM   42  C   UNL     1     -18.979 -16.256  -2.246  1.00  0.00     0.126 C 
HETATM   43  O   UNL     1     -21.116 -16.687  -3.202  1.00  0.00    -0.266 OA
ENDBRANCH  40  41
ENDBRANCH   8  40
BRANCH   9  44
HETATM   44  O   UNL     1     -22.490 -12.649  -2.564  1.00  0.00    -0.312 OA
BRANCH  44  45
HETATM   45  C   UNL     1     -23.460 -12.939  -1.688  1.00  0.00     0.263 C 
HETATM   46  O   UNL     1     -24.205 -12.117  -1.168  1.00  0.00    -0.265 OA
BRANCH  45  47
HETATM   47  C   UNL     1     -23.465 -14.426  -1.338  1.00  0.00     0.149 C 
BRANCH  47  48
HETATM   48  C   UNL     1     -23.305 -14.638   0.135  1.00  0.00    -0.049 A 
HETATM   49  C   UNL     1     -24.215 -15.449   0.818  1.00  0.00     0.007 A 
HETATM   50  C   UNL     1     -24.168 -15.498   2.205  1.00  0.00     0.001 A 
HETATM   51  C   UNL     1     -23.251 -14.727   2.918  1.00  0.00     0.000 A 
HETATM   52  C   UNL     1     -22.323 -13.947   2.230  1.00  0.00     0.001 A 
HETATM   53  C   UNL     1     -22.341 -13.911   0.844  1.00  0.00     0.007 A 
ENDBRANCH  47  48
ENDBRANCH  45  47
ENDBRANCH  44  45
ENDBRANCH   9  44
TORSDOF 15
ENDMDL
MODEL 4
REMARK VINA RESULT:      -8.6      2.658      5.952
REMARK  15 active torsions:
REMARK  status: ('A' for Active; 'I' for Inactive)
REMARK    1  A    between atoms: O_2  and  C_3 
REMARK    2  A    between atoms: C_5  and  C_6 
REMARK    3  A    between atoms: C_6  and  C_7 
REMARK    4  A    between atoms: C_7  and  O_9 
REMARK    5  A    between atoms: O_9  and  C_10 
REMARK    6  A    between atoms: C_10  and  C_11 
REMARK    7  A    between atoms: C_18  and  O_19 
REMARK    8  A    between atoms: O_19  and  C_20 
REMARK    9  A    between atoms: C_23  and  O_24 
REMARK   10  A    between atoms: O_24  and  C_25 
REMARK   11  A    between atoms: C_25  and  C_27 
REMARK   12  A    between atoms: C_27  and  C_28 
REMARK   13  A    between atoms: C_36  and  O_37 
REMARK   14  A    between atoms: C_44  and  O_45 
REMARK   15  A    between atoms: C_49  and  O_50 
ROOT
HETATM    1  C   UNL     1     -20.640  -9.330  -5.044  1.00  0.00    -0.050 C 
HETATM    2  C   UNL     1     -19.192  -9.690  -5.058  1.00  0.00    -0.013 C 
HETATM    3  C   UNL     1     -18.204 -10.972  -4.054  1.00  0.00     0.052 C 
HETATM    4  C   UNL     1     -16.492 -11.108  -4.123  1.00  0.00     0.046 A 
HETATM    5  C   UNL     1     -15.629 -11.921  -5.089  1.00  0.00    -0.005 A 
HETATM    6  C   UNL     1     -16.331 -12.140  -6.398  1.00  0.00     0.018 C 
HETATM    7  C   UNL     1     -14.137 -11.724  -5.318  1.00  0.00     0.018 C 
HETATM    8  C   UNL     1     -15.886 -12.475  -3.658  1.00  0.00     0.110 A 
HETATM    9  C   UNL     1     -16.910 -13.464  -3.210  1.00  0.00     0.174 C 
HETATM   10  C   UNL     1     -17.753 -12.756  -2.025  1.00  0.00     0.050 C 
HETATM   11  C   UNL     1     -17.096 -11.696  -1.111  1.00  0.00     0.016 C 
HETATM   12  C   UNL     1     -18.944 -12.175  -2.740  1.00  0.00     0.086 C 
HETATM   13  C   UNL     1     -20.383 -11.552  -1.790  1.00  0.00     0.131 A 
HETATM   14  C   UNL     1     -20.157 -10.195  -1.271  1.00  0.00    -0.000 C 
HETATM   15  C   UNL     1     -19.879  -9.577  -2.402  1.00  0.00    -0.029 C 
HETATM   16  C   UNL     1     -18.951  -8.382  -2.441  1.00  0.00     0.051 C 
HETATM   17  C   UNL     1     -20.536 -10.823  -3.388  1.00  0.00     0.099 A 
HETATM   18  O   UNL     1     -20.293 -11.533  -4.397  1.00  0.00    -0.304 OA
HETATM   19  C   UNL     1     -21.706 -11.254  -2.766  1.00  0.00     0.134 A 
HETATM   20  C   UNL     1     -21.997 -10.171  -4.097  1.00  0.00     0.141 A 
ENDROOT
BRANCH   1  21
HETATM   21  C   UNL     1     -21.491  -8.207  -5.650  1.00  0.00     0.213 C 
BRANCH  21  22
HETATM   22  O   UNL     1     -20.861  -7.095  -6.267  1.00  0.00    -0.317 OA
BRANCH  22  23
HETATM   23  C   UNL     1     -21.547  -5.930  -6.053  1.00  0.00     0.263 C 
HETATM   24  O   UNL     1     -22.645  -5.866  -5.505  1.00  0.00    -0.265 OA
BRANCH  23  25
HETATM   25  C   UNL     1     -20.955  -4.733  -6.754  1.00  0.00     0.149 C 
BRANCH  25  26
HETATM   26  C   UNL     1     -21.165  -4.640  -8.238  1.00  0.00    -0.046 A 
HETATM   27  C   UNL     1     -22.452  -4.432  -8.753  1.00  0.00     0.047 A 
HETATM   28  C   UNL     1     -22.646  -4.207 -10.118  1.00  0.00     0.101 A 
HETATM   29  C   UNL     1     -21.547  -4.273 -10.980  1.00  0.00     0.099 A 
HETATM   30  C   UNL     1     -20.267  -4.520 -10.483  1.00  0.00     0.040 A 
HETATM   31  C   UNL     1     -20.075  -4.696  -9.112  1.00  0.00     0.010 A 
BRANCH  28  32
HETATM   32  O   UNL     1     -23.871  -3.929 -10.666  1.00  0.00    -0.353 OA
HETATM   33  C   UNL     1     -24.792  -3.308  -9.774  1.00  0.00     0.210 C 
ENDBRANCH  28  32
BRANCH  29  34
HETATM   34  O   UNL     1     -21.728  -4.057 -12.319  1.00  0.00    -0.358 OA
HETATM   35  H   UNL     1     -22.422  -4.650 -12.645  1.00  0.00     0.217 HD
ENDBRANCH  29  34
ENDBRANCH  25  26
ENDBRANCH  23  25
ENDBRANCH  22  23
ENDBRANCH  21  22
ENDBRANCH   1  21
BRANCH  19  36
HETATM   36  O   UNL     1     -22.202 -12.543  -3.156  1.00  0.00    -0.381 OA
HETATM   37  H   UNL     1     -23.181 -12.413  -3.241  1.00  0.00     0.211 HD
ENDBRANCH  19  36
BRANCH  12  38
HETATM   38  O   UNL     1     -19.625 -13.400  -3.228  1.00  0.00    -0.387 OA
HETATM   39  H   UNL     1     -19.219 -13.652  -4.077  1.00  0.00     0.210 HD
ENDBRANCH  12  38
BRANCH   8  40
HETATM   40  O   UNL     1     -14.761 -12.396  -2.658  1.00  0.00    -0.306 OA
BRANCH  40  41
HETATM   41  C   UNL     1     -14.218 -13.571  -2.171  1.00  0.00     0.255 C 
HETATM   42  C   UNL     1     -13.290 -14.274  -3.138  1.00  0.00     0.126 C 
HETATM   43  O   UNL     1     -14.358 -13.994  -1.029  1.00  0.00    -0.266 OA
ENDBRANCH  40  41
ENDBRANCH   8  40
BRANCH   9  44
HETATM   44  O   UNL     1     -17.694 -13.833  -4.381  1.00  0.00    -0.312 OA
BRANCH  44  45
HETATM   45  C   UNL     1     -17.570 -15.007  -5.014  1.00  0.00     0.263 C 
HETATM   46  O   UNL     1     -16.538 -15.664  -5.079  1.00  0.00    -0.265 OA
BRANCH  45  47
HETATM   47  C   UNL     1     -18.862 -15.386  -5.736  1.00  0.00     0.149 C 
BRANCH  47  48
HETATM   48  C   UNL     1     -18.997 -14.651  -7.033  1.00  0.00    -0.049 A 
HETATM   49  C   UNL     1     -18.213 -15.033  -8.126  1.00  0.00     0.007 A 
HETATM   50  C   UNL     1     -18.211 -14.239  -9.265  1.00  0.00     0.001 A 
HETATM   51  C   UNL     1     -18.950 -13.058  -9.316  1.00  0.00     0.000 A 
HETATM   52  C   UNL     1     -19.756 -12.702  -8.237  1.00  0.00     0.001 A 
HETATM   53  C   UNL     1     -19.790 -13.500  -7.104  1.00  0.00     0.007 A 
ENDBRANCH  47  48
ENDBRANCH  45  47
ENDBRANCH  44  45
ENDBRANCH   9  44
TORSDOF 15
ENDMDL
MODEL 5
REMARK VINA RESULT:      -8.4      2.191      4.461
REMARK  15 active torsions:
REMARK  status: ('A' for Active; 'I' for Inactive)
REMARK    1  A    between atoms: O_2  and  C_3 
REMARK    2  A    between atoms: C_5  and  C_6 
REMARK    3  A    between atoms: C_6  and  C_7 
REMARK    4  A    between atoms: C_7  and  O_9 
REMARK    5  A    between atoms: O_9  and  C_10 
REMARK    6  A    between atoms: C_10  and  C_11 
REMARK    7  A    between atoms: C_18  and  O_19 
REMARK    8  A    between atoms: O_19  and  C_20 
REMARK    9  A    between atoms: C_23  and  O_24 
REMARK   10  A    between atoms: O_24  and  C_25 
REMARK   11  A    between atoms: C_25  and  C_27 
REMARK   12  A    between atoms: C_27  and  C_28 
REMARK   13  A    between atoms: C_36  and  O_37 
REMARK   14  A    between atoms: C_44  and  O_45 
REMARK   15  A    between atoms: C_49  and  O_50 
ROOT
HETATM    1  C   UNL     1     -21.575  -7.907  -4.464  1.00  0.00    -0.050 C 
HETATM    2  C   UNL     1     -21.503  -9.239  -5.132  1.00  0.00    -0.013 C 
HETATM    3  C   UNL     1     -20.903 -10.934  -4.501  1.00  0.00     0.052 C 
HETATM    4  C   UNL     1     -20.761 -12.319  -5.509  1.00  0.00     0.046 A 
HETATM    5  C   UNL     1     -21.817 -13.368  -5.857  1.00  0.00    -0.005 A 
HETATM    6  C   UNL     1     -23.205 -12.802  -5.757  1.00  0.00     0.018 C 
HETATM    7  C   UNL     1     -21.733 -14.355  -7.013  1.00  0.00     0.018 C 
HETATM    8  C   UNL     1     -20.744 -13.705  -4.782  1.00  0.00     0.110 A 
HETATM    9  C   UNL     1     -20.848 -13.605  -3.297  1.00  0.00     0.174 C 
HETATM   10  C   UNL     1     -19.626 -12.665  -2.807  1.00  0.00     0.050 C 
HETATM   11  C   UNL     1     -18.300 -12.615  -3.601  1.00  0.00     0.016 C 
HETATM   12  C   UNL     1     -20.247 -11.297  -2.724  1.00  0.00     0.086 C 
HETATM   13  C   UNL     1     -19.362  -9.925  -1.891  1.00  0.00     0.131 A 
HETATM   14  C   UNL     1     -18.354  -9.306  -2.764  1.00  0.00    -0.000 C 
HETATM   15  C   UNL     1     -19.126  -8.983  -3.784  1.00  0.00    -0.029 C 
HETATM   16  C   UNL     1     -18.585  -8.932  -5.197  1.00  0.00     0.051 C 
HETATM   17  C   UNL     1     -20.585  -9.143  -2.891  1.00  0.00     0.099 A 
HETATM   18  O   UNL     1     -21.736  -9.648  -2.935  1.00  0.00    -0.304 OA
HETATM   19  C   UNL     1     -20.347  -8.600  -1.628  1.00  0.00     0.134 A 
HETATM   20  C   UNL     1     -21.215  -7.523  -2.683  1.00  0.00     0.141 A 
ENDROOT
BRANCH   1  21
HETATM   21  C   UNL     1     -21.847  -6.469  -4.924  1.00  0.00     0.213 C 
BRANCH  21  22
HETATM   22  O   UNL     1     -21.774  -6.140  -6.302  1.00  0.00    -0.317 OA
BRANCH  22  23
HETATM   23  C   UNL     1     -20.652  -5.415  -6.600  1.00  0.00     0.263 C 
HETATM   24  O   UNL     1     -19.518  -5.717  -6.235  1.00  0.00    -0.265 OA
BRANCH  23  25
HETATM   25  C   UNL     1     -20.939  -4.072  -7.225  1.00  0.00     0.149 C 
BRANCH  25  26
HETATM   26  C   UNL     1     -21.223  -4.054  -8.700  1.00  0.00    -0.046 A 
HETATM   27  C   UNL     1     -22.493  -3.685  -9.165  1.00  0.00     0.047 A 
HETATM   28  C   UNL     1     -22.735  -3.531 -10.532  1.00  0.00     0.101 A 
HETATM   29  C   UNL     1     -21.713  -3.827 -11.439  1.00  0.00     0.099 A 
HETATM   30  C   UNL     1     -20.458  -4.234 -10.989  1.00  0.00     0.040 A 
HETATM   31  C   UNL     1     -20.210  -4.340  -9.620  1.00  0.00     0.010 A 
BRANCH  28  32
HETATM   32  O   UNL     1     -23.935  -3.106 -11.038  1.00  0.00    -0.353 OA
HETATM   33  C   UNL     1     -25.049  -3.308 -10.172  1.00  0.00     0.210 C 
ENDBRANCH  28  32
BRANCH  29  34
HETATM   34  O   UNL     1     -21.941  -3.681 -12.780  1.00  0.00    -0.358 OA
HETATM   35  H   UNL     1     -21.542  -4.428 -13.253  1.00  0.00     0.217 HD
ENDBRANCH  29  34
ENDBRANCH  25  26
ENDBRANCH  23  25
ENDBRANCH  22  23
ENDBRANCH  21  22
ENDBRANCH   1  21
BRANCH  19  36
HETATM   36  O   UNL     1     -21.250  -8.986  -0.583  1.00  0.00    -0.381 OA
HETATM   37  H   UNL     1     -21.783  -9.722  -0.979  1.00  0.00     0.211 HD
ENDBRANCH  19  36
BRANCH  12  38
HETATM   38  O   UNL     1     -21.247 -11.488  -1.643  1.00  0.00    -0.387 OA
HETATM   39  H   UNL     1     -21.024 -10.879  -0.916  1.00  0.00     0.210 HD
ENDBRANCH  12  38
BRANCH   8  40
HETATM   40  O   UNL     1     -19.630 -14.644  -5.168  1.00  0.00    -0.306 OA
BRANCH  40  41
HETATM   41  C   UNL     1     -19.646 -15.937  -4.679  1.00  0.00     0.255 C 
HETATM   42  C   UNL     1     -18.384 -16.340  -3.948  1.00  0.00     0.126 C 
HETATM   43  O   UNL     1     -20.610 -16.693  -4.714  1.00  0.00    -0.266 OA
ENDBRANCH  40  41
ENDBRANCH   8  40
BRANCH   9  44
HETATM   44  O   UNL     1     -22.176 -13.090  -2.990  1.00  0.00    -0.312 OA
BRANCH  44  45
HETATM   45  C   UNL     1     -23.075 -13.753  -2.252  1.00  0.00     0.263 C 
HETATM   46  O   UNL     1     -23.841 -13.237  -1.448  1.00  0.00    -0.265 OA
BRANCH  45  47
HETATM   47  C   UNL     1     -22.964 -15.262  -2.466  1.00  0.00     0.149 C 
BRANCH  47  48
HETATM   48  C   UNL     1     -24.209 -15.816  -3.086  1.00  0.00    -0.049 A 
HETATM   49  C   UNL     1     -25.146 -16.472  -2.283  1.00  0.00     0.007 A 
HETATM   50  C   UNL     1     -26.205 -17.136  -2.886  1.00  0.00     0.001 A 
HETATM   51  C   UNL     1     -26.324 -17.183  -4.274  1.00  0.00     0.000 A 
HETATM   52  C   UNL     1     -25.406 -16.498  -5.068  1.00  0.00     0.001 A 
HETATM   53  C   UNL     1     -24.360 -15.807  -4.478  1.00  0.00     0.007 A 
ENDBRANCH  47  48
ENDBRANCH  45  47
ENDBRANCH  44  45
ENDBRANCH   9  44
TORSDOF 15
ENDMDL
MODEL 6
REMARK VINA RESULT:      -8.4      1.892      3.585
REMARK  15 active torsions:
REMARK  status: ('A' for Active; 'I' for Inactive)
REMARK    1  A    between atoms: O_2  and  C_3 
REMARK    2  A    between atoms: C_5  and  C_6 
REMARK    3  A    between atoms: C_6  and  C_7 
REMARK    4  A    between atoms: C_7  and  O_9 
REMARK    5  A    between atoms: O_9  and  C_10 
REMARK    6  A    between atoms: C_10  and  C_11 
REMARK    7  A    between atoms: C_18  and  O_19 
REMARK    8  A    between atoms: O_19  and  C_20 
REMARK    9  A    between atoms: C_23  and  O_24 
REMARK   10  A    between atoms: O_24  and  C_25 
REMARK   11  A    between atoms: C_25  and  C_27 
REMARK   12  A    between atoms: C_27  and  C_28 
REMARK   13  A    between atoms: C_36  and  O_37 
REMARK   14  A    between atoms: C_44  and  O_45 
REMARK   15  A    between atoms: C_49  and  O_50 
ROOT
HETATM    1  C   UNL     1     -21.064  -8.440  -4.457  1.00  0.00    -0.050 C 
HETATM    2  C   UNL     1     -20.954  -9.694  -5.257  1.00  0.00    -0.013 C 
HETATM    3  C   UNL     1     -20.120 -11.364  -4.874  1.00  0.00     0.052 C 
HETATM    4  C   UNL     1     -19.979 -12.633  -6.024  1.00  0.00     0.046 A 
HETATM    5  C   UNL     1     -20.967 -13.755  -6.345  1.00  0.00    -0.005 A 
HETATM    6  C   UNL     1     -22.377 -13.350  -6.024  1.00  0.00     0.018 C 
HETATM    7  C   UNL     1     -20.941 -14.623  -7.595  1.00  0.00     0.018 C 
HETATM    8  C   UNL     1     -19.737 -14.068  -5.445  1.00  0.00     0.110 A 
HETATM    9  C   UNL     1     -19.658 -14.109  -3.956  1.00  0.00     0.174 C 
HETATM   10  C   UNL     1     -18.477 -13.090  -3.525  1.00  0.00     0.050 C 
HETATM   11  C   UNL     1     -17.275 -12.831  -4.463  1.00  0.00     0.016 C 
HETATM   12  C   UNL     1     -19.208 -11.808  -3.233  1.00  0.00     0.086 C 
HETATM   13  C   UNL     1     -18.357 -10.427  -2.380  1.00  0.00     0.131 A 
HETATM   14  C   UNL     1     -17.533  -9.632  -3.303  1.00  0.00    -0.000 C 
HETATM   15  C   UNL     1     -18.457  -9.305  -4.186  1.00  0.00    -0.029 C 
HETATM   16  C   UNL     1     -18.110  -9.074  -5.641  1.00  0.00     0.051 C 
HETATM   17  C   UNL     1     -19.767  -9.695  -3.144  1.00  0.00     0.099 A 
HETATM   18  O   UNL     1     -20.860 -10.314  -3.100  1.00  0.00    -0.304 OA
HETATM   19  C   UNL     1     -19.419  -9.242  -1.872  1.00  0.00     0.134 A 
HETATM   20  C   UNL     1     -20.515  -8.176  -2.703  1.00  0.00     0.141 A 
ENDROOT
BRANCH   1  21
HETATM   21  C   UNL     1     -21.527  -7.005  -4.736  1.00  0.00     0.213 C 
BRANCH  21  22
HETATM   22  O   UNL     1     -21.885  -6.619  -6.054  1.00  0.00    -0.317 OA
BRANCH  22  23
HETATM   23  C   UNL     1     -20.839  -6.045  -6.724  1.00  0.00     0.263 C 
HETATM   24  O   UNL     1     -19.708  -6.525  -6.781  1.00  0.00    -0.265 OA
BRANCH  23  25
HETATM   25  C   UNL     1     -21.115  -4.642  -7.205  1.00  0.00     0.149 C 
BRANCH  25  26
HETATM   26  C   UNL     1     -21.329  -4.458  -8.680  1.00  0.00    -0.046 A 
HETATM   27  C   UNL     1     -22.594  -4.098  -9.166  1.00  0.00     0.047 A 
HETATM   28  C   UNL     1     -22.778  -3.790 -10.516  1.00  0.00     0.101 A 
HETATM   29  C   UNL     1     -21.699  -3.923 -11.396  1.00  0.00     0.099 A 
HETATM   30  C   UNL     1     -20.446  -4.319 -10.930  1.00  0.00     0.040 A 
HETATM   31  C   UNL     1     -20.259  -4.579  -9.572  1.00  0.00     0.010 A 
BRANCH  28  32
HETATM   32  O   UNL     1     -23.974  -3.366 -11.032  1.00  0.00    -0.353 OA
HETATM   33  C   UNL     1     -25.040  -3.308 -10.088  1.00  0.00     0.210 C 
ENDBRANCH  28  32
BRANCH  29  34
HETATM   34  O   UNL     1     -21.871  -3.625 -12.720  1.00  0.00    -0.358 OA
HETATM   35  H   UNL     1     -21.502  -2.747 -12.898  1.00  0.00     0.217 HD
ENDBRANCH  29  34
ENDBRANCH  25  26
ENDBRANCH  23  25
ENDBRANCH  22  23
ENDBRANCH  21  22
ENDBRANCH   1  21
BRANCH  19  36
HETATM   36  O   UNL     1     -20.140  -9.810  -0.770  1.00  0.00    -0.381 OA
HETATM   37  H   UNL     1     -19.466  -9.885  -0.047  1.00  0.00     0.211 HD
ENDBRANCH  19  36
BRANCH  12  38
HETATM   38  O   UNL     1     -20.037 -12.197  -2.065  1.00  0.00    -0.387 OA
HETATM   39  H   UNL     1     -20.018 -11.463  -1.424  1.00  0.00     0.210 HD
ENDBRANCH  12  38
BRANCH   8  40
HETATM   40  O   UNL     1     -18.598 -14.846  -6.053  1.00  0.00    -0.306 OA
BRANCH  40  41
HETATM   41  C   UNL     1     -18.294 -16.094  -5.541  1.00  0.00     0.255 C 
HETATM   42  C   UNL     1     -19.265 -17.183  -5.942  1.00  0.00     0.126 C 
HETATM   43  O   UNL     1     -17.284 -16.368  -4.902  1.00  0.00    -0.266 OA
ENDBRANCH  40  41
ENDBRANCH   8  40
BRANCH   9  44
HETATM   44  O   UNL     1     -20.977 -13.766  -3.443  1.00  0.00    -0.312 OA
BRANCH  44  45
HETATM   45  C   UNL     1     -21.692 -14.567  -2.643  1.00  0.00     0.263 C 
HETATM   46  O   UNL     1     -21.248 -15.542  -2.047  1.00  0.00    -0.265 OA
BRANCH  45  47
HETATM   47  C   UNL     1     -23.168 -14.171  -2.637  1.00  0.00     0.149 C 
BRANCH  47  48
HETATM   48  C   UNL     1     -23.446 -13.130  -1.598  1.00  0.00    -0.049 A 
HETATM   49  C   UNL     1     -23.580 -11.793  -1.980  1.00  0.00     0.007 A 
HETATM   50  C   UNL     1     -23.659 -10.814  -0.999  1.00  0.00     0.001 A 
HETATM   51  C   UNL     1     -23.573 -11.146   0.352  1.00  0.00     0.000 A 
HETATM   52  C   UNL     1     -23.475 -12.485   0.728  1.00  0.00     0.001 A 
HETATM   53  C   UNL     1     -23.424 -13.474  -0.241  1.00  0.00     0.007 A 
ENDBRANCH  47  48
ENDBRANCH  45  47
ENDBRANCH  44  45
ENDBRANCH   9  44
TORSDOF 15
ENDMDL
MODEL 7
REMARK VINA RESULT:      -8.3      2.416      5.473
REMARK  15 active torsions:
REMARK  status: ('A' for Active; 'I' for Inactive)
REMARK    1  A    between atoms: O_2  and  C_3 
REMARK    2  A    between atoms: C_5  and  C_6 
REMARK    3  A    between atoms: C_6  and  C_7 
REMARK    4  A    between atoms: C_7  and  O_9 
REMARK    5  A    between atoms: O_9  and  C_10 
REMARK    6  A    between atoms: C_10  and  C_11 
REMARK    7  A    between atoms: C_18  and  O_19 
REMARK    8  A    between atoms: O_19  and  C_20 
REMARK    9  A    between atoms: C_23  and  O_24 
REMARK   10  A    between atoms: O_24  and  C_25 
REMARK   11  A    between atoms: C_25  and  C_27 
REMARK   12  A    between atoms: C_27  and  C_28 
REMARK   13  A    between atoms: C_36  and  O_37 
REMARK   14  A    between atoms: C_44  and  O_45 
REMARK   15  A    between atoms: C_49  and  O_50 
ROOT
HETATM    1  C   UNL     1     -20.757  -8.909  -4.762  1.00  0.00    -0.050 C 
HETATM    2  C   UNL     1     -19.330  -9.342  -4.811  1.00  0.00    -0.013 C 
HETATM    3  C   UNL     1     -18.409 -10.750  -3.918  1.00  0.00     0.052 C 
HETATM    4  C   UNL     1     -16.707 -10.969  -4.006  1.00  0.00     0.046 A 
HETATM    5  C   UNL     1     -15.888 -11.745  -5.037  1.00  0.00    -0.005 A 
HETATM    6  C   UNL     1     -16.600 -11.821  -6.357  1.00  0.00     0.018 C 
HETATM    7  C   UNL     1     -14.388 -11.609  -5.256  1.00  0.00     0.018 C 
HETATM    8  C   UNL     1     -16.173 -12.399  -3.654  1.00  0.00     0.110 A 
HETATM    9  C   UNL     1     -17.248 -13.366  -3.283  1.00  0.00     0.174 C 
HETATM   10  C   UNL     1     -18.053 -12.713  -2.041  1.00  0.00     0.050 C 
HETATM   11  C   UNL     1     -17.341 -11.766  -1.048  1.00  0.00     0.016 C 
HETATM   12  C   UNL     1     -19.211 -12.015  -2.702  1.00  0.00     0.086 C 
HETATM   13  C   UNL     1     -20.616 -11.397  -1.699  1.00  0.00     0.131 A 
HETATM   14  C   UNL     1     -20.319 -10.100  -1.073  1.00  0.00    -0.000 C 
HETATM   15  C   UNL     1     -20.009  -9.407  -2.152  1.00  0.00    -0.029 C 
HETATM   16  C   UNL     1     -19.020  -8.264  -2.098  1.00  0.00     0.051 C 
HETATM   17  C   UNL     1     -20.730 -10.534  -3.232  1.00  0.00     0.099 A 
HETATM   18  O   UNL     1     -20.525 -11.173  -4.296  1.00  0.00    -0.304 OA
HETATM   19  C   UNL     1     -21.922 -10.953  -2.642  1.00  0.00     0.134 A 
HETATM   20  C   UNL     1     -22.156  -9.752  -3.880  1.00  0.00     0.141 A 
ENDROOT
BRANCH   1  21
HETATM   21  C   UNL     1     -21.547  -7.698  -5.272  1.00  0.00     0.213 C 
BRANCH  21  22
HETATM   22  O   UNL     1     -20.948  -6.411  -5.279  1.00  0.00    -0.317 OA
BRANCH  22  23
HETATM   23  C   UNL     1     -20.423  -6.094  -6.501  1.00  0.00     0.263 C 
HETATM   24  O   UNL     1     -19.546  -6.745  -7.067  1.00  0.00    -0.265 OA
BRANCH  23  25
HETATM   25  C   UNL     1     -20.839  -4.737  -7.014  1.00  0.00     0.149 C 
BRANCH  25  26
HETATM   26  C   UNL     1     -21.090  -4.614  -8.489  1.00  0.00    -0.046 A 
HETATM   27  C   UNL     1     -22.403  -4.515  -8.971  1.00  0.00     0.047 A 
HETATM   28  C   UNL     1     -22.649  -4.264 -10.323  1.00  0.00     0.101 A 
HETATM   29  C   UNL     1     -21.569  -4.191 -11.208  1.00  0.00     0.099 A 
HETATM   30  C   UNL     1     -20.261  -4.329 -10.745  1.00  0.00     0.040 A 
HETATM   31  C   UNL     1     -20.021  -4.533  -9.386  1.00  0.00     0.010 A 
BRANCH  28  32
HETATM   32  O   UNL     1     -23.907  -4.088 -10.836  1.00  0.00    -0.353 OA
HETATM   33  C   UNL     1     -24.829  -3.463  -9.946  1.00  0.00     0.210 C 
ENDBRANCH  28  32
BRANCH  29  34
HETATM   34  O   UNL     1     -21.801  -3.948 -12.534  1.00  0.00    -0.358 OA
HETATM   35  H   UNL     1     -22.238  -3.088 -12.626  1.00  0.00     0.217 HD
ENDBRANCH  29  34
ENDBRANCH  25  26
ENDBRANCH  23  25
ENDBRANCH  22  23
ENDBRANCH  21  22
ENDBRANCH   1  21
BRANCH  19  36
HETATM   36  O   UNL     1     -22.485 -12.178  -3.132  1.00  0.00    -0.381 OA
HETATM   37  H   UNL     1     -21.717 -12.804  -3.166  1.00  0.00     0.211 HD
ENDBRANCH  19  36
BRANCH  12  38
HETATM   38  O   UNL     1     -19.956 -13.159  -3.285  1.00  0.00    -0.387 OA
HETATM   39  H   UNL     1     -20.622 -12.803  -3.900  1.00  0.00     0.210 HD
ENDBRANCH  12  38
BRANCH   8  40
HETATM   40  O   UNL     1     -15.045 -12.460  -2.656  1.00  0.00    -0.306 OA
BRANCH  40  41
HETATM   41  C   UNL     1     -14.444 -13.679  -2.403  1.00  0.00     0.255 C 
HETATM   42  C   UNL     1     -14.455 -14.085  -0.945  1.00  0.00     0.126 C 
HETATM   43  O   UNL     1     -14.020 -14.449  -3.257  1.00  0.00    -0.266 OA
ENDBRANCH  40  41
ENDBRANCH   8  40
BRANCH   9  44
HETATM   44  O   UNL     1     -18.050 -13.599  -4.477  1.00  0.00    -0.312 OA
BRANCH  44  45
HETATM   45  C   UNL     1     -18.131 -14.784  -5.095  1.00  0.00     0.263 C 
HETATM   46  O   UNL     1     -17.853 -15.863  -4.585  1.00  0.00    -0.265 OA
BRANCH  45  47
HETATM   47  C   UNL     1     -18.527 -14.619  -6.561  1.00  0.00     0.149 C 
BRANCH  47  48
HETATM   48  C   UNL     1     -19.907 -14.053  -6.690  1.00  0.00    -0.049 A 
HETATM   49  C   UNL     1     -20.081 -12.773  -7.224  1.00  0.00     0.007 A 
HETATM   50  C   UNL     1     -21.338 -12.186  -7.176  1.00  0.00     0.001 A 
HETATM   51  C   UNL     1     -22.411 -12.841  -6.576  1.00  0.00     0.000 A 
HETATM   52  C   UNL     1     -22.241 -14.131  -6.076  1.00  0.00     0.001 A 
HETATM   53  C   UNL     1     -20.998 -14.740  -6.143  1.00  0.00     0.007 A 
ENDBRANCH  47  48
ENDBRANCH  45  47
ENDBRANCH  44  45
ENDBRANCH   9  44
TORSDOF 15
ENDMDL
MODEL 8
REMARK VINA RESULT:      -8.3      3.817      6.213
REMARK  15 active torsions:
REMARK  status: ('A' for Active; 'I' for Inactive)
REMARK    1  A    between atoms: O_2  and  C_3 
REMARK    2  A    between atoms: C_5  and  C_6 
REMARK    3  A    between atoms: C_6  and  C_7 
REMARK    4  A    between atoms: C_7  and  O_9 
REMARK    5  A    between atoms: O_9  and  C_10 
REMARK    6  A    between atoms: C_10  and  C_11 
REMARK    7  A    between atoms: C_18  and  O_19 
REMARK    8  A    between atoms: O_19  and  C_20 
REMARK    9  A    between atoms: C_23  and  O_24 
REMARK   10  A    between atoms: O_24  and  C_25 
REMARK   11  A    between atoms: C_25  and  C_27 
REMARK   12  A    between atoms: C_27  and  C_28 
REMARK   13  A    between atoms: C_36  and  O_37 
REMARK   14  A    between atoms: C_44  and  O_45 
REMARK   15  A    between atoms: C_49  and  O_50 
ROOT
HETATM    1  C   UNL     1     -15.809 -12.752  -2.492  1.00  0.00    -0.050 C 
HETATM    2  C   UNL     1     -17.223 -12.993  -2.905  1.00  0.00    -0.013 C 
HETATM    3  C   UNL     1     -18.809 -13.243  -1.880  1.00  0.00     0.052 C 
HETATM    4  C   UNL     1     -20.323 -13.669  -2.573  1.00  0.00     0.046 A 
HETATM    5  C   UNL     1     -21.413 -12.757  -3.136  1.00  0.00    -0.005 A 
HETATM    6  C   UNL     1     -20.843 -11.456  -3.622  1.00  0.00     0.018 C 
HETATM    7  C   UNL     1     -22.554 -13.202  -4.041  1.00  0.00     0.018 C 
HETATM    8  C   UNL     1     -21.592 -13.356  -1.711  1.00  0.00     0.110 A 
HETATM    9  C   UNL     1     -21.282 -12.731  -0.392  1.00  0.00     0.174 C 
HETATM   10  C   UNL     1     -20.279 -13.740   0.377  1.00  0.00     0.050 C 
HETATM   11  C   UNL     1     -20.338 -15.264   0.118  1.00  0.00     0.016 C 
HETATM   12  C   UNL     1     -18.914 -13.199   0.046  1.00  0.00     0.086 C 
HETATM   13  C   UNL     1     -17.435 -13.793   0.952  1.00  0.00     0.131 A 
HETATM   14  C   UNL     1     -16.945 -15.076   0.428  1.00  0.00    -0.000 C 
HETATM   15  C   UNL     1     -16.771 -14.739  -0.835  1.00  0.00    -0.029 C 
HETATM   16  C   UNL     1     -16.920 -15.752  -1.949  1.00  0.00     0.051 C 
HETATM   17  C   UNL     1     -16.806 -13.050  -0.518  1.00  0.00     0.099 A 
HETATM   18  O   UNL     1     -17.316 -11.969  -0.908  1.00  0.00    -0.304 OA
HETATM   19  C   UNL     1     -16.089 -12.846   0.661  1.00  0.00     0.134 A 
HETATM   20  C   UNL     1     -15.175 -12.468  -0.771  1.00  0.00     0.141 A 
ENDROOT
BRANCH   1  21
HETATM   21  C   UNL     1     -14.452 -12.735  -3.207  1.00  0.00     0.213 C 
BRANCH  21  22
HETATM   22  O   UNL     1     -14.206 -13.627  -4.283  1.00  0.00    -0.317 OA
BRANCH  22  23
HETATM   23  C   UNL     1     -13.939 -12.965  -5.450  1.00  0.00     0.263 C 
HETATM   24  O   UNL     1     -12.950 -12.258  -5.633  1.00  0.00    -0.265 OA
BRANCH  23  25
HETATM   25  C   UNL     1     -15.080 -12.978  -6.436  1.00  0.00     0.149 C 
BRANCH  25  26
HETATM   26  C   UNL     1     -16.104 -11.887  -6.308  1.00  0.00    -0.046 A 
HETATM   27  C   UNL     1     -17.428 -12.117  -6.707  1.00  0.00     0.047 A 
HETATM   28  C   UNL     1     -18.420 -11.163  -6.469  1.00  0.00     0.101 A 
HETATM   29  C   UNL     1     -18.062  -9.938  -5.899  1.00  0.00     0.099 A 
HETATM   30  C   UNL     1     -16.739  -9.683  -5.535  1.00  0.00     0.040 A 
HETATM   31  C   UNL     1     -15.762 -10.659  -5.733  1.00  0.00     0.010 A 
BRANCH  28  32
HETATM   32  O   UNL     1     -19.741 -11.362  -6.774  1.00  0.00    -0.353 OA
HETATM   33  C   UNL     1     -20.073 -12.702  -7.128  1.00  0.00     0.210 C 
ENDBRANCH  28  32
BRANCH  29  34
HETATM   34  O   UNL     1     -19.026  -8.996  -5.664  1.00  0.00    -0.358 OA
HETATM   35  H   UNL     1     -19.856  -9.442  -5.435  1.00  0.00     0.217 HD
ENDBRANCH  29  34
ENDBRANCH  25  26
ENDBRANCH  23  25
ENDBRANCH  22  23
ENDBRANCH  21  22
ENDBRANCH   1  21
BRANCH  19  36
HETATM   36  O   UNL     1     -16.325 -11.610   1.349  1.00  0.00    -0.381 OA
HETATM   37  H   UNL     1     -16.549 -10.967   0.629  1.00  0.00     0.211 HD
ENDBRANCH  19  36
BRANCH  12  38
HETATM   38  O   UNL     1     -18.952 -11.870   0.707  1.00  0.00    -0.387 OA
HETATM   39  H   UNL     1     -18.067 -11.690   1.072  1.00  0.00     0.210 HD
ENDBRANCH  12  38
BRANCH   8  40
HETATM   40  O   UNL     1     -22.573 -14.486  -1.538  1.00  0.00    -0.306 OA
BRANCH  40  41
HETATM   41  C   UNL     1     -23.768 -14.240  -0.887  1.00  0.00     0.255 C 
HETATM   42  C   UNL     1     -24.017 -15.133   0.309  1.00  0.00     0.126 C 
HETATM   43  O   UNL     1     -24.540 -13.326  -1.149  1.00  0.00    -0.266 OA
ENDBRANCH  40  41
ENDBRANCH   8  40
BRANCH   9  44
HETATM   44  O   UNL     1     -20.732 -11.408  -0.659  1.00  0.00    -0.312 OA
BRANCH  44  45
HETATM   45  C   UNL     1     -21.199 -10.285  -0.099  1.00  0.00     0.263 C 
HETATM   46  O   UNL     1     -20.823  -9.825   0.972  1.00  0.00    -0.265 OA
BRANCH  45  47
HETATM   47  C   UNL     1     -22.340  -9.689  -0.922  1.00  0.00     0.149 C 
BRANCH  47  48
HETATM   48  C   UNL     1     -21.950  -8.373  -1.518  1.00  0.00    -0.049 A 
HETATM   49  C   UNL     1     -22.325  -7.188  -0.878  1.00  0.00     0.007 A 
HETATM   50  C   UNL     1     -22.118  -5.976  -1.524  1.00  0.00     0.001 A 
HETATM   51  C   UNL     1     -21.575  -5.933  -2.807  1.00  0.00     0.000 A 
HETATM   52  C   UNL     1     -21.171  -7.115  -3.425  1.00  0.00     0.001 A 
HETATM   53  C   UNL     1     -21.346  -8.329  -2.780  1.00  0.00     0.007 A 
ENDBRANCH  47  48
ENDBRANCH  45  47
ENDBRANCH  44  45
ENDBRANCH   9  44
TORSDOF 15
ENDMDL
MODEL 9
REMARK VINA RESULT:      -8.2      4.320      6.455
REMARK  15 active torsions:
REMARK  status: ('A' for Active; 'I' for Inactive)
REMARK    1  A    between atoms: O_2  and  C_3 
REMARK    2  A    between atoms: C_5  and  C_6 
REMARK    3  A    between atoms: C_6  and  C_7 
REMARK    4  A    between atoms: C_7  and  O_9 
REMARK    5  A    between atoms: O_9  and  C_10 
REMARK    6  A    between atoms: C_10  and  C_11 
REMARK    7  A    between atoms: C_18  and  O_19 
REMARK    8  A    between atoms: O_19  and  C_20 
REMARK    9  A    between atoms: C_23  and  O_24 
REMARK   10  A    between atoms: O_24  and  C_25 
REMARK   11  A    between atoms: C_25  and  C_27 
REMARK   12  A    between atoms: C_27  and  C_28 
REMARK   13  A    between atoms: C_36  and  O_37 
REMARK   14  A    between atoms: C_44  and  O_45 
REMARK   15  A    between atoms: C_49  and  O_50 
ROOT
HETATM    1  C   UNL     1     -17.875 -11.844  -5.998  1.00  0.00    -0.050 C 
HETATM    2  C   UNL     1     -17.655 -12.933  -5.002  1.00  0.00    -0.013 C 
HETATM    3  C   UNL     1     -17.539 -12.897  -3.101  1.00  0.00     0.052 C 
HETATM    4  C   UNL     1     -17.117 -14.269  -2.156  1.00  0.00     0.046 A 
HETATM    5  C   UNL     1     -18.022 -15.365  -1.593  1.00  0.00    -0.005 A 
HETATM    6  C   UNL     1     -19.262 -15.531  -2.423  1.00  0.00     0.018 C 
HETATM    7  C   UNL     1     -17.553 -16.717  -1.073  1.00  0.00     0.018 C 
HETATM    8  C   UNL     1     -17.539 -14.227  -0.648  1.00  0.00     0.110 A 
HETATM    9  C   UNL     1     -18.249 -12.974  -0.258  1.00  0.00     0.174 C 
HETATM   10  C   UNL     1     -17.265 -11.746  -0.631  1.00  0.00     0.050 C 
HETATM   11  C   UNL     1     -15.729 -11.929  -0.611  1.00  0.00     0.016 C 
HETATM   12  C   UNL     1     -17.731 -11.325  -1.999  1.00  0.00     0.086 C 
HETATM   13  C   UNL     1     -17.154  -9.747  -2.731  1.00  0.00     0.131 A 
HETATM   14  C   UNL     1     -15.818  -9.873  -3.332  1.00  0.00    -0.000 C 
HETATM   15  C   UNL     1     -16.053 -10.865  -4.170  1.00  0.00    -0.029 C 
HETATM   16  C   UNL     1     -14.966 -11.841  -4.560  1.00  0.00     0.051 C 
HETATM   17  C   UNL     1     -17.762 -10.689  -4.091  1.00  0.00     0.099 A 
HETATM   18  O   UNL     1     -18.828 -11.338  -3.941  1.00  0.00    -0.304 OA
HETATM   19  C   UNL     1     -18.027  -9.321  -4.090  1.00  0.00     0.134 A 
HETATM   20  C   UNL     1     -18.264 -10.063  -5.646  1.00  0.00     0.141 A 
ENDROOT
BRANCH   1  21
HETATM   21  C   UNL     1     -17.790 -11.728  -7.525  1.00  0.00     0.213 C 
BRANCH  21  22
HETATM   22  O   UNL     1     -18.950 -11.933  -8.317  1.00  0.00    -0.317 OA
BRANCH  22  23
HETATM   23  C   UNL     1     -19.502 -13.168  -8.112  1.00  0.00     0.263 C 
HETATM   24  O   UNL     1     -18.900 -14.228  -8.268  1.00  0.00    -0.265 OA
BRANCH  23  25
HETATM   25  C   UNL     1     -20.996 -13.144  -7.899  1.00  0.00     0.149 C 
BRANCH  25  26
HETATM   26  C   UNL     1     -21.498 -13.562  -6.547  1.00  0.00    -0.046 A 
HETATM   27  C   UNL     1     -21.731 -12.598  -5.556  1.00  0.00     0.047 A 
HETATM   28  C   UNL     1     -22.325 -12.952  -4.342  1.00  0.00     0.101 A 
HETATM   29  C   UNL     1     -22.613 -14.298  -4.095  1.00  0.00     0.099 A 
HETATM   30  C   UNL     1     -22.348 -15.270  -5.058  1.00  0.00     0.040 A 
HETATM   31  C   UNL     1     -21.798 -14.902  -6.286  1.00  0.00     0.010 A 
BRANCH  28  32
HETATM   32  O   UNL     1     -22.639 -12.042  -3.367  1.00  0.00    -0.353 OA
HETATM   33  C   UNL     1     -22.325 -10.691  -3.693  1.00  0.00     0.210 C 
ENDBRANCH  28  32
BRANCH  29  34
HETATM   34  O   UNL     1     -23.193 -14.654  -2.908  1.00  0.00    -0.358 OA
HETATM   35  H   UNL     1     -24.152 -14.528  -2.973  1.00  0.00     0.217 HD
ENDBRANCH  29  34
ENDBRANCH  25  26
ENDBRANCH  23  25
ENDBRANCH  22  23
ENDBRANCH  21  22
ENDBRANCH   1  21
BRANCH  19  36
HETATM   36  O   UNL     1     -19.319  -8.918  -3.614  1.00  0.00    -0.381 OA
HETATM   37  H   UNL     1     -19.835  -8.724  -4.438  1.00  0.00     0.211 HD
ENDBRANCH  19  36
BRANCH  12  38
HETATM   38  O   UNL     1     -19.106 -10.845  -1.711  1.00  0.00    -0.387 OA
HETATM   39  H   UNL     1     -19.379 -10.261  -2.441  1.00  0.00     0.210 HD
ENDBRANCH  12  38
BRANCH   8  40
HETATM   40  O   UNL     1     -16.460 -14.552   0.353  1.00  0.00    -0.306 OA
BRANCH  40  41
HETATM   41  C   UNL     1     -16.799 -14.656   1.690  1.00  0.00     0.255 C 
HETATM   42  C   UNL     1     -15.950 -13.808   2.612  1.00  0.00     0.126 C 
HETATM   43  O   UNL     1     -17.757 -15.281   2.129  1.00  0.00    -0.266 OA
ENDBRANCH  40  41
ENDBRANCH   8  40
BRANCH   9  44
HETATM   44  O   UNL     1     -19.527 -12.966  -0.957  1.00  0.00    -0.312 OA
BRANCH  44  45
HETATM   45  C   UNL     1     -20.707 -13.130  -0.345  1.00  0.00     0.263 C 
HETATM   46  O   UNL     1     -21.621 -13.834  -0.757  1.00  0.00    -0.265 OA
BRANCH  45  47
HETATM   47  C   UNL     1     -20.813 -12.247   0.899  1.00  0.00     0.149 C 
BRANCH  47  48
HETATM   48  C   UNL     1     -21.470 -10.940   0.583  1.00  0.00    -0.049 A 
HETATM   49  C   UNL     1     -20.860  -9.748   0.980  1.00  0.00     0.007 A 
HETATM   50  C   UNL     1     -21.556  -8.554   0.844  1.00  0.00     0.001 A 
HETATM   51  C   UNL     1     -22.859  -8.538   0.351  1.00  0.00     0.000 A 
HETATM   52  C   UNL     1     -23.450  -9.726  -0.076  1.00  0.00     0.001 A 
HETATM   53  C   UNL     1     -22.756 -10.921   0.028  1.00  0.00     0.007 A 
ENDBRANCH  47  48
ENDBRANCH  45  47
ENDBRANCH  44  45
ENDBRANCH   9  44
TORSDOF 15
ENDMDL
