REMARK  4 active torsions:
REMARK  status: ('A' for Active; 'I' for Inactive)
REMARK       I    between atoms: C_2  and  N_3 
REMARK       I    between atoms: C_2  and  N_15 
REMARK    1  A    between atoms: N_3  and  C_4 
REMARK    2  A    between atoms: C_4  and  C_5 
REMARK    3  A    between atoms: C_8  and  C_9 
REMARK    4  A    between atoms: N_15  and  C_16 
ROOT
HETATM    1  O   UNL     1       1.347  -0.362   0.179  1.00  0.00    -0.247 OA
HETATM    2  C   UNL     1       2.557  -0.394  -0.001  1.00  0.00     0.321 C 
HETATM    3  N   UNL     1       3.153   0.378  -0.977  1.00  0.00    -0.339 N 
HETATM    4  N   UNL     1       3.476  -1.189   0.674  1.00  0.00    -0.308 N 
HETATM    5  H   UNL     1       4.155   0.435  -1.029  1.00  0.00     0.164 HD
HETATM    6  H   UNL     1       4.361  -1.308   0.206  1.00  0.00     0.170 HD
ENDROOT
BRANCH   3   7
HETATM    7  C   UNL     1       2.377   1.240  -1.854  1.00  0.00     0.162 C 
BRANCH   7   8
HETATM    8  C   UNL     1       2.737   2.697  -1.683  1.00  0.00    -0.040 A 
HETATM    9  C   UNL     1       3.267   3.442  -2.746  1.00  0.00     0.009 A 
HETATM   10  C   UNL     1       3.573   4.798  -2.585  1.00  0.00     0.017 A 
HETATM   11  C   UNL     1       3.353   5.440  -1.358  1.00  0.00     0.047 A 
HETATM   12  C   UNL     1       2.809   4.697  -0.299  1.00  0.00     0.017 A 
HETATM   13  C   UNL     1       2.501   3.343  -0.462  1.00  0.00     0.009 A 
BRANCH  11  14
HETATM   14  C   UNL     1       3.684   6.899  -1.163  1.00  0.00     0.417 C 
HETATM   15  F   UNL     1       4.225   7.490  -2.266  1.00  0.00    -0.166 F 
HETATM   16  F   UNL     1       2.592   7.646  -0.840  1.00  0.00    -0.166 F 
HETATM   17  F   UNL     1       4.583   7.099  -0.158  1.00  0.00    -0.166 F 
ENDBRANCH  11  14
ENDBRANCH   7   8
ENDBRANCH   3   7
BRANCH   4  18
HETATM   18  C   UNL     1       3.147  -2.167   1.664  1.00  0.00     0.047 C 
HETATM   19  C   UNL     1       1.913  -2.126   2.325  1.00  0.00     0.030 C 
HETATM   20  C   UNL     1       1.497  -3.159   3.152  1.00  0.00     0.003 C 
HETATM   21  C   UNL     1       2.276  -4.301   3.270  1.00  0.00     0.014 C 
HETATM   22  C   UNL     1       3.531  -4.360   2.652  1.00  0.00    -0.008 C 
HETATM   23  C   UNL     1       4.309  -5.515   2.740  1.00  0.00     0.100 C 
HETATM   24  C   UNL     1       4.051  -3.241   1.945  1.00  0.00     0.004 C 
HETATM   25  N   UNL     1       5.608  -5.588   2.379  1.00  0.00    -0.374 N 
HETATM   26  C   UNL     1       6.146  -4.462   1.887  1.00  0.00     0.088 C 
ATOM     27  HN  UNL     1       6.148  -6.448   2.475  1.00  0.00     0.164 HD
HETATM   28  C   UNL     1       5.415  -3.311   1.603  1.00  0.00     0.031 C 
ENDBRANCH   4  18
TORSDOF 4
