MODEL 1
REMARK VINA RESULT:     -10.4      0.000      0.000
REMARK  4 active torsions:
REMARK  status: ('A' for Active; 'I' for Inactive)
REMARK       I    between atoms: C_2  and  N_3 
REMARK       I    between atoms: C_2  and  N_15 
REMARK    1  A    between atoms: N_3  and  C_4 
REMARK    2  A    between atoms: C_4  and  C_5 
REMARK    3  A    between atoms: C_8  and  C_9 
REMARK    4  A    between atoms: N_15  and  C_16 
ROOT
HETATM    1  O   UNL     1     -19.714  -6.632  -7.349  1.00  0.00    -0.247 OA
HETATM    2  C   UNL     1     -20.518  -5.937  -6.742  1.00  0.00     0.321 C 
HETATM    3  N   UNL     1     -20.784  -6.157  -5.407  1.00  0.00    -0.339 N 
HETATM    4  N   UNL     1     -21.280  -4.900  -7.267  1.00  0.00    -0.308 N 
HETATM    5  H   UNL     1     -21.349  -5.503  -4.894  1.00  0.00     0.164 HD
HETATM    6  H   UNL     1     -22.086  -4.644  -6.717  1.00  0.00     0.170 HD
ENDROOT
BRANCH   3   7
HETATM    7  C   UNL     1     -20.151  -7.235  -4.665  1.00  0.00     0.162 C 
BRANCH   7   8
HETATM    8  C   UNL     1     -20.821  -7.479  -3.333  1.00  0.00    -0.040 A 
HETATM    9  C   UNL     1     -21.631  -6.501  -2.740  1.00  0.00     0.009 A 
HETATM   10  C   UNL     1     -22.269  -6.747  -1.518  1.00  0.00     0.017 A 
HETATM   11  C   UNL     1     -22.113  -7.978  -0.865  1.00  0.00     0.047 A 
HETATM   12  C   UNL     1     -21.313  -8.961  -1.467  1.00  0.00     0.017 A 
HETATM   13  C   UNL     1     -20.679  -8.716  -2.689  1.00  0.00     0.009 A 
BRANCH  11  14
HETATM   14  C   UNL     1     -22.786  -8.258   0.456  1.00  0.00     0.417 C 
HETATM   15  F   UNL     1     -23.811  -7.406   0.740  1.00  0.00    -0.166 F 
HETATM   16  F   UNL     1     -23.316  -9.511   0.519  1.00  0.00    -0.166 F 
HETATM   17  F   UNL     1     -21.925  -8.164   1.509  1.00  0.00    -0.166 F 
ENDBRANCH  11  14
ENDBRANCH   7   8
ENDBRANCH   3   7
BRANCH   4  18
HETATM   18  C   UNL     1     -21.301  -4.508  -8.642  1.00  0.00     0.047 C 
HETATM   19  C   UNL     1     -20.131  -4.538  -9.410  1.00  0.00     0.030 C 
HETATM   20  C   UNL     1     -20.157  -4.339 -10.782  1.00  0.00     0.003 C 
HETATM   21  C   UNL     1     -21.374  -4.187 -11.431  1.00  0.00     0.014 C 
HETATM   22  C   UNL     1     -22.560  -4.116 -10.690  1.00  0.00    -0.008 C 
HETATM   23  C   UNL     1     -23.791  -3.993 -11.335  1.00  0.00     0.100 C 
HETATM   24  C   UNL     1     -22.535  -4.141  -9.268  1.00  0.00     0.004 C 
HETATM   25  N   UNL     1     -24.950  -3.691 -10.712  1.00  0.00    -0.374 N 
HETATM   26  C   UNL     1     -24.879  -3.527  -9.383  1.00  0.00     0.088 C 
ATOM     27  HN  UNL     1     -25.828  -3.593 -11.223  1.00  0.00     0.164 HD
HETATM   28  C   UNL     1     -23.739  -3.792  -8.627  1.00  0.00     0.031 C 
ENDBRANCH   4  18
TORSDOF 4
ENDMDL
MODEL 2
REMARK VINA RESULT:     -10.2      1.126      2.514
REMARK  4 active torsions:
REMARK  status: ('A' for Active; 'I' for Inactive)
REMARK       I    between atoms: C_2  and  N_3 
REMARK       I    between atoms: C_2  and  N_15 
REMARK    1  A    between atoms: N_3  and  C_4 
REMARK    2  A    between atoms: C_4  and  C_5 
REMARK    3  A    between atoms: C_8  and  C_9 
REMARK    4  A    between atoms: N_15  and  C_16 
ROOT
HETATM    1  O   UNL     1     -21.134  -6.725  -7.238  1.00  0.00    -0.247 OA
HETATM    2  C   UNL     1     -21.262  -5.732  -6.535  1.00  0.00     0.321 C 
HETATM    3  N   UNL     1     -20.818  -5.721  -5.228  1.00  0.00    -0.339 N 
HETATM    4  N   UNL     1     -21.870  -4.534  -6.893  1.00  0.00    -0.308 N 
HETATM    5  H   UNL     1     -20.816  -4.863  -4.706  1.00  0.00     0.164 HD
HETATM    6  H   UNL     1     -22.149  -3.951  -6.119  1.00  0.00     0.170 HD
ENDROOT
BRANCH   3   7
HETATM    7  C   UNL     1     -20.208  -6.891  -4.616  1.00  0.00     0.162 C 
BRANCH   7   8
HETATM    8  C   UNL     1     -20.878  -7.265  -3.315  1.00  0.00    -0.040 A 
HETATM    9  C   UNL     1     -20.649  -8.512  -2.714  1.00  0.00     0.009 A 
HETATM   10  C   UNL     1     -21.254  -8.840  -1.496  1.00  0.00     0.017 A 
HETATM   11  C   UNL     1     -22.099  -7.927  -0.849  1.00  0.00     0.047 A 
HETATM   12  C   UNL     1     -22.317  -6.675  -1.444  1.00  0.00     0.017 A 
HETATM   13  C   UNL     1     -21.709  -6.347  -2.660  1.00  0.00     0.009 A 
BRANCH  11  14
HETATM   14  C   UNL     1     -22.767  -8.266   0.461  1.00  0.00     0.417 C 
HETATM   15  F   UNL     1     -23.266  -9.533   0.510  1.00  0.00    -0.166 F 
HETATM   16  F   UNL     1     -21.922  -8.159   1.523  1.00  0.00    -0.166 F 
HETATM   17  F   UNL     1     -23.818  -7.443   0.737  1.00  0.00    -0.166 F 
ENDBRANCH  11  14
ENDBRANCH   7   8
ENDBRANCH   3   7
BRANCH   4  18
HETATM   18  C   UNL     1     -22.517  -4.282  -8.142  1.00  0.00     0.047 C 
HETATM   19  C   UNL     1     -23.906  -4.111  -8.205  1.00  0.00     0.030 C 
HETATM   20  C   UNL     1     -24.534  -3.687  -9.367  1.00  0.00     0.003 C 
HETATM   21  C   UNL     1     -23.772  -3.344 -10.474  1.00  0.00     0.014 C 
HETATM   22  C   UNL     1     -22.386  -3.537 -10.458  1.00  0.00    -0.008 C 
HETATM   23  C   UNL     1     -21.607  -3.167 -11.555  1.00  0.00     0.100 C 
HETATM   24  C   UNL     1     -21.744  -4.135  -9.338  1.00  0.00     0.004 C 
HETATM   25  N   UNL     1     -20.314  -3.517 -11.725  1.00  0.00    -0.374 N 
HETATM   26  C   UNL     1     -19.770  -4.250 -10.743  1.00  0.00     0.088 C 
ATOM     27  HN  UNL     1     -19.783  -3.240 -12.551  1.00  0.00     0.164 HD
HETATM   28  C   UNL     1     -20.407  -4.528  -9.535  1.00  0.00     0.031 C 
ENDBRANCH   4  18
TORSDOF 4
ENDMDL
MODEL 3
REMARK VINA RESULT:      -9.4      5.082      9.514
REMARK  4 active torsions:
REMARK  status: ('A' for Active; 'I' for Inactive)
REMARK       I    between atoms: C_2  and  N_3 
REMARK       I    between atoms: C_2  and  N_15 
REMARK    1  A    between atoms: N_3  and  C_4 
REMARK    2  A    between atoms: C_4  and  C_5 
REMARK    3  A    between atoms: C_8  and  C_9 
REMARK    4  A    between atoms: N_15  and  C_16 
ROOT
HETATM    1  O   UNL     1     -21.082  -5.549  -2.636  1.00  0.00    -0.247 OA
HETATM    2  C   UNL     1     -21.108  -6.433  -3.482  1.00  0.00     0.321 C 
HETATM    3  N   UNL     1     -20.808  -6.167  -4.802  1.00  0.00    -0.339 N 
HETATM    4  N   UNL     1     -21.459  -7.763  -3.281  1.00  0.00    -0.308 N 
HETATM    5  H   UNL     1     -20.712  -6.923  -5.457  1.00  0.00     0.164 HD
HETATM    6  H   UNL     1     -21.712  -8.268  -4.116  1.00  0.00     0.170 HD
ENDROOT
BRANCH   3   7
HETATM    7  C   UNL     1     -20.477  -4.826  -5.258  1.00  0.00     0.162 C 
BRANCH   7   8
HETATM    8  C   UNL     1     -20.760  -4.641  -6.730  1.00  0.00    -0.040 A 
HETATM    9  C   UNL     1     -22.068  -4.457  -7.199  1.00  0.00     0.009 A 
HETATM   10  C   UNL     1     -22.317  -4.260  -8.562  1.00  0.00     0.017 A 
HETATM   11  C   UNL     1     -21.262  -4.240  -9.486  1.00  0.00     0.047 A 
HETATM   12  C   UNL     1     -19.952  -4.410  -9.014  1.00  0.00     0.017 A 
HETATM   13  C   UNL     1     -19.704  -4.604  -7.651  1.00  0.00     0.009 A 
BRANCH  11  14
HETATM   14  C   UNL     1     -21.512  -4.037 -10.960  1.00  0.00     0.417 C 
HETATM   15  F   UNL     1     -20.438  -4.339 -11.744  1.00  0.00    -0.166 F 
HETATM   16  F   UNL     1     -22.539  -4.799 -11.428  1.00  0.00    -0.166 F 
HETATM   17  F   UNL     1     -21.837  -2.747 -11.260  1.00  0.00    -0.166 F 
ENDBRANCH  11  14
ENDBRANCH   7   8
ENDBRANCH   3   7
BRANCH   4  18
HETATM   18  C   UNL     1     -21.919  -8.315  -2.044  1.00  0.00     0.047 C 
HETATM   19  C   UNL     1     -22.115  -7.495  -0.926  1.00  0.00     0.030 C 
HETATM   20  C   UNL     1     -22.729  -7.969   0.224  1.00  0.00     0.003 C 
HETATM   21  C   UNL     1     -23.238  -9.259   0.249  1.00  0.00     0.014 C 
HETATM   22  C   UNL     1     -23.028 -10.117  -0.838  1.00  0.00    -0.008 C 
HETATM   23  C   UNL     1     -23.562 -11.406  -0.835  1.00  0.00     0.100 C 
HETATM   24  C   UNL     1     -22.248  -9.705  -1.953  1.00  0.00     0.004 C 
HETATM   25  N   UNL     1     -23.227 -12.371  -1.718  1.00  0.00    -0.374 N 
HETATM   26  C   UNL     1     -22.337 -12.024  -2.660  1.00  0.00     0.088 C 
ATOM     27  HN  UNL     1     -23.628 -13.308  -1.672  1.00  0.00     0.164 HD
HETATM   28  C   UNL     1     -21.875 -10.724  -2.851  1.00  0.00     0.031 C 
ENDBRANCH   4  18
TORSDOF 4
ENDMDL
MODEL 4
REMARK VINA RESULT:      -9.4      4.922      9.393
REMARK  4 active torsions:
REMARK  status: ('A' for Active; 'I' for Inactive)
REMARK       I    between atoms: C_2  and  N_3 
REMARK       I    between atoms: C_2  and  N_15 
REMARK    1  A    between atoms: N_3  and  C_4 
REMARK    2  A    between atoms: C_4  and  C_5 
REMARK    3  A    between atoms: C_8  and  C_9 
REMARK    4  A    between atoms: N_15  and  C_16 
ROOT
HETATM    1  O   UNL     1     -19.836  -7.520  -4.910  1.00  0.00    -0.247 OA
HETATM    2  C   UNL     1     -20.795  -6.909  -4.458  1.00  0.00     0.321 C 
HETATM    3  N   UNL     1     -20.987  -5.572  -4.741  1.00  0.00    -0.339 N 
HETATM    4  N   UNL     1     -21.772  -7.411  -3.605  1.00  0.00    -0.308 N 
HETATM    5  H   UNL     1     -21.841  -5.119  -4.467  1.00  0.00     0.164 HD
HETATM    6  H   UNL     1     -22.299  -6.713  -3.104  1.00  0.00     0.170 HD
ENDROOT
BRANCH   3   7
HETATM    7  C   UNL     1     -20.052  -4.820  -5.561  1.00  0.00     0.162 C 
BRANCH   7   8
HETATM    8  C   UNL     1     -20.584  -4.577  -6.954  1.00  0.00    -0.040 A 
HETATM    9  C   UNL     1     -21.934  -4.265  -7.169  1.00  0.00     0.009 A 
HETATM   10  C   UNL     1     -22.413  -4.016  -8.461  1.00  0.00     0.017 A 
HETATM   11  C   UNL     1     -21.551  -4.071  -9.565  1.00  0.00     0.047 A 
HETATM   12  C   UNL     1     -20.197  -4.369  -9.347  1.00  0.00     0.017 A 
HETATM   13  C   UNL     1     -19.720  -4.615  -8.056  1.00  0.00     0.009 A 
BRANCH  11  14
HETATM   14  C   UNL     1     -22.049  -3.814 -10.966  1.00  0.00     0.417 C 
HETATM   15  F   UNL     1     -23.408  -3.839 -11.077  1.00  0.00    -0.166 F 
HETATM   16  F   UNL     1     -21.660  -2.600 -11.446  1.00  0.00    -0.166 F 
HETATM   17  F   UNL     1     -21.589  -4.734 -11.860  1.00  0.00    -0.166 F 
ENDBRANCH  11  14
ENDBRANCH   7   8
ENDBRANCH   3   7
BRANCH   4  18
HETATM   18  C   UNL     1     -21.782  -8.730  -3.052  1.00  0.00     0.047 C 
HETATM   19  C   UNL     1     -21.881  -9.851  -3.885  1.00  0.00     0.030 C 
HETATM   20  C   UNL     1     -21.712 -11.138  -3.394  1.00  0.00     0.003 C 
HETATM   21  C   UNL     1     -21.356 -11.325  -2.067  1.00  0.00     0.014 C 
HETATM   22  C   UNL     1     -21.284 -10.229  -1.199  1.00  0.00    -0.008 C 
HETATM   23  C   UNL     1     -20.897 -10.404   0.131  1.00  0.00     0.100 C 
HETATM   24  C   UNL     1     -21.626  -8.922  -1.642  1.00  0.00     0.004 C 
HETATM   25  N   UNL     1     -21.017  -9.460   1.089  1.00  0.00    -0.374 N 
HETATM   26  C   UNL     1     -21.524  -8.282   0.695  1.00  0.00     0.088 C 
ATOM     27  HN  UNL     1     -20.738  -9.633   2.055  1.00  0.00     0.164 HD
HETATM   28  C   UNL     1     -21.782  -7.953  -0.633  1.00  0.00     0.031 C 
ENDBRANCH   4  18
TORSDOF 4
ENDMDL
MODEL 5
REMARK VINA RESULT:      -9.0      2.807      3.495
REMARK  4 active torsions:
REMARK  status: ('A' for Active; 'I' for Inactive)
REMARK       I    between atoms: C_2  and  N_3 
REMARK       I    between atoms: C_2  and  N_15 
REMARK    1  A    between atoms: N_3  and  C_4 
REMARK    2  A    between atoms: C_4  and  C_5 
REMARK    3  A    between atoms: C_8  and  C_9 
REMARK    4  A    between atoms: N_15  and  C_16 
ROOT
HETATM    1  O   UNL     1     -21.617  -7.078  -7.016  1.00  0.00    -0.247 OA
HETATM    2  C   UNL     1     -21.370  -6.037  -6.422  1.00  0.00     0.321 C 
HETATM    3  N   UNL     1     -21.400  -5.979  -5.044  1.00  0.00    -0.339 N 
HETATM    4  N   UNL     1     -21.076  -4.805  -6.994  1.00  0.00    -0.308 N 
HETATM    5  H   UNL     1     -21.075  -5.154  -4.570  1.00  0.00     0.164 HD
HETATM    6  H   UNL     1     -21.195  -4.012  -6.383  1.00  0.00     0.170 HD
ENDROOT
BRANCH   3   7
HETATM    7  C   UNL     1     -21.752  -7.134  -4.234  1.00  0.00     0.162 C 
BRANCH   7   8
HETATM    8  C   UNL     1     -20.536  -7.928  -3.818  1.00  0.00    -0.040 A 
HETATM    9  C   UNL     1     -20.283  -8.211  -2.468  1.00  0.00     0.009 A 
HETATM   10  C   UNL     1     -19.168  -8.970  -2.095  1.00  0.00     0.017 A 
HETATM   11  C   UNL     1     -18.282  -9.464  -3.063  1.00  0.00     0.047 A 
HETATM   12  C   UNL     1     -18.544  -9.192  -4.415  1.00  0.00     0.017 A 
HETATM   13  C   UNL     1     -19.660  -8.436  -4.787  1.00  0.00     0.009 A 
BRANCH  11  14
HETATM   14  C   UNL     1     -17.070 -10.276  -2.679  1.00  0.00     0.417 C 
HETATM   15  F   UNL     1     -16.750 -11.244  -3.585  1.00  0.00    -0.166 F 
HETATM   16  F   UNL     1     -15.950  -9.514  -2.540  1.00  0.00    -0.166 F 
HETATM   17  F   UNL     1     -17.232 -10.922  -1.490  1.00  0.00    -0.166 F 
ENDBRANCH  11  14
ENDBRANCH   7   8
ENDBRANCH   3   7
BRANCH   4  18
HETATM   18  C   UNL     1     -21.075  -4.528  -8.397  1.00  0.00     0.047 C 
HETATM   19  C   UNL     1     -19.893  -4.619  -9.142  1.00  0.00     0.030 C 
HETATM   20  C   UNL     1     -19.898  -4.534 -10.527  1.00  0.00     0.003 C 
HETATM   21  C   UNL     1     -21.105  -4.439 -11.205  1.00  0.00     0.014 C 
HETATM   22  C   UNL     1     -22.302  -4.310 -10.490  1.00  0.00    -0.008 C 
HETATM   23  C   UNL     1     -23.523  -4.243 -11.162  1.00  0.00     0.100 C 
HETATM   24  C   UNL     1     -22.300  -4.217  -9.071  1.00  0.00     0.004 C 
HETATM   25  N   UNL     1     -24.693  -3.893 -10.584  1.00  0.00    -0.374 N 
HETATM   26  C   UNL     1     -24.642  -3.620  -9.272  1.00  0.00     0.088 C 
ATOM     27  HN  UNL     1     -25.562  -3.840 -11.115  1.00  0.00     0.164 HD
HETATM   28  C   UNL     1     -23.514  -3.819  -8.480  1.00  0.00     0.031 C 
ENDBRANCH   4  18
TORSDOF 4
ENDMDL
MODEL 6
REMARK VINA RESULT:      -8.7     14.773     16.491
REMARK  4 active torsions:
REMARK  status: ('A' for Active; 'I' for Inactive)
REMARK       I    between atoms: C_2  and  N_3 
REMARK       I    between atoms: C_2  and  N_15 
REMARK    1  A    between atoms: N_3  and  C_4 
REMARK    2  A    between atoms: C_4  and  C_5 
REMARK    3  A    between atoms: C_8  and  C_9 
REMARK    4  A    between atoms: N_15  and  C_16 
ROOT
HETATM    1  O   UNL     1     -34.760  -4.152 -15.473  1.00  0.00    -0.247 OA
HETATM    2  C   UNL     1     -33.668  -4.162 -14.921  1.00  0.00     0.321 C 
HETATM    3  N   UNL     1     -32.512  -4.418 -15.631  1.00  0.00    -0.339 N 
HETATM    4  N   UNL     1     -33.420  -3.971 -13.566  1.00  0.00    -0.308 N 
HETATM    5  H   UNL     1     -31.617  -4.300 -15.191  1.00  0.00     0.164 HD
HETATM    6  H   UNL     1     -32.524  -4.304 -13.246  1.00  0.00     0.170 HD
ENDROOT
BRANCH   3   7
HETATM    7  C   UNL     1     -32.536  -4.714 -17.054  1.00  0.00     0.162 C 
BRANCH   7   8
HETATM    8  C   UNL     1     -31.187  -5.160 -17.565  1.00  0.00    -0.040 A 
HETATM    9  C   UNL     1     -30.862  -6.520 -17.662  1.00  0.00     0.009 A 
HETATM   10  C   UNL     1     -29.618  -6.924 -18.161  1.00  0.00     0.017 A 
HETATM   11  C   UNL     1     -28.673  -5.976 -18.577  1.00  0.00     0.047 A 
HETATM   12  C   UNL     1     -29.004  -4.615 -18.493  1.00  0.00     0.017 A 
HETATM   13  C   UNL     1     -30.248  -4.213 -17.997  1.00  0.00     0.009 A 
BRANCH  11  14
HETATM   14  C   UNL     1     -27.324  -6.392 -19.110  1.00  0.00     0.417 C 
HETATM   15  F   UNL     1     -26.321  -6.306 -18.190  1.00  0.00    -0.166 F 
HETATM   16  F   UNL     1     -27.310  -7.679 -19.554  1.00  0.00    -0.166 F 
HETATM   17  F   UNL     1     -26.924  -5.628 -20.166  1.00  0.00    -0.166 F 
ENDBRANCH  11  14
ENDBRANCH   7   8
ENDBRANCH   3   7
BRANCH   4  18
HETATM   18  C   UNL     1     -34.424  -3.792 -12.564  1.00  0.00     0.047 C 
HETATM   19  C   UNL     1     -34.852  -4.871 -11.781  1.00  0.00     0.030 C 
HETATM   20  C   UNL     1     -35.686  -4.690 -10.688  1.00  0.00     0.003 C 
HETATM   21  C   UNL     1     -36.044  -3.407 -10.302  1.00  0.00     0.014 C 
HETATM   22  C   UNL     1     -35.664  -2.308 -11.082  1.00  0.00    -0.008 C 
HETATM   23  C   UNL     1     -35.994  -1.012 -10.687  1.00  0.00     0.100 C 
HETATM   24  C   UNL     1     -34.958  -2.489 -12.304  1.00  0.00     0.004 C 
HETATM   25  N   UNL     1     -35.875   0.079 -11.475  1.00  0.00    -0.374 N 
HETATM   26  C   UNL     1     -35.382  -0.135 -12.704  1.00  0.00     0.088 C 
ATOM     27  HN  UNL     1     -36.144   1.009 -11.154  1.00  0.00     0.164 HD
HETATM   28  C   UNL     1     -34.868  -1.356 -13.134  1.00  0.00     0.031 C 
ENDBRANCH   4  18
TORSDOF 4
ENDMDL
MODEL 7
REMARK VINA RESULT:      -8.5     17.345     19.049
REMARK  4 active torsions:
REMARK  status: ('A' for Active; 'I' for Inactive)
REMARK       I    between atoms: C_2  and  N_3 
REMARK       I    between atoms: C_2  and  N_15 
REMARK    1  A    between atoms: N_3  and  C_4 
REMARK    2  A    between atoms: C_4  and  C_5 
REMARK    3  A    between atoms: C_8  and  C_9 
REMARK    4  A    between atoms: N_15  and  C_16 
ROOT
HETATM    1  O   UNL     1     -19.574   8.456   4.393  1.00  0.00    -0.247 OA
HETATM    2  C   UNL     1     -19.391   9.554   3.886  1.00  0.00     0.321 C 
HETATM    3  N   UNL     1     -20.426  10.456   3.746  1.00  0.00    -0.339 N 
HETATM    4  N   UNL     1     -18.198  10.038   3.360  1.00  0.00    -0.308 N 
HETATM    5  H   UNL     1     -20.235  11.395   3.444  1.00  0.00     0.164 HD
HETATM    6  H   UNL     1     -18.296  10.817   2.728  1.00  0.00     0.170 HD
ENDROOT
BRANCH   3   7
HETATM    7  C   UNL     1     -21.782  10.139   4.165  1.00  0.00     0.162 C 
BRANCH   7   8
HETATM    8  C   UNL     1     -22.619   9.608   3.025  1.00  0.00    -0.040 A 
HETATM    9  C   UNL     1     -24.014   9.748   3.025  1.00  0.00     0.009 A 
HETATM   10  C   UNL     1     -24.779   9.276   1.953  1.00  0.00     0.017 A 
HETATM   11  C   UNL     1     -24.166   8.657   0.854  1.00  0.00     0.047 A 
HETATM   12  C   UNL     1     -22.768   8.531   0.849  1.00  0.00     0.017 A 
HETATM   13  C   UNL     1     -22.005   9.005   1.920  1.00  0.00     0.009 A 
BRANCH  11  14
HETATM   14  C   UNL     1     -24.974   8.136  -0.308  1.00  0.00     0.417 C 
HETATM   15  F   UNL     1     -24.994   8.975  -1.382  1.00  0.00    -0.166 F 
HETATM   16  F   UNL     1     -24.510   6.944  -0.777  1.00  0.00    -0.166 F 
HETATM   17  F   UNL     1     -26.280   7.924   0.020  1.00  0.00    -0.166 F 
ENDBRANCH  11  14
ENDBRANCH   7   8
ENDBRANCH   3   7
BRANCH   4  18
HETATM   18  C   UNL     1     -16.980   9.295   3.265  1.00  0.00     0.047 C 
HETATM   19  C   UNL     1     -16.532   8.814   2.028  1.00  0.00     0.030 C 
HETATM   20  C   UNL     1     -15.273   8.252   1.880  1.00  0.00     0.003 C 
HETATM   21  C   UNL     1     -14.397   8.234   2.955  1.00  0.00     0.014 C 
HETATM   22  C   UNL     1     -14.825   8.673   4.214  1.00  0.00    -0.008 C 
HETATM   23  C   UNL     1     -13.943   8.688   5.295  1.00  0.00     0.100 C 
HETATM   24  C   UNL     1     -16.168   9.089   4.426  1.00  0.00     0.004 C 
HETATM   25  N   UNL     1     -14.315   8.873   6.580  1.00  0.00    -0.374 N 
HETATM   26  C   UNL     1     -15.624   9.075   6.790  1.00  0.00     0.088 C 
ATOM     27  HN  UNL     1     -13.641   8.859   7.345  1.00  0.00     0.164 HD
HETATM   28  C   UNL     1     -16.557   9.246   5.770  1.00  0.00     0.031 C 
ENDBRANCH   4  18
TORSDOF 4
ENDMDL
MODEL 8
REMARK VINA RESULT:      -8.5      5.144      9.940
REMARK  4 active torsions:
REMARK  status: ('A' for Active; 'I' for Inactive)
REMARK       I    between atoms: C_2  and  N_3 
REMARK       I    between atoms: C_2  and  N_15 
REMARK    1  A    between atoms: N_3  and  C_4 
REMARK    2  A    between atoms: C_4  and  C_5 
REMARK    3  A    between atoms: C_8  and  C_9 
REMARK    4  A    between atoms: N_15  and  C_16 
ROOT
HETATM    1  O   UNL     1     -20.988  -6.775  -2.122  1.00  0.00    -0.247 OA
HETATM    2  C   UNL     1     -21.130  -7.508  -3.092  1.00  0.00     0.321 C 
HETATM    3  N   UNL     1     -21.133  -6.999  -4.375  1.00  0.00    -0.339 N 
HETATM    4  N   UNL     1     -21.340  -8.882  -3.071  1.00  0.00    -0.308 N 
HETATM    5  H   UNL     1     -21.126  -7.624  -5.162  1.00  0.00     0.164 HD
HETATM    6  H   UNL     1     -21.728  -9.266  -3.918  1.00  0.00     0.170 HD
ENDROOT
BRANCH   3   7
HETATM    7  C   UNL     1     -20.998  -5.576  -4.636  1.00  0.00     0.162 C 
BRANCH   7   8
HETATM    8  C   UNL     1     -20.936  -5.273  -6.115  1.00  0.00    -0.040 A 
HETATM    9  C   UNL     1     -22.102  -5.025  -6.853  1.00  0.00     0.009 A 
HETATM   10  C   UNL     1     -22.032  -4.720  -8.217  1.00  0.00     0.017 A 
HETATM   11  C   UNL     1     -20.794  -4.652  -8.873  1.00  0.00     0.047 A 
HETATM   12  C   UNL     1     -19.627  -4.886  -8.129  1.00  0.00     0.017 A 
HETATM   13  C   UNL     1     -19.698  -5.188  -6.766  1.00  0.00     0.009 A 
BRANCH  11  14
HETATM   14  C   UNL     1     -20.700  -4.332 -10.344  1.00  0.00     0.417 C 
HETATM   15  F   UNL     1     -19.609  -4.878 -10.954  1.00  0.00    -0.166 F 
HETATM   16  F   UNL     1     -21.778  -4.775 -11.047  1.00  0.00    -0.166 F 
HETATM   17  F   UNL     1     -20.624  -2.992 -10.581  1.00  0.00    -0.166 F 
ENDBRANCH  11  14
ENDBRANCH   7   8
ENDBRANCH   3   7
BRANCH   4  18
HETATM   18  C   UNL     1     -21.491  -9.673  -1.889  1.00  0.00     0.047 C 
HETATM   19  C   UNL     1     -22.687  -9.646  -1.161  1.00  0.00     0.030 C 
HETATM   20  C   UNL     1     -22.925 -10.534  -0.122  1.00  0.00     0.003 C 
HETATM   21  C   UNL     1     -21.999 -11.528   0.158  1.00  0.00     0.014 C 
HETATM   22  C   UNL     1     -20.777 -11.561  -0.525  1.00  0.00    -0.008 C 
HETATM   23  C   UNL     1     -19.852 -12.573  -0.272  1.00  0.00     0.100 C 
HETATM   24  C   UNL     1     -20.442 -10.553  -1.471  1.00  0.00     0.004 C 
HETATM   25  N   UNL     1     -18.573 -12.563  -0.705  1.00  0.00    -0.374 N 
HETATM   26  C   UNL     1     -18.210 -11.503  -1.443  1.00  0.00     0.088 C 
ATOM     27  HN  UNL     1     -17.921 -13.315  -0.483  1.00  0.00     0.164 HD
HETATM   28  C   UNL     1     -19.098 -10.528  -1.891  1.00  0.00     0.031 C 
ENDBRANCH   4  18
TORSDOF 4
ENDMDL
MODEL 9
REMARK VINA RESULT:      -8.5      5.333      9.040
REMARK  4 active torsions:
REMARK  status: ('A' for Active; 'I' for Inactive)
REMARK       I    between atoms: C_2  and  N_3 
REMARK       I    between atoms: C_2  and  N_15 
REMARK    1  A    between atoms: N_3  and  C_4 
REMARK    2  A    between atoms: C_4  and  C_5 
REMARK    3  A    between atoms: C_8  and  C_9 
REMARK    4  A    between atoms: N_15  and  C_16 
ROOT
HETATM    1  O   UNL     1     -19.772  -7.812  -4.675  1.00  0.00    -0.247 OA
HETATM    2  C   UNL     1     -20.971  -7.583  -4.585  1.00  0.00     0.321 C 
HETATM    3  N   UNL     1     -21.484  -6.339  -4.890  1.00  0.00    -0.339 N 
HETATM    4  N   UNL     1     -21.954  -8.465  -4.151  1.00  0.00    -0.308 N 
HETATM    5  H   UNL     1     -22.479  -6.203  -4.932  1.00  0.00     0.164 HD
HETATM    6  H   UNL     1     -22.816  -8.031  -3.859  1.00  0.00     0.170 HD
ENDROOT
BRANCH   3   7
HETATM    7  C   UNL     1     -20.630  -5.237  -5.303  1.00  0.00     0.162 C 
BRANCH   7   8
HETATM    8  C   UNL     1     -20.789  -4.914  -6.770  1.00  0.00    -0.040 A 
HETATM    9  C   UNL     1     -22.056  -4.708  -7.334  1.00  0.00     0.009 A 
HETATM   10  C   UNL     1     -22.190  -4.383  -8.688  1.00  0.00     0.017 A 
HETATM   11  C   UNL     1     -21.060  -4.254  -9.509  1.00  0.00     0.047 A 
HETATM   12  C   UNL     1     -19.792  -4.446  -8.940  1.00  0.00     0.017 A 
HETATM   13  C   UNL     1     -19.659  -4.767  -7.586  1.00  0.00     0.009 A 
BRANCH  11  14
HETATM   14  C   UNL     1     -21.186  -3.912 -10.973  1.00  0.00     0.417 C 
HETATM   15  F   UNL     1     -19.999  -3.934 -11.644  1.00  0.00    -0.166 F 
HETATM   16  F   UNL     1     -22.006  -4.769 -11.643  1.00  0.00    -0.166 F 
HETATM   17  F   UNL     1     -21.702  -2.667 -11.174  1.00  0.00    -0.166 F 
ENDBRANCH  11  14
ENDBRANCH   7   8
ENDBRANCH   3   7
BRANCH   4  18
HETATM   18  C   UNL     1     -21.716  -9.789  -3.667  1.00  0.00     0.047 C 
HETATM   19  C   UNL     1     -21.667 -10.048  -2.292  1.00  0.00     0.030 C 
HETATM   20  C   UNL     1     -21.619 -11.343  -1.797  1.00  0.00     0.003 C 
HETATM   21  C   UNL     1     -21.704 -12.416  -2.673  1.00  0.00     0.014 C 
HETATM   22  C   UNL     1     -21.719 -12.194  -4.055  1.00  0.00    -0.008 C 
HETATM   23  C   UNL     1     -21.835 -13.264  -4.942  1.00  0.00     0.100 C 
HETATM   24  C   UNL     1     -21.591 -10.880  -4.585  1.00  0.00     0.004 C 
HETATM   25  N   UNL     1     -21.631 -13.175  -6.274  1.00  0.00    -0.374 N 
HETATM   26  C   UNL     1     -21.319 -11.957  -6.742  1.00  0.00     0.088 C 
ATOM     27  HN  UNL     1     -21.708 -13.986  -6.888  1.00  0.00     0.164 HD
HETATM   28  C   UNL     1     -21.344 -10.799  -5.969  1.00  0.00     0.031 C 
ENDBRANCH   4  18
TORSDOF 4
ENDMDL
