MODEL 1
REMARK VINA RESULT:      -7.7      0.000      0.000
REMARK  17 active torsions:
REMARK  status: ('A' for Active; 'I' for Inactive)
REMARK    1  A    between atoms: C_2  and  C_3 
REMARK    2  A    between atoms: C_3  and  C_4 
REMARK    3  A    between atoms: C_4  and  C_5 
REMARK    4  A    between atoms: C_5  and  C_6 
REMARK    5  A    between atoms: C_7  and  C_8 
REMARK    6  A    between atoms: C_8  and  C_9 
REMARK    7  A    between atoms: C_9  and  C_10 
REMARK    8  A    between atoms: C_9  and  O_23 
REMARK    9  A    between atoms: C_11  and  C_12 
REMARK   10  A    between atoms: C_13  and  C_14 
REMARK   11  A    between atoms: C_14  and  C_15 
REMARK   12  A    between atoms: C_16  and  C_17 
REMARK   13  A    between atoms: C_17  and  C_18 
REMARK   14  A    between atoms: C_18  and  C_19 
REMARK   15  A    between atoms: C_19  and  C_20 
REMARK   16  A    between atoms: C_20  and  O_22 
REMARK   17  A    between atoms: O_23  and  O_24 
ROOT
HETATM    1  C   UNL     1     -20.557  -7.476  -4.868  1.00  0.00     0.008 C 
HETATM    2  C   UNL     1     -21.056  -6.226  -4.834  1.00  0.00    -0.002 C 
ENDROOT
BRANCH   1   3
HETATM    3  C   UNL     1     -20.877  -8.528  -3.830  1.00  0.00     0.186 C 
BRANCH   3   4
HETATM    4  C   UNL     1     -19.986  -8.446  -2.573  1.00  0.00     0.066 C 
BRANCH   4   5
HETATM    5  C   UNL     1     -20.671  -8.060  -1.294  1.00  0.00    -0.028 C 
HETATM    6  C   UNL     1     -21.945  -7.640  -1.229  1.00  0.00    -0.031 C 
BRANCH   6   7
HETATM    7  C   UNL     1     -22.660  -7.386   0.065  1.00  0.00     0.027 C 
BRANCH   7   8
HETATM    8  C   UNL     1     -23.335  -8.664   0.569  1.00  0.00     0.004 C 
BRANCH   8   9
HETATM    9  C   UNL     1     -23.006  -9.850  -0.336  1.00  0.00    -0.000 C 
BRANCH   9  10
HETATM   10  C   UNL     1     -24.066 -10.941  -0.231  1.00  0.00    -0.005 C 
HETATM   11  C   UNL     1     -23.509 -12.190   0.433  1.00  0.00     0.005 C 
ENDBRANCH   9  10
ENDBRANCH   8   9
ENDBRANCH   7   8
ENDBRANCH   6   7
ENDBRANCH   4   5
ENDBRANCH   3   4
BRANCH   3  12
HETATM   12  O   UNL     1     -20.650  -9.804  -4.462  1.00  0.00    -0.234 OA
BRANCH  12  13
HETATM   13  O   UNL     1     -19.775  -9.549  -5.600  1.00  0.00    -0.250 OA
HETATM   14  H   UNL     1     -19.097  -9.057  -5.103  1.00  0.00     0.253 HD
ENDBRANCH  12  13
ENDBRANCH   3  12
ENDBRANCH   1   3
BRANCH   2  15
HETATM   15  C   UNL     1     -20.739  -5.211  -5.814  1.00  0.00    -0.004 C 
HETATM   16  C   UNL     1     -19.778  -5.375  -6.740  1.00  0.00    -0.023 C 
BRANCH  16  17
HETATM   17  C   UNL     1     -19.410  -4.345  -7.770  1.00  0.00     0.054 C 
BRANCH  17  18
HETATM   18  C   UNL     1     -20.447  -4.266  -8.856  1.00  0.00    -0.027 C 
HETATM   19  C   UNL     1     -20.171  -4.377 -10.166  1.00  0.00    -0.030 C 
BRANCH  19  20
HETATM   20  C   UNL     1     -21.206  -4.331 -11.254  1.00  0.00     0.027 C 
BRANCH  20  21
HETATM   21  C   UNL     1     -22.421  -3.488 -10.857  1.00  0.00     0.014 C 
BRANCH  21  22
HETATM   22  C   UNL     1     -23.686  -4.328 -10.666  1.00  0.00     0.110 C 
BRANCH  22  23
HETATM   23  C   UNL     1     -24.653  -3.682  -9.704  1.00  0.00     0.139 C 
HETATM   24  O   UNL     1     -25.708  -3.150 -10.009  1.00  0.00    -0.650 OA
BRANCH  23  25
HETATM   25  O   UNL     1     -24.222  -3.756  -8.422  1.00  0.00    -0.776 OA
HETATM   26  H   UNL     1     -23.450  -3.188  -8.238  1.00  0.00     0.167 HD
ENDBRANCH  23  25
ENDBRANCH  22  23
ENDBRANCH  21  22
ENDBRANCH  20  21
ENDBRANCH  19  20
ENDBRANCH  17  18
ENDBRANCH  16  17
ENDBRANCH   2  15
TORSDOF 17
ENDMDL
MODEL 2
REMARK VINA RESULT:      -7.2      2.299      9.178
REMARK  17 active torsions:
REMARK  status: ('A' for Active; 'I' for Inactive)
REMARK    1  A    between atoms: C_2  and  C_3 
REMARK    2  A    between atoms: C_3  and  C_4 
REMARK    3  A    between atoms: C_4  and  C_5 
REMARK    4  A    between atoms: C_5  and  C_6 
REMARK    5  A    between atoms: C_7  and  C_8 
REMARK    6  A    between atoms: C_8  and  C_9 
REMARK    7  A    between atoms: C_9  and  C_10 
REMARK    8  A    between atoms: C_9  and  O_23 
REMARK    9  A    between atoms: C_11  and  C_12 
REMARK   10  A    between atoms: C_13  and  C_14 
REMARK   11  A    between atoms: C_14  and  C_15 
REMARK   12  A    between atoms: C_16  and  C_17 
REMARK   13  A    between atoms: C_17  and  C_18 
REMARK   14  A    between atoms: C_18  and  C_19 
REMARK   15  A    between atoms: C_19  and  C_20 
REMARK   16  A    between atoms: C_20  and  O_22 
REMARK   17  A    between atoms: O_23  and  O_24 
ROOT
HETATM    1  C   UNL     1     -21.556  -6.780  -4.245  1.00  0.00     0.008 C 
HETATM    2  C   UNL     1     -21.516  -6.308  -2.984  1.00  0.00    -0.002 C 
ENDROOT
BRANCH   1   3
HETATM    3  C   UNL     1     -20.744  -6.195  -5.378  1.00  0.00     0.186 C 
BRANCH   3   4
HETATM    4  C   UNL     1     -21.517  -5.162  -6.223  1.00  0.00     0.066 C 
BRANCH   4   5
HETATM    5  C   UNL     1     -21.313  -5.228  -7.709  1.00  0.00    -0.028 C 
HETATM    6  C   UNL     1     -20.485  -4.414  -8.384  1.00  0.00    -0.031 C 
BRANCH   6   7
HETATM    7  C   UNL     1     -20.187  -4.576  -9.845  1.00  0.00     0.027 C 
BRANCH   7   8
HETATM    8  C   UNL     1     -21.094  -3.675 -10.685  1.00  0.00     0.004 C 
BRANCH   8   9
HETATM    9  C   UNL     1     -21.977  -4.504 -11.617  1.00  0.00    -0.000 C 
BRANCH   9  10
HETATM   10  C   UNL     1     -23.355  -4.746 -11.010  1.00  0.00    -0.005 C 
HETATM   11  C   UNL     1     -23.764  -3.604 -10.093  1.00  0.00     0.005 C 
ENDBRANCH   9  10
ENDBRANCH   8   9
ENDBRANCH   7   8
ENDBRANCH   6   7
ENDBRANCH   4   5
ENDBRANCH   3   4
BRANCH   3  12
HETATM   12  O   UNL     1     -20.385  -7.300  -6.232  1.00  0.00    -0.234 OA
BRANCH  12  13
HETATM   13  O   UNL     1     -21.281  -8.397  -5.883  1.00  0.00    -0.250 OA
HETATM   14  H   UNL     1     -21.521  -8.632  -6.797  1.00  0.00     0.253 HD
ENDBRANCH  12  13
ENDBRANCH   3  12
ENDBRANCH   1   3
BRANCH   2  15
HETATM   15  C   UNL     1     -22.304  -6.850  -1.900  1.00  0.00    -0.004 C 
HETATM   16  C   UNL     1     -21.764  -7.210  -0.723  1.00  0.00    -0.023 C 
BRANCH  16  17
HETATM   17  C   UNL     1     -22.542  -7.785   0.426  1.00  0.00     0.054 C 
BRANCH  17  18
HETATM   18  C   UNL     1     -23.288  -9.023   0.013  1.00  0.00    -0.027 C 
HETATM   19  C   UNL     1     -22.700 -10.115  -0.506  1.00  0.00    -0.030 C 
BRANCH  19  20
HETATM   20  C   UNL     1     -23.436 -11.368  -0.891  1.00  0.00     0.027 C 
BRANCH  20  21
HETATM   21  C   UNL     1     -22.944 -11.936  -2.225  1.00  0.00     0.014 C 
BRANCH  21  22
HETATM   22  C   UNL     1     -22.880 -10.880  -3.330  1.00  0.00     0.110 C 
BRANCH  22  23
HETATM   23  C   UNL     1     -21.483 -10.719  -3.879  1.00  0.00     0.139 C 
HETATM   24  O   UNL     1     -20.595 -10.054  -3.372  1.00  0.00    -0.650 OA
BRANCH  23  25
HETATM   25  O   UNL     1     -21.305 -11.412  -5.029  1.00  0.00    -0.776 OA
HETATM   26  H   UNL     1     -21.910 -11.139  -5.745  1.00  0.00     0.167 HD
ENDBRANCH  23  25
ENDBRANCH  22  23
ENDBRANCH  21  22
ENDBRANCH  20  21
ENDBRANCH  19  20
ENDBRANCH  17  18
ENDBRANCH  16  17
ENDBRANCH   2  15
TORSDOF 17
ENDMDL
MODEL 3
REMARK VINA RESULT:      -7.1      2.680     10.307
REMARK  17 active torsions:
REMARK  status: ('A' for Active; 'I' for Inactive)
REMARK    1  A    between atoms: C_2  and  C_3 
REMARK    2  A    between atoms: C_3  and  C_4 
REMARK    3  A    between atoms: C_4  and  C_5 
REMARK    4  A    between atoms: C_5  and  C_6 
REMARK    5  A    between atoms: C_7  and  C_8 
REMARK    6  A    between atoms: C_8  and  C_9 
REMARK    7  A    between atoms: C_9  and  C_10 
REMARK    8  A    between atoms: C_9  and  O_23 
REMARK    9  A    between atoms: C_11  and  C_12 
REMARK   10  A    between atoms: C_13  and  C_14 
REMARK   11  A    between atoms: C_14  and  C_15 
REMARK   12  A    between atoms: C_16  and  C_17 
REMARK   13  A    between atoms: C_17  and  C_18 
REMARK   14  A    between atoms: C_18  and  C_19 
REMARK   15  A    between atoms: C_19  and  C_20 
REMARK   16  A    between atoms: C_20  and  O_22 
REMARK   17  A    between atoms: O_23  and  O_24 
ROOT
HETATM    1  C   UNL     1     -21.327  -6.988  -3.739  1.00  0.00     0.008 C 
HETATM    2  C   UNL     1     -21.584  -6.097  -2.763  1.00  0.00    -0.002 C 
ENDROOT
BRANCH   1   3
HETATM    3  C   UNL     1     -20.688  -6.616  -5.058  1.00  0.00     0.186 C 
BRANCH   3   4
HETATM    4  C   UNL     1     -21.678  -6.018  -6.078  1.00  0.00     0.066 C 
BRANCH   4   5
HETATM    5  C   UNL     1     -21.090  -5.525  -7.369  1.00  0.00    -0.028 C 
HETATM    6  C   UNL     1     -20.444  -4.354  -7.494  1.00  0.00    -0.031 C 
BRANCH   6   7
HETATM    7  C   UNL     1     -19.745  -3.934  -8.753  1.00  0.00     0.027 C 
BRANCH   7   8
HETATM    8  C   UNL     1     -20.367  -4.618  -9.971  1.00  0.00     0.004 C 
BRANCH   8   9
HETATM    9  C   UNL     1     -21.435  -3.732 -10.611  1.00  0.00    -0.000 C 
BRANCH   9  10
HETATM   10  C   UNL     1     -22.823  -4.352 -10.483  1.00  0.00    -0.005 C 
HETATM   11  C   UNL     1     -23.642  -3.657  -9.408  1.00  0.00     0.005 C 
ENDBRANCH   9  10
ENDBRANCH   8   9
ENDBRANCH   7   8
ENDBRANCH   6   7
ENDBRANCH   4   5
ENDBRANCH   3   4
BRANCH   3  12
HETATM   12  O   UNL     1     -20.154  -7.837  -5.608  1.00  0.00    -0.234 OA
BRANCH  12  13
HETATM   13  O   UNL     1     -21.276  -8.761  -5.724  1.00  0.00    -0.250 OA
HETATM   14  H   UNL     1     -21.896  -8.124  -6.123  1.00  0.00     0.253 HD
ENDBRANCH  12  13
ENDBRANCH   3  12
ENDBRANCH   1   3
BRANCH   2  15
HETATM   15  C   UNL     1     -22.212  -6.444  -1.508  1.00  0.00    -0.004 C 
HETATM   16  C   UNL     1     -21.831  -7.506  -0.777  1.00  0.00    -0.023 C 
BRANCH  16  17
HETATM   17  C   UNL     1     -22.460  -7.907   0.526  1.00  0.00     0.054 C 
BRANCH  17  18
HETATM   18  C   UNL     1     -23.384  -9.079   0.347  1.00  0.00    -0.027 C 
HETATM   19  C   UNL     1     -23.118 -10.129  -0.448  1.00  0.00    -0.030 C 
BRANCH  19  20
HETATM   20  C   UNL     1     -24.023 -11.319  -0.607  1.00  0.00     0.027 C 
BRANCH  20  21
HETATM   21  C   UNL     1     -23.254 -12.640  -0.533  1.00  0.00     0.014 C 
BRANCH  21  22
HETATM   22  C   UNL     1     -22.561 -12.846   0.816  1.00  0.00     0.110 C 
BRANCH  22  23
HETATM   23  C   UNL     1     -23.166 -13.990   1.593  1.00  0.00     0.139 C 
HETATM   24  O   UNL     1     -23.870 -13.880   2.584  1.00  0.00    -0.650 OA
BRANCH  23  25
HETATM   25  O   UNL     1     -22.840 -15.193   1.064  1.00  0.00    -0.776 OA
HETATM   26  H   UNL     1     -21.881 -15.374   1.069  1.00  0.00     0.167 HD
ENDBRANCH  23  25
ENDBRANCH  22  23
ENDBRANCH  21  22
ENDBRANCH  20  21
ENDBRANCH  19  20
ENDBRANCH  17  18
ENDBRANCH  16  17
ENDBRANCH   2  15
TORSDOF 17
ENDMDL
MODEL 4
REMARK VINA RESULT:      -6.6      1.829      2.956
REMARK  17 active torsions:
REMARK  status: ('A' for Active; 'I' for Inactive)
REMARK    1  A    between atoms: C_2  and  C_3 
REMARK    2  A    between atoms: C_3  and  C_4 
REMARK    3  A    between atoms: C_4  and  C_5 
REMARK    4  A    between atoms: C_5  and  C_6 
REMARK    5  A    between atoms: C_7  and  C_8 
REMARK    6  A    between atoms: C_8  and  C_9 
REMARK    7  A    between atoms: C_9  and  C_10 
REMARK    8  A    between atoms: C_9  and  O_23 
REMARK    9  A    between atoms: C_11  and  C_12 
REMARK   10  A    between atoms: C_13  and  C_14 
REMARK   11  A    between atoms: C_14  and  C_15 
REMARK   12  A    between atoms: C_16  and  C_17 
REMARK   13  A    between atoms: C_17  and  C_18 
REMARK   14  A    between atoms: C_18  and  C_19 
REMARK   15  A    between atoms: C_19  and  C_20 
REMARK   16  A    between atoms: C_20  and  O_22 
REMARK   17  A    between atoms: O_23  and  O_24 
ROOT
HETATM    1  C   UNL     1     -20.042  -9.609  -4.281  1.00  0.00     0.008 C 
HETATM    2  C   UNL     1     -20.969  -9.078  -5.100  1.00  0.00    -0.002 C 
ENDROOT
BRANCH   1   3
HETATM    3  C   UNL     1     -19.766 -11.093  -4.188  1.00  0.00     0.186 C 
BRANCH   3   4
HETATM    4  C   UNL     1     -20.066 -11.691  -2.798  1.00  0.00     0.066 C 
BRANCH   4   5
HETATM    5  C   UNL     1     -20.804 -10.806  -1.835  1.00  0.00    -0.028 C 
HETATM    6  C   UNL     1     -20.892 -11.050  -0.517  1.00  0.00    -0.031 C 
BRANCH   6   7
HETATM    7  C   UNL     1     -21.515 -10.091   0.454  1.00  0.00     0.027 C 
BRANCH   7   8
HETATM    8  C   UNL     1     -20.993  -8.672   0.222  1.00  0.00     0.004 C 
BRANCH   8   9
HETATM    9  C   UNL     1     -22.115  -7.746  -0.245  1.00  0.00    -0.000 C 
BRANCH   9  10
HETATM   10  C   UNL     1     -21.978  -7.407  -1.726  1.00  0.00    -0.005 C 
HETATM   11  C   UNL     1     -21.971  -5.904  -1.951  1.00  0.00     0.005 C 
ENDBRANCH   9  10
ENDBRANCH   8   9
ENDBRANCH   7   8
ENDBRANCH   6   7
ENDBRANCH   4   5
ENDBRANCH   3   4
BRANCH   3  12
HETATM   12  O   UNL     1     -18.360 -11.262  -4.459  1.00  0.00    -0.234 OA
BRANCH  12  13
HETATM   13  O   UNL     1     -17.656 -10.358  -3.557  1.00  0.00    -0.250 OA
HETATM   14  H   UNL     1     -18.183  -9.567  -3.769  1.00  0.00     0.253 HD
ENDBRANCH  12  13
ENDBRANCH   3  12
ENDBRANCH   1   3
BRANCH   2  15
HETATM   15  C   UNL     1     -21.250  -7.662  -5.180  1.00  0.00    -0.004 C 
HETATM   16  C   UNL     1     -20.323  -6.761  -5.548  1.00  0.00    -0.023 C 
BRANCH  16  17
HETATM   17  C   UNL     1     -20.569  -5.282  -5.637  1.00  0.00     0.054 C 
BRANCH  17  18
HETATM   18  C   UNL     1     -20.093  -4.728  -6.951  1.00  0.00    -0.027 C 
HETATM   19  C   UNL     1     -20.824  -4.740  -8.079  1.00  0.00    -0.030 C 
BRANCH  19  20
HETATM   20  C   UNL     1     -20.367  -4.161  -9.388  1.00  0.00     0.027 C 
BRANCH  20  21
HETATM   21  C   UNL     1     -21.388  -4.389 -10.506  1.00  0.00     0.014 C 
BRANCH  21  22
HETATM   22  C   UNL     1     -22.824  -4.484  -9.984  1.00  0.00     0.110 C 
BRANCH  22  23
HETATM   23  C   UNL     1     -23.837  -4.150 -11.053  1.00  0.00     0.139 C 
HETATM   24  O   UNL     1     -24.796  -3.409 -10.913  1.00  0.00    -0.650 OA
BRANCH  23  25
HETATM   25  O   UNL     1     -23.565  -4.773 -12.224  1.00  0.00    -0.776 OA
HETATM   26  H   UNL     1     -22.965  -5.536 -12.129  1.00  0.00     0.167 HD
ENDBRANCH  23  25
ENDBRANCH  22  23
ENDBRANCH  21  22
ENDBRANCH  20  21
ENDBRANCH  19  20
ENDBRANCH  17  18
ENDBRANCH  16  17
ENDBRANCH   2  15
TORSDOF 17
ENDMDL
MODEL 5
REMARK VINA RESULT:      -6.6      1.933      2.895
REMARK  17 active torsions:
REMARK  status: ('A' for Active; 'I' for Inactive)
REMARK    1  A    between atoms: C_2  and  C_3 
REMARK    2  A    between atoms: C_3  and  C_4 
REMARK    3  A    between atoms: C_4  and  C_5 
REMARK    4  A    between atoms: C_5  and  C_6 
REMARK    5  A    between atoms: C_7  and  C_8 
REMARK    6  A    between atoms: C_8  and  C_9 
REMARK    7  A    between atoms: C_9  and  C_10 
REMARK    8  A    between atoms: C_9  and  O_23 
REMARK    9  A    between atoms: C_11  and  C_12 
REMARK   10  A    between atoms: C_13  and  C_14 
REMARK   11  A    between atoms: C_14  and  C_15 
REMARK   12  A    between atoms: C_16  and  C_17 
REMARK   13  A    between atoms: C_17  and  C_18 
REMARK   14  A    between atoms: C_18  and  C_19 
REMARK   15  A    between atoms: C_19  and  C_20 
REMARK   16  A    between atoms: C_20  and  O_22 
REMARK   17  A    between atoms: O_23  and  O_24 
ROOT
HETATM    1  C   UNL     1     -20.861  -9.776  -5.624  1.00  0.00     0.008 C 
HETATM    2  C   UNL     1     -21.123  -8.599  -5.026  1.00  0.00    -0.002 C 
ENDROOT
BRANCH   1   3
HETATM    3  C   UNL     1     -21.602 -11.054  -5.305  1.00  0.00     0.186 C 
BRANCH   3   4
HETATM    4  C   UNL     1     -20.939 -11.892  -4.193  1.00  0.00     0.066 C 
BRANCH   4   5
HETATM    5  C   UNL     1     -21.709 -12.030  -2.912  1.00  0.00    -0.028 C 
HETATM    6  C   UNL     1     -22.442 -11.040  -2.374  1.00  0.00    -0.031 C 
BRANCH   6   7
HETATM    7  C   UNL     1     -23.314 -11.229  -1.167  1.00  0.00     0.027 C 
BRANCH   7   8
HETATM    8  C   UNL     1     -23.336  -9.959  -0.314  1.00  0.00     0.004 C 
BRANCH   8   9
HETATM    9  C   UNL     1     -21.973  -9.708   0.329  1.00  0.00    -0.000 C 
BRANCH   9  10
HETATM   10  C   UNL     1     -21.759  -8.225   0.617  1.00  0.00    -0.005 C 
HETATM   11  C   UNL     1     -22.411  -7.355  -0.445  1.00  0.00     0.005 C 
ENDBRANCH   9  10
ENDBRANCH   8   9
ENDBRANCH   7   8
ENDBRANCH   6   7
ENDBRANCH   4   5
ENDBRANCH   3   4
BRANCH   3  12
HETATM   12  O   UNL     1     -21.606 -11.835  -6.518  1.00  0.00    -0.234 OA
BRANCH  12  13
HETATM   13  O   UNL     1     -22.065 -13.168  -6.147  1.00  0.00    -0.250 OA
HETATM   14  H   UNL     1     -23.012 -13.000  -6.301  1.00  0.00     0.253 HD
ENDBRANCH  12  13
ENDBRANCH   3  12
ENDBRANCH   1   3
BRANCH   2  15
HETATM   15  C   UNL     1     -20.404  -7.377  -5.313  1.00  0.00    -0.004 C 
HETATM   16  C   UNL     1     -20.947  -6.160  -5.136  1.00  0.00    -0.023 C 
BRANCH  16  17
HETATM   17  C   UNL     1     -20.241  -4.867  -5.428  1.00  0.00     0.054 C 
BRANCH  17  18
HETATM   18  C   UNL     1     -20.730  -4.258  -6.713  1.00  0.00    -0.027 C 
HETATM   19  C   UNL     1     -20.713  -4.893  -7.898  1.00  0.00    -0.030 C 
BRANCH  19  20
HETATM   20  C   UNL     1     -21.229  -4.302  -9.180  1.00  0.00     0.027 C 
BRANCH  20  21
HETATM   21  C   UNL     1     -22.630  -4.812  -9.526  1.00  0.00     0.014 C 
BRANCH  21  22
HETATM   22  C   UNL     1     -23.738  -4.014  -8.836  1.00  0.00     0.110 C 
BRANCH  22  23
HETATM   23  C   UNL     1     -24.650  -3.337  -9.830  1.00  0.00     0.139 C 
HETATM   24  O   UNL     1     -25.857  -3.202  -9.708  1.00  0.00    -0.650 OA
BRANCH  23  25
HETATM   25  O   UNL     1     -23.975  -2.877 -10.910  1.00  0.00    -0.776 OA
HETATM   26  H   UNL     1     -24.005  -1.906 -11.003  1.00  0.00     0.167 HD
ENDBRANCH  23  25
ENDBRANCH  22  23
ENDBRANCH  21  22
ENDBRANCH  20  21
ENDBRANCH  19  20
ENDBRANCH  17  18
ENDBRANCH  16  17
ENDBRANCH   2  15
TORSDOF 17
ENDMDL
MODEL 6
REMARK VINA RESULT:      -6.3     17.332     19.050
REMARK  17 active torsions:
REMARK  status: ('A' for Active; 'I' for Inactive)
REMARK    1  A    between atoms: C_2  and  C_3 
REMARK    2  A    between atoms: C_3  and  C_4 
REMARK    3  A    between atoms: C_4  and  C_5 
REMARK    4  A    between atoms: C_5  and  C_6 
REMARK    5  A    between atoms: C_7  and  C_8 
REMARK    6  A    between atoms: C_8  and  C_9 
REMARK    7  A    between atoms: C_9  and  C_10 
REMARK    8  A    between atoms: C_9  and  O_23 
REMARK    9  A    between atoms: C_11  and  C_12 
REMARK   10  A    between atoms: C_13  and  C_14 
REMARK   11  A    between atoms: C_14  and  C_15 
REMARK   12  A    between atoms: C_16  and  C_17 
REMARK   13  A    between atoms: C_17  and  C_18 
REMARK   14  A    between atoms: C_18  and  C_19 
REMARK   15  A    between atoms: C_19  and  C_20 
REMARK   16  A    between atoms: C_20  and  O_22 
REMARK   17  A    between atoms: O_23  and  O_24 
ROOT
HETATM    1  C   UNL     1     -20.923   8.667   2.600  1.00  0.00     0.008 C 
HETATM    2  C   UNL     1     -21.823   9.303   1.827  1.00  0.00    -0.002 C 
ENDROOT
BRANCH   1   3
HETATM    3  C   UNL     1     -20.027   9.378   3.589  1.00  0.00     0.186 C 
BRANCH   3   4
HETATM    4  C   UNL     1     -18.844  10.117   2.930  1.00  0.00     0.066 C 
BRANCH   4   5
HETATM    5  C   UNL     1     -17.696   9.264   2.471  1.00  0.00    -0.028 C 
HETATM    6  C   UNL     1     -16.432   9.425   2.898  1.00  0.00    -0.031 C 
BRANCH   6   7
HETATM    7  C   UNL     1     -15.320   8.484   2.538  1.00  0.00     0.027 C 
BRANCH   7   8
HETATM    8  C   UNL     1     -14.402   8.249   3.739  1.00  0.00     0.004 C 
BRANCH   8   9
HETATM    9  C   UNL     1     -15.207   8.174   5.036  1.00  0.00    -0.000 C 
BRANCH   9  10
HETATM   10  C   UNL     1     -14.459   8.826   6.194  1.00  0.00    -0.005 C 
HETATM   11  C   UNL     1     -13.018   9.133   5.819  1.00  0.00     0.005 C 
ENDBRANCH   9  10
ENDBRANCH   8   9
ENDBRANCH   7   8
ENDBRANCH   6   7
ENDBRANCH   4   5
ENDBRANCH   3   4
BRANCH   3  12
HETATM   12  O   UNL     1     -19.494   8.359   4.459  1.00  0.00    -0.234 OA
BRANCH  12  13
HETATM   13  O   UNL     1     -19.028   9.045   5.659  1.00  0.00    -0.250 OA
HETATM   14  H   UNL     1     -19.589   9.834   5.553  1.00  0.00     0.253 HD
ENDBRANCH  12  13
ENDBRANCH   3  12
ENDBRANCH   1   3
BRANCH   2  15
HETATM   15  C   UNL     1     -22.669   8.632   0.866  1.00  0.00    -0.004 C 
HETATM   16  C   UNL     1     -24.007   8.773   0.857  1.00  0.00    -0.023 C 
BRANCH  16  17
HETATM   17  C   UNL     1     -24.924   8.089  -0.116  1.00  0.00     0.054 C 
BRANCH  17  18
HETATM   18  C   UNL     1     -26.362   8.230   0.300  1.00  0.00    -0.027 C 
HETATM   19  C   UNL     1     -26.754   8.669   1.508  1.00  0.00    -0.030 C 
BRANCH  19  20
HETATM   20  C   UNL     1     -28.189   8.842   1.920  1.00  0.00     0.027 C 
BRANCH  20  21
HETATM   21  C   UNL     1     -28.398   8.561   3.410  1.00  0.00     0.014 C 
BRANCH  21  22
HETATM   22  C   UNL     1     -29.039   7.197   3.670  1.00  0.00     0.110 C 
BRANCH  22  23
HETATM   23  C   UNL     1     -29.190   6.916   5.146  1.00  0.00     0.139 C 
HETATM   24  O   UNL     1     -28.287   6.930   5.967  1.00  0.00    -0.650 OA
BRANCH  23  25
HETATM   25  O   UNL     1     -30.472   6.638   5.482  1.00  0.00    -0.776 OA
HETATM   26  H   UNL     1     -30.584   5.765   5.905  1.00  0.00     0.167 HD
ENDBRANCH  23  25
ENDBRANCH  22  23
ENDBRANCH  21  22
ENDBRANCH  20  21
ENDBRANCH  19  20
ENDBRANCH  17  18
ENDBRANCH  16  17
ENDBRANCH   2  15
TORSDOF 17
ENDMDL
MODEL 7
REMARK VINA RESULT:      -6.3     14.258     15.694
REMARK  17 active torsions:
REMARK  status: ('A' for Active; 'I' for Inactive)
REMARK    1  A    between atoms: C_2  and  C_3 
REMARK    2  A    between atoms: C_3  and  C_4 
REMARK    3  A    between atoms: C_4  and  C_5 
REMARK    4  A    between atoms: C_5  and  C_6 
REMARK    5  A    between atoms: C_7  and  C_8 
REMARK    6  A    between atoms: C_8  and  C_9 
REMARK    7  A    between atoms: C_9  and  C_10 
REMARK    8  A    between atoms: C_9  and  O_23 
REMARK    9  A    between atoms: C_11  and  C_12 
REMARK   10  A    between atoms: C_13  and  C_14 
REMARK   11  A    between atoms: C_14  and  C_15 
REMARK   12  A    between atoms: C_16  and  C_17 
REMARK   13  A    between atoms: C_17  and  C_18 
REMARK   14  A    between atoms: C_18  and  C_19 
REMARK   15  A    between atoms: C_19  and  C_20 
REMARK   16  A    between atoms: C_20  and  O_22 
REMARK   17  A    between atoms: O_23  and  O_24 
ROOT
HETATM    1  C   UNL     1     -25.958   8.287  -6.396  1.00  0.00     0.008 C 
HETATM    2  C   UNL     1     -26.054   9.628  -6.314  1.00  0.00    -0.002 C 
ENDROOT
BRANCH   1   3
HETATM    3  C   UNL     1     -25.631   7.403  -5.214  1.00  0.00     0.186 C 
BRANCH   3   4
HETATM    4  C   UNL     1     -24.386   7.860  -4.426  1.00  0.00     0.066 C 
BRANCH   4   5
HETATM    5  C   UNL     1     -24.192   7.246  -3.070  1.00  0.00    -0.028 C 
HETATM    6  C   UNL     1     -23.306   7.699  -2.167  1.00  0.00    -0.031 C 
BRANCH   6   7
HETATM    7  C   UNL     1     -23.215   7.164  -0.768  1.00  0.00     0.027 C 
BRANCH   7   8
HETATM    8  C   UNL     1     -23.452   8.279   0.252  1.00  0.00     0.004 C 
BRANCH   8   9
HETATM    9  C   UNL     1     -24.756   9.021  -0.041  1.00  0.00    -0.000 C 
BRANCH   9  10
HETATM   10  C   UNL     1     -25.966   8.110   0.136  1.00  0.00    -0.005 C 
HETATM   11  C   UNL     1     -26.891   8.625   1.227  1.00  0.00     0.005 C 
ENDBRANCH   9  10
ENDBRANCH   8   9
ENDBRANCH   7   8
ENDBRANCH   6   7
ENDBRANCH   4   5
ENDBRANCH   3   4
BRANCH   3  12
HETATM   12  O   UNL     1     -25.370   6.090  -5.750  1.00  0.00    -0.234 OA
BRANCH  12  13
HETATM   13  O   UNL     1     -25.823   6.114  -7.136  1.00  0.00    -0.250 OA
HETATM   14  H   UNL     1     -26.183   7.019  -7.113  1.00  0.00     0.253 HD
ENDBRANCH  12  13
ENDBRANCH   3  12
ENDBRANCH   1   3
BRANCH   2  15
HETATM   15  C   UNL     1     -26.347  10.480  -7.445  1.00  0.00    -0.004 C 
HETATM   16  C   UNL     1     -25.960  10.179  -8.697  1.00  0.00    -0.023 C 
BRANCH  16  17
HETATM   17  C   UNL     1     -26.236  11.037  -9.898  1.00  0.00     0.054 C 
BRANCH  17  18
HETATM   18  C   UNL     1     -25.697  10.408 -11.152  1.00  0.00    -0.027 C 
HETATM   19  C   UNL     1     -24.533   9.740 -11.216  1.00  0.00    -0.030 C 
BRANCH  19  20
HETATM   20  C   UNL     1     -24.004   9.082 -12.459  1.00  0.00     0.027 C 
BRANCH  20  21
HETATM   21  C   UNL     1     -24.226   7.567 -12.448  1.00  0.00     0.014 C 
BRANCH  21  22
HETATM   22  C   UNL     1     -24.398   7.005 -11.035  1.00  0.00     0.110 C 
BRANCH  22  23
HETATM   23  C   UNL     1     -25.797   6.490 -10.798  1.00  0.00     0.139 C 
HETATM   24  O   UNL     1     -26.827   7.069 -11.100  1.00  0.00    -0.650 OA
BRANCH  23  25
HETATM   25  O   UNL     1     -25.797   5.276 -10.197  1.00  0.00    -0.776 OA
HETATM   26  H   UNL     1     -25.962   5.317  -9.236  1.00  0.00     0.167 HD
ENDBRANCH  23  25
ENDBRANCH  22  23
ENDBRANCH  21  22
ENDBRANCH  20  21
ENDBRANCH  19  20
ENDBRANCH  17  18
ENDBRANCH  16  17
ENDBRANCH   2  15
TORSDOF 17
ENDMDL
MODEL 8
REMARK VINA RESULT:      -6.3     17.286     18.692
REMARK  17 active torsions:
REMARK  status: ('A' for Active; 'I' for Inactive)
REMARK    1  A    between atoms: C_2  and  C_3 
REMARK    2  A    between atoms: C_3  and  C_4 
REMARK    3  A    between atoms: C_4  and  C_5 
REMARK    4  A    between atoms: C_5  and  C_6 
REMARK    5  A    between atoms: C_7  and  C_8 
REMARK    6  A    between atoms: C_8  and  C_9 
REMARK    7  A    between atoms: C_9  and  C_10 
REMARK    8  A    between atoms: C_9  and  O_23 
REMARK    9  A    between atoms: C_11  and  C_12 
REMARK   10  A    between atoms: C_13  and  C_14 
REMARK   11  A    between atoms: C_14  and  C_15 
REMARK   12  A    between atoms: C_16  and  C_17 
REMARK   13  A    between atoms: C_17  and  C_18 
REMARK   14  A    between atoms: C_18  and  C_19 
REMARK   15  A    between atoms: C_19  and  C_20 
REMARK   16  A    between atoms: C_20  and  O_22 
REMARK   17  A    between atoms: O_23  and  O_24 
ROOT
HETATM    1  C   UNL     1     -16.531   9.614   2.469  1.00  0.00     0.008 C 
HETATM    2  C   UNL     1     -17.747   9.079   2.251  1.00  0.00    -0.002 C 
ENDROOT
BRANCH   1   3
HETATM    3  C   UNL     1     -15.276   9.137   1.774  1.00  0.00     0.186 C 
BRANCH   3   4
HETATM    4  C   UNL     1     -14.450   8.135   2.607  1.00  0.00     0.066 C 
BRANCH   4   5
HETATM    5  C   UNL     1     -14.377   8.396   4.083  1.00  0.00    -0.028 C 
HETATM    6  C   UNL     1     -13.373   9.067   4.672  1.00  0.00    -0.031 C 
BRANCH   6   7
HETATM    7  C   UNL     1     -13.377   9.438   6.126  1.00  0.00     0.027 C 
BRANCH   7   8
HETATM    8  C   UNL     1     -14.805   9.469   6.672  1.00  0.00     0.004 C 
BRANCH   8   9
HETATM    9  C   UNL     1     -15.381  10.883   6.620  1.00  0.00    -0.000 C 
BRANCH   9  10
HETATM   10  C   UNL     1     -16.877  10.865   6.322  1.00  0.00    -0.005 C 
HETATM   11  C   UNL     1     -17.403   9.442   6.217  1.00  0.00     0.005 C 
ENDBRANCH   9  10
ENDBRANCH   8   9
ENDBRANCH   7   8
ENDBRANCH   6   7
ENDBRANCH   4   5
ENDBRANCH   3   4
BRANCH   3  12
HETATM   12  O   UNL     1     -14.468  10.310   1.546  1.00  0.00    -0.234 OA
BRANCH  12  13
HETATM   13  O   UNL     1     -13.143   9.829   1.171  1.00  0.00    -0.250 OA
HETATM   14  H   UNL     1     -13.443   8.992   0.774  1.00  0.00     0.253 HD
ENDBRANCH  12  13
ENDBRANCH   3  12
ENDBRANCH   1   3
BRANCH   2  15
HETATM   15  C   UNL     1     -18.947   9.518   2.927  1.00  0.00    -0.004 C 
HETATM   16  C   UNL     1     -19.919   8.668   3.300  1.00  0.00    -0.023 C 
BRANCH  16  17
HETATM   17  C   UNL     1     -21.184   9.080   3.996  1.00  0.00     0.054 C 
BRANCH  17  18
HETATM   18  C   UNL     1     -22.247   9.473   3.008  1.00  0.00    -0.027 C 
HETATM   19  C   UNL     1     -22.474   8.825   1.853  1.00  0.00    -0.030 C 
BRANCH  19  20
HETATM   20  C   UNL     1     -23.554   9.193   0.875  1.00  0.00     0.027 C 
BRANCH  20  21
HETATM   21  C   UNL     1     -23.296   8.608  -0.515  1.00  0.00     0.014 C 
BRANCH  21  22
HETATM   22  C   UNL     1     -24.463   7.760  -1.026  1.00  0.00     0.110 C 
BRANCH  22  23
HETATM   23  C   UNL     1     -23.992   6.477  -1.667  1.00  0.00     0.139 C 
HETATM   24  O   UNL     1     -24.575   5.869  -2.550  1.00  0.00    -0.650 OA
BRANCH  23  25
HETATM   25  O   UNL     1     -22.815   6.052  -1.149  1.00  0.00    -0.776 OA
HETATM   26  H   UNL     1     -22.155   6.763  -1.047  1.00  0.00     0.167 HD
ENDBRANCH  23  25
ENDBRANCH  22  23
ENDBRANCH  21  22
ENDBRANCH  20  21
ENDBRANCH  19  20
ENDBRANCH  17  18
ENDBRANCH  16  17
ENDBRANCH   2  15
TORSDOF 17
ENDMDL
MODEL 9
REMARK VINA RESULT:      -6.2     16.941     21.452
REMARK  17 active torsions:
REMARK  status: ('A' for Active; 'I' for Inactive)
REMARK    1  A    between atoms: C_2  and  C_3 
REMARK    2  A    between atoms: C_3  and  C_4 
REMARK    3  A    between atoms: C_4  and  C_5 
REMARK    4  A    between atoms: C_5  and  C_6 
REMARK    5  A    between atoms: C_7  and  C_8 
REMARK    6  A    between atoms: C_8  and  C_9 
REMARK    7  A    between atoms: C_9  and  C_10 
REMARK    8  A    between atoms: C_9  and  O_23 
REMARK    9  A    between atoms: C_11  and  C_12 
REMARK   10  A    between atoms: C_13  and  C_14 
REMARK   11  A    between atoms: C_14  and  C_15 
REMARK   12  A    between atoms: C_16  and  C_17 
REMARK   13  A    between atoms: C_17  and  C_18 
REMARK   14  A    between atoms: C_18  and  C_19 
REMARK   15  A    between atoms: C_19  and  C_20 
REMARK   16  A    between atoms: C_20  and  O_22 
REMARK   17  A    between atoms: O_23  and  O_24 
ROOT
HETATM    1  C   UNL     1     -19.740  11.410 -16.573  1.00  0.00     0.008 C 
HETATM    2  C   UNL     1     -18.992  11.080 -15.504  1.00  0.00    -0.002 C 
ENDROOT
BRANCH   1   3
HETATM    3  C   UNL     1     -21.247  11.527 -16.530  1.00  0.00     0.186 C 
BRANCH   3   4
HETATM    4  C   UNL     1     -21.777  12.211 -15.254  1.00  0.00     0.066 C 
BRANCH   4   5
HETATM    5  C   UNL     1     -22.476  11.326 -14.263  1.00  0.00    -0.028 C 
HETATM    6  C   UNL     1     -23.590  11.683 -13.601  1.00  0.00    -0.031 C 
BRANCH   6   7
HETATM    7  C   UNL     1     -24.355  10.743 -12.717  1.00  0.00     0.027 C 
BRANCH   7   8
HETATM    8  C   UNL     1     -23.602   9.421 -12.555  1.00  0.00     0.004 C 
BRANCH   8   9
HETATM    9  C   UNL     1     -24.142   8.625 -11.367  1.00  0.00    -0.000 C 
BRANCH   9  10
HETATM   10  C   UNL     1     -24.968   7.429 -11.828  1.00  0.00    -0.005 C 
HETATM   11  C   UNL     1     -25.968   7.004 -10.764  1.00  0.00     0.005 C 
ENDBRANCH   9  10
ENDBRANCH   8   9
ENDBRANCH   7   8
ENDBRANCH   6   7
ENDBRANCH   4   5
ENDBRANCH   3   4
BRANCH   3  12
HETATM   12  O   UNL     1     -21.760  10.179 -16.567  1.00  0.00    -0.234 OA
BRANCH  12  13
HETATM   13  O   UNL     1     -21.627   9.726 -17.947  1.00  0.00    -0.250 OA
HETATM   14  H   UNL     1     -20.701  10.005 -18.060  1.00  0.00     0.253 HD
ENDBRANCH  12  13
ENDBRANCH   3  12
ENDBRANCH   1   3
BRANCH   2  15
HETATM   15  C   UNL     1     -17.553  10.948 -15.543  1.00  0.00    -0.004 C 
HETATM   16  C   UNL     1     -16.814  11.392 -16.576  1.00  0.00    -0.023 C 
BRANCH  16  17
HETATM   17  C   UNL     1     -15.320  11.268 -16.663  1.00  0.00     0.054 C 
BRANCH  17  18
HETATM   18  C   UNL     1     -14.824  11.616 -18.039  1.00  0.00    -0.027 C 
HETATM   19  C   UNL     1     -14.044  10.810 -18.780  1.00  0.00    -0.030 C 
BRANCH  19  20
HETATM   20  C   UNL     1     -13.571  11.138 -20.168  1.00  0.00     0.027 C 
BRANCH  20  21
HETATM   21  C   UNL     1     -12.449  10.203 -20.629  1.00  0.00     0.014 C 
BRANCH  21  22
HETATM   22  C   UNL     1     -11.994   9.239 -19.531  1.00  0.00     0.110 C 
BRANCH  22  23
HETATM   23  C   UNL     1     -10.493   9.229 -19.374  1.00  0.00     0.139 C 
HETATM   24  O   UNL     1      -9.689   9.589 -20.219  1.00  0.00    -0.650 OA
BRANCH  23  25
HETATM   25  O   UNL     1     -10.112   8.767 -18.159  1.00  0.00    -0.776 OA
HETATM   26  H   UNL     1      -9.513   7.997 -18.206  1.00  0.00     0.167 HD
ENDBRANCH  23  25
ENDBRANCH  22  23
ENDBRANCH  21  22
ENDBRANCH  20  21
ENDBRANCH  19  20
ENDBRANCH  17  18
ENDBRANCH  16  17
ENDBRANCH   2  15
TORSDOF 17
ENDMDL
