MODEL 1
REMARK VINA RESULT:    -8.426      0.000      0.000
REMARK INTER + INTRA:         -13.862
REMARK INTER:                 -13.106
REMARK INTRA:                  -0.756
REMARK UNBOUND:                -0.756
REMARK  10 active torsions:
REMARK  status: ('A' for Active; 'I' for Inactive)
REMARK    1  A    between atoms: O_2  and  C_3 
REMARK    2  A    between atoms: C_5  and  C_6 
REMARK    3  A    between atoms: C_6  and  N_7 
REMARK       I    between atoms: N_7  and  C_8 
REMARK    4  A    between atoms: C_8  and  C_10 
REMARK    5  A    between atoms: C_10  and  C_11 
REMARK    6  A    between atoms: C_11  and  C_12 
REMARK    7  A    between atoms: C_12  and  C_13 
REMARK    8  A    between atoms: C_13  and  C_14 
REMARK    9  A    between atoms: C_15  and  C_16 
REMARK   10  A    between atoms: C_21  and  O_22 
ROOT
HETATM    1  N   UNL     1     -21.194  -5.203  -6.350  1.00  0.00    -0.357 N 
HETATM    2  C   UNL     1     -20.654  -6.459  -6.278  1.00  0.00     0.217 C 
HETATM    3  O   UNL     1     -19.594  -6.777  -6.834  1.00  0.00    -0.274 OA
HETATM    4  H   UNL     1     -22.061  -5.022  -5.858  1.00  0.00     0.162 HD
ENDROOT
BRANCH   1   5
HETATM    5  C   UNL     1     -20.557  -4.153  -7.110  1.00  0.00     0.161 C 
BRANCH   5   6
HETATM    6  C   UNL     1     -20.942  -4.113  -8.573  1.00  0.00    -0.038 A 
HETATM    7  C   UNL     1     -22.205  -3.672  -9.001  1.00  0.00     0.048 A 
HETATM    8  C   UNL     1     -22.538  -3.607 -10.364  1.00  0.00     0.101 A 
HETATM    9  C   UNL     1     -21.584  -3.994 -11.309  1.00  0.00     0.099 A 
HETATM   10  C   UNL     1     -20.317  -4.425 -10.910  1.00  0.00     0.040 A 
HETATM   11  C   UNL     1     -20.003  -4.475  -9.547  1.00  0.00     0.012 A 
BRANCH   8  12
HETATM   12  O   UNL     1     -23.756  -3.191 -10.841  1.00  0.00    -0.353 OA
HETATM   13  C   UNL     1     -24.882  -3.408 -10.000  1.00  0.00     0.210 C 
ENDBRANCH   8  12
BRANCH   9  14
HETATM   14  O   UNL     1     -21.900  -3.949 -12.641  1.00  0.00    -0.358 OA
HETATM   15  H   UNL     1     -22.861  -3.867 -12.739  1.00  0.00     0.217 HD
ENDBRANCH   9  14
ENDBRANCH   5   6
ENDBRANCH   1   5
BRANCH   2  16
HETATM   16  C   UNL     1     -21.474  -7.424  -5.451  1.00  0.00     0.103 C 
BRANCH  16  17
HETATM   17  C   UNL     1     -22.169  -6.711  -4.296  1.00  0.00     0.010 C 
BRANCH  17  18
HETATM   18  C   UNL     1     -21.318  -6.705  -3.027  1.00  0.00     0.004 C 
BRANCH  18  19
HETATM   19  C   UNL     1     -22.086  -6.050  -1.879  1.00  0.00     0.027 C 
BRANCH  19  20
HETATM   20  C   UNL     1     -22.416  -7.045  -0.808  1.00  0.00    -0.030 C 
HETATM   21  C   UNL     1     -22.012  -8.325  -0.848  1.00  0.00    -0.027 C 
BRANCH  21  22
HETATM   22  C   UNL     1     -22.370  -9.337   0.210  1.00  0.00    -0.001 C 
HETATM   23  C   UNL     1     -23.476 -10.274  -0.279  1.00  0.00     0.013 C 
HETATM   24  C   UNL     1     -21.141 -10.146   0.620  1.00  0.00     0.013 C 
ENDBRANCH  21  22
ENDBRANCH  19  20
ENDBRANCH  18  19
ENDBRANCH  17  18
ENDBRANCH  16  17
ENDBRANCH   2  16
TORSDOF 10
ENDMDL
MODEL 2
REMARK VINA RESULT:    -8.343      1.290      2.165
REMARK INTER + INTRA:         -13.734
REMARK INTER:                 -12.927
REMARK INTRA:                  -0.806
REMARK UNBOUND:                -0.756
REMARK  10 active torsions:
REMARK  status: ('A' for Active; 'I' for Inactive)
REMARK    1  A    between atoms: O_2  and  C_3 
REMARK    2  A    between atoms: C_5  and  C_6 
REMARK    3  A    between atoms: C_6  and  N_7 
REMARK       I    between atoms: N_7  and  C_8 
REMARK    4  A    between atoms: C_8  and  C_10 
REMARK    5  A    between atoms: C_10  and  C_11 
REMARK    6  A    between atoms: C_11  and  C_12 
REMARK    7  A    between atoms: C_12  and  C_13 
REMARK    8  A    between atoms: C_13  and  C_14 
REMARK    9  A    between atoms: C_15  and  C_16 
REMARK   10  A    between atoms: C_21  and  O_22 
ROOT
HETATM    1  N   UNL     1     -20.289  -5.951  -7.681  1.00  0.00    -0.357 N 
HETATM    2  C   UNL     1     -20.078  -5.777  -6.339  1.00  0.00     0.217 C 
HETATM    3  O   UNL     1     -19.844  -4.677  -5.824  1.00  0.00    -0.274 OA
HETATM    4  H   UNL     1     -20.484  -6.885  -8.022  1.00  0.00     0.162 HD
ENDROOT
BRANCH   1   5
HETATM    5  C   UNL     1     -20.235  -4.838  -8.600  1.00  0.00     0.161 C 
BRANCH   5   6
HETATM    6  C   UNL     1     -21.580  -4.403  -9.141  1.00  0.00    -0.038 A 
HETATM    7  C   UNL     1     -21.832  -4.301 -10.519  1.00  0.00     0.048 A 
HETATM    8  C   UNL     1     -23.096  -3.929 -11.008  1.00  0.00     0.101 A 
HETATM    9  C   UNL     1     -24.118  -3.657 -10.096  1.00  0.00     0.099 A 
HETATM   10  C   UNL     1     -23.895  -3.763  -8.722  1.00  0.00     0.040 A 
HETATM   11  C   UNL     1     -22.632  -4.142  -8.255  1.00  0.00     0.012 A 
BRANCH   8  12
HETATM   12  O   UNL     1     -23.400  -3.806 -12.342  1.00  0.00    -0.353 OA
HETATM   13  C   UNL     1     -22.739  -2.770 -13.057  1.00  0.00     0.210 C 
ENDBRANCH   8  12
BRANCH   9  14
HETATM   14  O   UNL     1     -25.351  -3.280 -10.560  1.00  0.00    -0.358 OA
HETATM   15  H   UNL     1     -25.502  -2.348 -10.344  1.00  0.00     0.217 HD
ENDBRANCH   9  14
ENDBRANCH   5   6
ENDBRANCH   1   5
BRANCH   2  16
HETATM   16  C   UNL     1     -20.158  -7.061  -5.543  1.00  0.00     0.103 C 
BRANCH  16  17
HETATM   17  C   UNL     1     -21.606  -7.457  -5.276  1.00  0.00     0.010 C 
BRANCH  17  18
HETATM   18  C   UNL     1     -22.250  -6.589  -4.195  1.00  0.00     0.004 C 
BRANCH  18  19
HETATM   19  C   UNL     1     -21.295  -6.419  -3.014  1.00  0.00     0.027 C 
BRANCH  19  20
HETATM   20  C   UNL     1     -21.600  -7.399  -1.923  1.00  0.00    -0.030 C 
HETATM   21  C   UNL     1     -22.352  -7.094  -0.853  1.00  0.00    -0.027 C 
BRANCH  21  22
HETATM   22  C   UNL     1     -22.633  -8.067   0.263  1.00  0.00    -0.001 C 
HETATM   23  C   UNL     1     -23.149  -9.398  -0.286  1.00  0.00     0.013 C 
HETATM   24  C   UNL     1     -21.380  -8.298   1.105  1.00  0.00     0.013 C 
ENDBRANCH  21  22
ENDBRANCH  19  20
ENDBRANCH  18  19
ENDBRANCH  17  18
ENDBRANCH  16  17
ENDBRANCH   2  16
TORSDOF 10
ENDMDL
MODEL 3
REMARK VINA RESULT:    -8.188      1.530      2.450
REMARK INTER + INTRA:         -13.492
REMARK INTER:                 -12.899
REMARK INTRA:                  -0.593
REMARK UNBOUND:                -0.756
REMARK  10 active torsions:
REMARK  status: ('A' for Active; 'I' for Inactive)
REMARK    1  A    between atoms: O_2  and  C_3 
REMARK    2  A    between atoms: C_5  and  C_6 
REMARK    3  A    between atoms: C_6  and  N_7 
REMARK       I    between atoms: N_7  and  C_8 
REMARK    4  A    between atoms: C_8  and  C_10 
REMARK    5  A    between atoms: C_10  and  C_11 
REMARK    6  A    between atoms: C_11  and  C_12 
REMARK    7  A    between atoms: C_12  and  C_13 
REMARK    8  A    between atoms: C_13  and  C_14 
REMARK    9  A    between atoms: C_15  and  C_16 
REMARK   10  A    between atoms: C_21  and  O_22 
ROOT
HETATM    1  N   UNL     1     -20.768  -4.760  -7.892  1.00  0.00    -0.357 N 
HETATM    2  C   UNL     1     -19.703  -4.718  -7.032  1.00  0.00     0.217 C 
HETATM    3  O   UNL     1     -18.558  -4.407  -7.382  1.00  0.00    -0.274 OA
HETATM    4  H   UNL     1     -21.676  -5.015  -7.523  1.00  0.00     0.162 HD
ENDROOT
BRANCH   1   5
HETATM    5  C   UNL     1     -20.613  -4.453  -9.295  1.00  0.00     0.161 C 
BRANCH   5   6
HETATM    6  C   UNL     1     -21.890  -4.034  -9.991  1.00  0.00    -0.038 A 
HETATM    7  C   UNL     1     -21.880  -3.319 -11.200  1.00  0.00     0.048 A 
HETATM    8  C   UNL     1     -23.072  -2.966 -11.854  1.00  0.00     0.101 A 
HETATM    9  C   UNL     1     -24.290  -3.339 -11.282  1.00  0.00     0.099 A 
HETATM   10  C   UNL     1     -24.326  -4.062 -10.087  1.00  0.00     0.040 A 
HETATM   11  C   UNL     1     -23.127  -4.410  -9.455  1.00  0.00     0.012 A 
BRANCH   8  12
HETATM   12  O   UNL     1     -23.126  -2.262 -13.032  1.00  0.00    -0.353 OA
HETATM   13  C   UNL     1     -22.827  -2.981 -14.222  1.00  0.00     0.210 C 
ENDBRANCH   8  12
BRANCH   9  14
HETATM   14  O   UNL     1     -25.460  -2.989 -11.902  1.00  0.00    -0.358 OA
HETATM   15  H   UNL     1     -25.960  -3.790 -12.119  1.00  0.00     0.217 HD
ENDBRANCH   9  14
ENDBRANCH   5   6
ENDBRANCH   1   5
BRANCH   2  16
HETATM   16  C   UNL     1     -20.060  -5.087  -5.609  1.00  0.00     0.103 C 
BRANCH  16  17
HETATM   17  C   UNL     1     -21.366  -5.871  -5.551  1.00  0.00     0.010 C 
BRANCH  17  18
HETATM   18  C   UNL     1     -21.392  -6.863  -4.389  1.00  0.00     0.004 C 
BRANCH  18  19
HETATM   19  C   UNL     1     -21.504  -6.117  -3.060  1.00  0.00     0.027 C 
BRANCH  19  20
HETATM   20  C   UNL     1     -21.513  -7.068  -1.902  1.00  0.00    -0.030 C 
HETATM   21  C   UNL     1     -22.312  -6.914  -0.834  1.00  0.00    -0.027 C 
BRANCH  21  22
HETATM   22  C   UNL     1     -22.300  -7.850   0.348  1.00  0.00    -0.001 C 
HETATM   23  C   UNL     1     -23.532  -8.757   0.342  1.00  0.00     0.013 C 
HETATM   24  C   UNL     1     -21.027  -8.695   0.353  1.00  0.00     0.013 C 
ENDBRANCH  21  22
ENDBRANCH  19  20
ENDBRANCH  18  19
ENDBRANCH  17  18
ENDBRANCH  16  17
ENDBRANCH   2  16
TORSDOF 10
ENDMDL
MODEL 4
REMARK VINA RESULT:    -7.747      1.043      1.520
REMARK INTER + INTRA:         -12.806
REMARK INTER:                 -12.056
REMARK INTRA:                  -0.750
REMARK UNBOUND:                -0.756
REMARK  10 active torsions:
REMARK  status: ('A' for Active; 'I' for Inactive)
REMARK    1  A    between atoms: O_2  and  C_3 
REMARK    2  A    between atoms: C_5  and  C_6 
REMARK    3  A    between atoms: C_6  and  N_7 
REMARK       I    between atoms: N_7  and  C_8 
REMARK    4  A    between atoms: C_8  and  C_10 
REMARK    5  A    between atoms: C_10  and  C_11 
REMARK    6  A    between atoms: C_11  and  C_12 
REMARK    7  A    between atoms: C_12  and  C_13 
REMARK    8  A    between atoms: C_13  and  C_14 
REMARK    9  A    between atoms: C_15  and  C_16 
REMARK   10  A    between atoms: C_21  and  O_22 
ROOT
HETATM    1  N   UNL     1     -21.267  -5.236  -6.364  1.00  0.00    -0.357 N 
HETATM    2  C   UNL     1     -20.663  -6.464  -6.367  1.00  0.00     0.217 C 
HETATM    3  O   UNL     1     -19.601  -6.699  -6.958  1.00  0.00    -0.274 OA
HETATM    4  H   UNL     1     -22.132  -5.125  -5.847  1.00  0.00     0.162 HD
ENDROOT
BRANCH   1   5
HETATM    5  C   UNL     1     -20.701  -4.118  -7.081  1.00  0.00     0.161 C 
BRANCH   5   6
HETATM    6  C   UNL     1     -21.047  -4.074  -8.553  1.00  0.00    -0.038 A 
HETATM    7  C   UNL     1     -22.319  -3.689  -9.010  1.00  0.00     0.048 A 
HETATM    8  C   UNL     1     -22.618  -3.620 -10.380  1.00  0.00     0.101 A 
HETATM    9  C   UNL     1     -21.620  -3.942 -11.304  1.00  0.00     0.099 A 
HETATM   10  C   UNL     1     -20.345  -4.315 -10.876  1.00  0.00     0.040 A 
HETATM   11  C   UNL     1     -20.065  -4.371  -9.506  1.00  0.00     0.012 A 
BRANCH   8  12
HETATM   12  O   UNL     1     -23.842  -3.257 -10.885  1.00  0.00    -0.353 OA
HETATM   13  C   UNL     1     -24.948  -3.323  -9.994  1.00  0.00     0.210 C 
ENDBRANCH   8  12
BRANCH   9  14
HETATM   14  O   UNL     1     -21.902  -3.892 -12.644  1.00  0.00    -0.358 OA
HETATM   15  H   UNL     1     -22.344  -3.054 -12.846  1.00  0.00     0.217 HD
ENDBRANCH   9  14
ENDBRANCH   5   6
ENDBRANCH   1   5
BRANCH   2  16
HETATM   16  C   UNL     1     -21.415  -7.511  -5.576  1.00  0.00     0.103 C 
BRANCH  16  17
HETATM   17  C   UNL     1     -20.855  -7.645  -4.163  1.00  0.00     0.010 C 
BRANCH  17  18
HETATM   18  C   UNL     1     -19.691  -8.634  -4.097  1.00  0.00     0.004 C 
BRANCH  18  19
HETATM   19  C   UNL     1     -19.432  -9.048  -2.648  1.00  0.00     0.027 C 
BRANCH  19  20
HETATM   20  C   UNL     1     -20.509  -8.543  -1.738  1.00  0.00    -0.030 C 
HETATM   21  C   UNL     1     -21.109  -9.313  -0.815  1.00  0.00    -0.027 C 
BRANCH  21  22
HETATM   22  C   UNL     1     -22.216  -8.818   0.079  1.00  0.00    -0.001 C 
HETATM   23  C   UNL     1     -22.602  -7.379  -0.270  1.00  0.00     0.013 C 
HETATM   24  C   UNL     1     -23.439  -9.727  -0.023  1.00  0.00     0.013 C 
ENDBRANCH  21  22
ENDBRANCH  19  20
ENDBRANCH  18  19
ENDBRANCH  17  18
ENDBRANCH  16  17
ENDBRANCH   2  16
TORSDOF 10
ENDMDL
MODEL 5
REMARK VINA RESULT:    -7.661      2.870      9.694
REMARK INTER + INTRA:         -12.672
REMARK INTER:                 -11.907
REMARK INTRA:                  -0.765
REMARK UNBOUND:                -0.756
REMARK  10 active torsions:
REMARK  status: ('A' for Active; 'I' for Inactive)
REMARK    1  A    between atoms: O_2  and  C_3 
REMARK    2  A    between atoms: C_5  and  C_6 
REMARK    3  A    between atoms: C_6  and  N_7 
REMARK       I    between atoms: N_7  and  C_8 
REMARK    4  A    between atoms: C_8  and  C_10 
REMARK    5  A    between atoms: C_10  and  C_11 
REMARK    6  A    between atoms: C_11  and  C_12 
REMARK    7  A    between atoms: C_12  and  C_13 
REMARK    8  A    between atoms: C_13  and  C_14 
REMARK    9  A    between atoms: C_15  and  C_16 
REMARK   10  A    between atoms: C_21  and  O_22 
ROOT
HETATM    1  N   UNL     1     -21.297  -6.208  -3.589  1.00  0.00    -0.357 N 
HETATM    2  C   UNL     1     -21.913  -6.229  -4.811  1.00  0.00     0.217 C 
HETATM    3  O   UNL     1     -23.143  -6.252  -4.952  1.00  0.00    -0.274 OA
HETATM    4  H   UNL     1     -20.284  -6.180  -3.560  1.00  0.00     0.162 HD
ENDROOT
BRANCH   1   5
HETATM    5  C   UNL     1     -22.058  -6.229  -2.362  1.00  0.00     0.161 C 
BRANCH   5   6
HETATM    6  C   UNL     1     -21.772  -7.412  -1.464  1.00  0.00    -0.038 A 
HETATM    7  C   UNL     1     -20.921  -8.459  -1.857  1.00  0.00     0.048 A 
HETATM    8  C   UNL     1     -20.636  -9.535  -1.001  1.00  0.00     0.101 A 
HETATM    9  C   UNL     1     -21.217  -9.557   0.270  1.00  0.00     0.099 A 
HETATM   10  C   UNL     1     -22.056  -8.522   0.689  1.00  0.00     0.040 A 
HETATM   11  C   UNL     1     -22.321  -7.455  -0.177  1.00  0.00     0.012 A 
BRANCH   8  12
HETATM   12  O   UNL     1     -19.819 -10.588  -1.331  1.00  0.00    -0.353 OA
HETATM   13  C   UNL     1     -20.325 -11.519  -2.280  1.00  0.00     0.210 C 
ENDBRANCH   8  12
BRANCH   9  14
HETATM   14  O   UNL     1     -20.958 -10.607   1.110  1.00  0.00    -0.358 OA
HETATM   15  H   UNL     1     -21.174 -11.438   0.659  1.00  0.00     0.217 HD
ENDBRANCH   9  14
ENDBRANCH   5   6
ENDBRANCH   1   5
BRANCH   2  16
HETATM   16  C   UNL     1     -20.949  -6.220  -5.976  1.00  0.00     0.103 C 
BRANCH  16  17
HETATM   17  C   UNL     1     -20.176  -4.907  -6.045  1.00  0.00     0.010 C 
BRANCH  17  18
HETATM   18  C   UNL     1     -20.683  -3.998  -7.164  1.00  0.00     0.004 C 
BRANCH  18  19
HETATM   19  C   UNL     1     -19.663  -3.942  -8.301  1.00  0.00     0.027 C 
BRANCH  19  20
HETATM   20  C   UNL     1     -20.334  -4.036  -9.637  1.00  0.00    -0.030 C 
HETATM   21  C   UNL     1     -21.659  -4.191  -9.783  1.00  0.00    -0.027 C 
BRANCH  21  22
HETATM   22  C   UNL     1     -22.334  -4.321 -11.125  1.00  0.00    -0.001 C 
HETATM   23  C   UNL     1     -23.753  -4.871 -10.975  1.00  0.00     0.013 C 
HETATM   24  C   UNL     1     -22.368  -2.973 -11.843  1.00  0.00     0.013 C 
ENDBRANCH  21  22
ENDBRANCH  19  20
ENDBRANCH  18  19
ENDBRANCH  17  18
ENDBRANCH  16  17
ENDBRANCH   2  16
TORSDOF 10
ENDMDL
