MODEL 1
REMARK VINA RESULT:     -10.3      0.000      0.000
REMARK  11 active torsions:
REMARK  status: ('A' for Active; 'I' for Inactive)
REMARK    1  A    between atoms: C_2  and  C_4 
REMARK    2  A    between atoms: C_10  and  C_11 
REMARK    3  A    between atoms: C_11  and  C_12 
REMARK    4  A    between atoms: C_22  and  C_23 
REMARK    5  A    between atoms: C_23  and  O_24 
REMARK    6  A    between atoms: O_24  and  C_25 
REMARK    7  A    between atoms: C_25  and  C_27 
REMARK    8  A    between atoms: C_27  and  C_28 
REMARK    9  A    between atoms: C_31  and  O_32 
REMARK   10  A    between atoms: C_33  and  O_34 
REMARK   11  A    between atoms: C_38  and  O_39 
ROOT
HETATM    1  C   UNL     1     -20.107 -12.638  -4.945  1.00  0.00     0.153 A 
HETATM    2  C   UNL     1     -21.156 -12.616  -3.482  1.00  0.00     0.057 C 
HETATM    3  C   UNL     1     -21.330 -11.232  -2.779  1.00  0.00     0.021 C 
HETATM    4  C   UNL     1     -20.109 -11.301  -1.734  1.00  0.00     0.013 C 
HETATM    5  C   UNL     1     -21.348  -9.899  -3.807  1.00  0.00     0.086 C 
HETATM    6  O   UNL     1     -20.187 -10.575  -4.054  1.00  0.00    -0.326 OA
HETATM    7  C   UNL     1     -20.510 -11.538  -5.406  1.00  0.00     0.210 A 
HETATM    8  O   UNL     1     -21.304 -11.042  -6.518  1.00  0.00    -0.325 OA
HETATM    9  C   UNL     1     -20.058 -10.868  -6.155  1.00  0.00     0.226 A 
HETATM   10  C   UNL     1     -20.807  -9.380  -5.324  1.00  0.00     0.082 C 
HETATM   11  C   UNL     1     -19.902  -8.167  -5.331  1.00  0.00    -0.011 C 
HETATM   12  C   UNL     1     -20.539  -6.978  -5.273  1.00  0.00    -0.056 C 
HETATM   13  C   UNL     1     -20.562  -6.424  -3.873  1.00  0.00     0.082 C 
HETATM   14  C   UNL     1     -21.680  -7.156  -3.105  1.00  0.00     0.128 C 
HETATM   15  C   UNL     1     -21.698  -6.590  -1.689  1.00  0.00     0.165 C 
HETATM   16  O   UNL     1     -21.869  -5.416  -1.407  1.00  0.00    -0.294 OA
HETATM   17  C   UNL     1     -21.674  -7.663  -0.648  1.00  0.00     0.055 C 
HETATM   18  C   UNL     1     -23.092  -7.817  -0.138  1.00  0.00     0.018 C 
HETATM   19  C   UNL     1     -21.059  -8.629  -1.375  1.00  0.00     0.023 C 
HETATM   20  C   UNL     1     -21.587  -8.681  -2.806  1.00  0.00     0.065 C 
HETATM   21  O   UNL     1     -21.270 -12.733  -5.559  1.00  0.00    -0.316 OA
ENDROOT
BRANCH  12  22
HETATM   22  C   UNL     1     -21.750  -6.560  -6.094  1.00  0.00     0.212 C 
BRANCH  22  23
HETATM   23  O   UNL     1     -21.982  -5.162  -5.959  1.00  0.00    -0.317 OA
BRANCH  23  24
HETATM   24  C   UNL     1     -21.407  -4.395  -6.926  1.00  0.00     0.263 C 
HETATM   25  O   UNL     1     -21.165  -3.197  -6.838  1.00  0.00    -0.265 OA
BRANCH  24  26
HETATM   26  C   UNL     1     -21.112  -5.238  -8.136  1.00  0.00     0.149 C 
BRANCH  26  27
HETATM   27  C   UNL     1     -21.446  -4.550  -9.432  1.00  0.00    -0.046 A 
HETATM   28  C   UNL     1     -20.471  -4.377 -10.423  1.00  0.00     0.010 A 
HETATM   29  C   UNL     1     -20.789  -3.755 -11.628  1.00  0.00     0.040 A 
HETATM   30  C   UNL     1     -22.094  -3.314 -11.865  1.00  0.00     0.099 A 
HETATM   31  C   UNL     1     -23.088  -3.494 -10.897  1.00  0.00     0.101 A 
HETATM   32  C   UNL     1     -22.748  -4.090  -9.678  1.00  0.00     0.047 A 
BRANCH  30  33
HETATM   33  O   UNL     1     -22.362  -2.688 -13.050  1.00  0.00    -0.358 OA
HETATM   34  H   UNL     1     -21.525  -2.533 -13.518  1.00  0.00     0.217 HD
ENDBRANCH  30  33
BRANCH  31  35
HETATM   35  O   UNL     1     -24.398  -3.104 -10.977  1.00  0.00    -0.353 OA
HETATM   36  C   UNL     1     -25.153  -3.202  -9.775  1.00  0.00     0.210 C 
ENDBRANCH  31  35
ENDBRANCH  26  27
ENDBRANCH  24  26
ENDBRANCH  23  24
ENDBRANCH  22  23
ENDBRANCH  12  22
BRANCH  14  37
HETATM   37  O   UNL     1     -22.988  -6.861  -3.625  1.00  0.00    -0.381 OA
HETATM   38  H   UNL     1     -22.907  -6.028  -4.133  1.00  0.00     0.211 HD
ENDBRANCH  14  37
BRANCH   1  39
HETATM   39  C   UNL     1     -19.619 -14.125  -5.084  1.00  0.00    -0.052 C 
HETATM   40  C   UNL     1     -19.062 -14.884  -4.126  1.00  0.00     0.017 C 
HETATM   41  C   UNL     1     -20.049 -14.874  -6.358  1.00  0.00     0.046 C 
ENDBRANCH   1  39
BRANCH   7  42
HETATM   42  C   UNL     1     -18.455 -11.417  -5.192  1.00  0.00     0.130 C 
BRANCH  42  43
HETATM   43  C   UNL     1     -17.506 -10.990  -4.087  1.00  0.00    -0.051 A 
HETATM   44  C   UNL     1     -17.174  -9.688  -3.729  1.00  0.00     0.007 A 
HETATM   45  C   UNL     1     -16.202  -9.477  -2.736  1.00  0.00     0.001 A 
HETATM   46  C   UNL     1     -15.577 -10.544  -2.084  1.00  0.00     0.000 A 
HETATM   47  C   UNL     1     -15.912 -11.849  -2.420  1.00  0.00     0.001 A 
HETATM   48  C   UNL     1     -16.860 -12.059  -3.414  1.00  0.00     0.007 A 
ENDBRANCH  42  43
ENDBRANCH   7  42
TORSDOF 11
ENDMDL
MODEL 2
REMARK VINA RESULT:     -10.2      1.527      1.907
REMARK  11 active torsions:
REMARK  status: ('A' for Active; 'I' for Inactive)
REMARK    1  A    between atoms: C_2  and  C_4 
REMARK    2  A    between atoms: C_10  and  C_11 
REMARK    3  A    between atoms: C_11  and  C_12 
REMARK    4  A    between atoms: C_22  and  C_23 
REMARK    5  A    between atoms: C_23  and  O_24 
REMARK    6  A    between atoms: O_24  and  C_25 
REMARK    7  A    between atoms: C_25  and  C_27 
REMARK    8  A    between atoms: C_27  and  C_28 
REMARK    9  A    between atoms: C_31  and  O_32 
REMARK   10  A    between atoms: C_33  and  O_34 
REMARK   11  A    between atoms: C_38  and  O_39 
ROOT
HETATM    1  C   UNL     1     -18.673 -13.052  -3.749  1.00  0.00     0.153 A 
HETATM    2  C   UNL     1     -19.856 -13.054  -2.392  1.00  0.00     0.057 C 
HETATM    3  C   UNL     1     -20.362 -11.655  -1.917  1.00  0.00     0.021 C 
HETATM    4  C   UNL     1     -19.269 -11.341  -0.779  1.00  0.00     0.013 C 
HETATM    5  C   UNL     1     -20.522 -10.495  -3.127  1.00  0.00     0.086 C 
HETATM    6  O   UNL     1     -19.234 -10.950  -3.180  1.00  0.00    -0.326 OA
HETATM    7  C   UNL     1     -19.224 -12.124  -4.397  1.00  0.00     0.210 A 
HETATM    8  O   UNL     1     -19.974 -11.945  -5.628  1.00  0.00    -0.325 OA
HETATM    9  C   UNL     1     -18.830 -11.478  -5.198  1.00  0.00     0.226 A 
HETATM   10  C   UNL     1     -19.930 -10.078  -4.656  1.00  0.00     0.082 C 
HETATM   11  C   UNL     1     -19.275  -8.718  -4.769  1.00  0.00    -0.011 C 
HETATM   12  C   UNL     1     -20.127  -7.685  -4.937  1.00  0.00    -0.056 C 
HETATM   13  C   UNL     1     -20.404  -6.971  -3.641  1.00  0.00     0.082 C 
HETATM   14  C   UNL     1     -21.439  -7.809  -2.864  1.00  0.00     0.128 C 
HETATM   15  C   UNL     1     -21.714  -7.082  -1.553  1.00  0.00     0.165 C 
HETATM   16  O   UNL     1     -22.133  -5.940  -1.461  1.00  0.00    -0.294 OA
HETATM   17  C   UNL     1     -21.600  -7.985  -0.367  1.00  0.00     0.055 C 
HETATM   18  C   UNL     1     -23.009  -8.355   0.046  1.00  0.00     0.018 C 
HETATM   19  C   UNL     1     -20.739  -8.892  -0.893  1.00  0.00     0.023 C 
HETATM   20  C   UNL     1     -21.092  -9.233  -2.338  1.00  0.00     0.065 C 
HETATM   21  O   UNL     1     -19.724 -13.457  -4.432  1.00  0.00    -0.316 OA
ENDROOT
BRANCH  12  22
HETATM   22  C   UNL     1     -21.301  -7.629  -5.905  1.00  0.00     0.212 C 
BRANCH  22  23
HETATM   23  O   UNL     1     -21.089  -6.617  -6.884  1.00  0.00    -0.317 OA
BRANCH  23  24
HETATM   24  C   UNL     1     -21.697  -5.430  -6.614  1.00  0.00     0.263 C 
HETATM   25  O   UNL     1     -22.735  -5.286  -5.978  1.00  0.00    -0.265 OA
BRANCH  24  26
HETATM   26  C   UNL     1     -20.906  -4.303  -7.220  1.00  0.00     0.149 C 
BRANCH  26  27
HETATM   27  C   UNL     1     -21.140  -4.146  -8.699  1.00  0.00    -0.046 A 
HETATM   28  C   UNL     1     -20.124  -4.435  -9.618  1.00  0.00     0.010 A 
HETATM   29  C   UNL     1     -20.350  -4.305 -10.986  1.00  0.00     0.040 A 
HETATM   30  C   UNL     1     -21.603  -3.901 -11.453  1.00  0.00     0.099 A 
HETATM   31  C   UNL     1     -22.638  -3.625 -10.553  1.00  0.00     0.101 A 
HETATM   32  C   UNL     1     -22.388  -3.728  -9.180  1.00  0.00     0.047 A 
BRANCH  30  33
HETATM   33  O   UNL     1     -21.780  -3.764 -12.802  1.00  0.00    -0.358 OA
HETATM   34  H   UNL     1     -21.482  -2.878 -13.067  1.00  0.00     0.217 HD
ENDBRANCH  30  33
BRANCH  31  35
HETATM   35  O   UNL     1     -23.907  -3.207 -10.856  1.00  0.00    -0.353 OA
HETATM   36  C   UNL     1     -24.877  -3.362  -9.827  1.00  0.00     0.210 C 
ENDBRANCH  31  35
ENDBRANCH  26  27
ENDBRANCH  24  26
ENDBRANCH  23  24
ENDBRANCH  22  23
ENDBRANCH  12  22
BRANCH  14  37
HETATM   37  O   UNL     1     -22.716  -7.854  -3.525  1.00  0.00    -0.381 OA
HETATM   38  H   UNL     1     -22.624  -7.332  -4.348  1.00  0.00     0.211 HD
ENDBRANCH  14  37
BRANCH   1  39
HETATM   39  C   UNL     1     -17.901 -14.415  -3.628  1.00  0.00    -0.052 C 
HETATM   40  C   UNL     1     -17.654 -15.293  -4.613  1.00  0.00     0.017 C 
HETATM   41  C   UNL     1     -17.130 -14.655  -2.317  1.00  0.00     0.046 C 
ENDBRANCH   1  39
BRANCH   7  42
HETATM   42  C   UNL     1     -17.264 -11.565  -4.040  1.00  0.00     0.130 C 
BRANCH  42  43
HETATM   43  C   UNL     1     -15.924 -11.835  -4.700  1.00  0.00    -0.051 A 
HETATM   44  C   UNL     1     -15.657 -11.869  -6.064  1.00  0.00     0.007 A 
HETATM   45  C   UNL     1     -14.370 -12.227  -6.502  1.00  0.00     0.001 A 
HETATM   46  C   UNL     1     -13.346 -12.528  -5.598  1.00  0.00     0.000 A 
HETATM   47  C   UNL     1     -13.595 -12.481  -4.233  1.00  0.00     0.001 A 
HETATM   48  C   UNL     1     -14.871 -12.144  -3.799  1.00  0.00     0.007 A 
ENDBRANCH  42  43
ENDBRANCH   7  42
TORSDOF 11
ENDMDL
MODEL 3
REMARK VINA RESULT:     -10.1      1.680      2.572
REMARK  11 active torsions:
REMARK  status: ('A' for Active; 'I' for Inactive)
REMARK    1  A    between atoms: C_2  and  C_4 
REMARK    2  A    between atoms: C_10  and  C_11 
REMARK    3  A    between atoms: C_11  and  C_12 
REMARK    4  A    between atoms: C_22  and  C_23 
REMARK    5  A    between atoms: C_23  and  O_24 
REMARK    6  A    between atoms: O_24  and  C_25 
REMARK    7  A    between atoms: C_25  and  C_27 
REMARK    8  A    between atoms: C_27  and  C_28 
REMARK    9  A    between atoms: C_31  and  O_32 
REMARK   10  A    between atoms: C_33  and  O_34 
REMARK   11  A    between atoms: C_38  and  O_39 
ROOT
HETATM    1  C   UNL     1     -19.449 -12.391  -6.124  1.00  0.00     0.153 A 
HETATM    2  C   UNL     1     -20.231 -13.450  -4.896  1.00  0.00     0.057 C 
HETATM    3  C   UNL     1     -20.400 -12.841  -3.468  1.00  0.00     0.021 C 
HETATM    4  C   UNL     1     -19.017 -13.323  -2.800  1.00  0.00     0.013 C 
HETATM    5  C   UNL     1     -20.706 -11.187  -3.420  1.00  0.00     0.086 C 
HETATM    6  O   UNL     1     -19.551 -11.356  -4.130  1.00  0.00    -0.326 OA
HETATM    7  C   UNL     1     -20.017 -11.330  -5.755  1.00  0.00     0.210 A 
HETATM    8  O   UNL     1     -21.028 -10.404  -6.239  1.00  0.00    -0.325 OA
HETATM    9  C   UNL     1     -19.758 -10.276  -5.948  1.00  0.00     0.226 A 
HETATM   10  C   UNL     1     -20.478  -9.765  -4.309  1.00  0.00     0.082 C 
HETATM   11  C   UNL     1     -19.694  -8.667  -3.622  1.00  0.00    -0.011 C 
HETATM   12  C   UNL     1     -20.410  -7.895  -2.778  1.00  0.00    -0.056 C 
HETATM   13  C   UNL     1     -20.242  -8.327  -1.346  1.00  0.00     0.082 C 
HETATM   14  C   UNL     1     -21.146  -9.556  -1.124  1.00  0.00     0.128 C 
HETATM   15  C   UNL     1     -20.970  -9.988   0.328  1.00  0.00     0.165 C 
HETATM   16  O   UNL     1     -21.190  -9.283   1.299  1.00  0.00    -0.294 OA
HETATM   17  C   UNL     1     -20.678 -11.449   0.454  1.00  0.00     0.055 C 
HETATM   18  C   UNL     1     -21.970 -12.125   0.864  1.00  0.00     0.018 C 
HETATM   19  C   UNL     1     -20.116 -11.644  -0.764  1.00  0.00     0.023 C 
HETATM   20  C   UNL     1     -20.874 -10.900  -1.861  1.00  0.00     0.065 C 
HETATM   21  O   UNL     1     -20.687 -12.290  -6.566  1.00  0.00    -0.316 OA
ENDROOT
BRANCH  12  22
HETATM   22  C   UNL     1     -21.775  -7.280  -3.053  1.00  0.00     0.212 C 
BRANCH  22  23
HETATM   23  O   UNL     1     -21.630  -6.017  -3.693  1.00  0.00    -0.317 OA
BRANCH  23  24
HETATM   24  C   UNL     1     -21.478  -6.080  -5.045  1.00  0.00     0.263 C 
HETATM   25  O   UNL     1     -21.916  -6.963  -5.773  1.00  0.00    -0.265 OA
BRANCH  24  26
HETATM   26  C   UNL     1     -20.680  -4.897  -5.523  1.00  0.00     0.149 C 
BRANCH  26  27
HETATM   27  C   UNL     1     -20.840  -4.633  -6.996  1.00  0.00    -0.046 A 
HETATM   28  C   UNL     1     -19.804  -4.925  -7.892  1.00  0.00     0.010 A 
HETATM   29  C   UNL     1     -19.963  -4.695  -9.256  1.00  0.00     0.040 A 
HETATM   30  C   UNL     1     -21.169  -4.188  -9.745  1.00  0.00     0.099 A 
HETATM   31  C   UNL     1     -22.225  -3.907  -8.870  1.00  0.00     0.101 A 
HETATM   32  C   UNL     1     -22.041  -4.111  -7.498  1.00  0.00     0.047 A 
BRANCH  30  33
HETATM   33  O   UNL     1     -21.279  -3.955 -11.088  1.00  0.00    -0.358 OA
HETATM   34  H   UNL     1     -21.315  -4.808 -11.550  1.00  0.00     0.217 HD
ENDBRANCH  30  33
BRANCH  31  35
HETATM   35  O   UNL     1     -23.453  -3.395  -9.195  1.00  0.00    -0.353 OA
HETATM   36  C   UNL     1     -24.399  -4.324  -9.711  1.00  0.00     0.210 C 
ENDBRANCH  31  35
ENDBRANCH  26  27
ENDBRANCH  24  26
ENDBRANCH  23  24
ENDBRANCH  22  23
ENDBRANCH  12  22
BRANCH  14  37
HETATM   37  O   UNL     1     -22.544  -9.236  -1.236  1.00  0.00    -0.381 OA
HETATM   38  H   UNL     1     -22.674  -8.381  -0.778  1.00  0.00     0.211 HD
ENDBRANCH  14  37
BRANCH   1  39
HETATM   39  C   UNL     1     -18.867 -13.370  -7.206  1.00  0.00    -0.052 C 
HETATM   40  C   UNL     1     -18.033 -14.401  -6.997  1.00  0.00     0.017 C 
HETATM   41  C   UNL     1     -19.509 -13.309  -8.604  1.00  0.00     0.046 C 
ENDBRANCH   1  39
BRANCH   7  42
HETATM   42  C   UNL     1     -17.974 -11.012  -5.677  1.00  0.00     0.130 C 
BRANCH  42  43
HETATM   43  C   UNL     1     -16.878 -11.258  -4.655  1.00  0.00    -0.051 A 
HETATM   44  C   UNL     1     -16.078 -12.390  -4.546  1.00  0.00     0.007 A 
HETATM   45  C   UNL     1     -15.170 -12.486  -3.477  1.00  0.00     0.001 A 
HETATM   46  C   UNL     1     -15.038 -11.463  -2.534  1.00  0.00     0.000 A 
HETATM   47  C   UNL     1     -15.819 -10.320  -2.642  1.00  0.00     0.001 A 
HETATM   48  C   UNL     1     -16.728 -10.230  -3.688  1.00  0.00     0.007 A 
ENDBRANCH  42  43
ENDBRANCH   7  42
TORSDOF 11
ENDMDL
MODEL 4
REMARK VINA RESULT:      -9.7      2.056      3.461
REMARK  11 active torsions:
REMARK  status: ('A' for Active; 'I' for Inactive)
REMARK    1  A    between atoms: C_2  and  C_4 
REMARK    2  A    between atoms: C_10  and  C_11 
REMARK    3  A    between atoms: C_11  and  C_12 
REMARK    4  A    between atoms: C_22  and  C_23 
REMARK    5  A    between atoms: C_23  and  O_24 
REMARK    6  A    between atoms: O_24  and  C_25 
REMARK    7  A    between atoms: C_25  and  C_27 
REMARK    8  A    between atoms: C_27  and  C_28 
REMARK    9  A    between atoms: C_31  and  O_32 
REMARK   10  A    between atoms: C_33  and  O_34 
REMARK   11  A    between atoms: C_38  and  O_39 
ROOT
HETATM    1  C   UNL     1     -16.770 -11.895  -5.772  1.00  0.00     0.153 A 
HETATM    2  C   UNL     1     -17.958 -13.244  -5.663  1.00  0.00     0.057 C 
HETATM    3  C   UNL     1     -19.078 -13.091  -4.585  1.00  0.00     0.021 C 
HETATM    4  C   UNL     1     -18.358 -13.809  -3.339  1.00  0.00     0.013 C 
HETATM    5  C   UNL     1     -19.616 -11.517  -4.321  1.00  0.00     0.086 C 
HETATM    6  O   UNL     1     -18.262 -11.511  -4.133  1.00  0.00    -0.326 OA
HETATM    7  C   UNL     1     -17.610 -10.973  -5.598  1.00  0.00     0.210 A 
HETATM    8  O   UNL     1     -18.234  -9.904  -6.358  1.00  0.00    -0.325 OA
HETATM    9  C   UNL     1     -17.466  -9.923  -5.298  1.00  0.00     0.226 A 
HETATM   10  C   UNL     1     -19.122  -9.904  -4.448  1.00  0.00     0.082 C 
HETATM   11  C   UNL     1     -19.133  -9.100  -3.166  1.00  0.00    -0.011 C 
HETATM   12  C   UNL     1     -20.334  -8.591  -2.819  1.00  0.00    -0.056 C 
HETATM   13  C   UNL     1     -21.027  -9.444  -1.790  1.00  0.00     0.082 C 
HETATM   14  C   UNL     1     -21.653 -10.644  -2.529  1.00  0.00     0.128 C 
HETATM   15  C   UNL     1     -22.351 -11.503  -1.481  1.00  0.00     0.165 C 
HETATM   16  O   UNL     1     -23.242 -11.118  -0.741  1.00  0.00    -0.294 OA
HETATM   17  C   UNL     1     -21.966 -12.944  -1.579  1.00  0.00     0.055 C 
HETATM   18  C   UNL     1     -23.097 -13.658  -2.289  1.00  0.00     0.018 C 
HETATM   19  C   UNL     1     -20.745 -12.783  -2.146  1.00  0.00     0.023 C 
HETATM   20  C   UNL     1     -20.763 -11.711  -3.231  1.00  0.00     0.065 C 
HETATM   21  O   UNL     1     -17.458 -11.614  -6.860  1.00  0.00    -0.316 OA
ENDROOT
BRANCH  12  22
HETATM   22  C   UNL     1     -21.307  -7.865  -3.737  1.00  0.00     0.212 C 
BRANCH  22  23
HETATM   23  O   UNL     1     -20.784  -6.596  -4.111  1.00  0.00    -0.317 OA
BRANCH  23  24
HETATM   24  C   UNL     1     -20.679  -6.398  -5.454  1.00  0.00     0.263 C 
HETATM   25  O   UNL     1     -20.675  -7.277  -6.308  1.00  0.00    -0.265 OA
BRANCH  24  26
HETATM   26  C   UNL     1     -20.563  -4.926  -5.744  1.00  0.00     0.149 C 
BRANCH  26  27
HETATM   27  C   UNL     1     -20.797  -4.589  -7.192  1.00  0.00    -0.046 A 
HETATM   28  C   UNL     1     -19.767  -4.719  -8.132  1.00  0.00     0.010 A 
HETATM   29  C   UNL     1     -19.993  -4.422  -9.475  1.00  0.00     0.040 A 
HETATM   30  C   UNL     1     -21.259  -4.011  -9.897  1.00  0.00     0.099 A 
HETATM   31  C   UNL     1     -22.308  -3.894  -8.978  1.00  0.00     0.101 A 
HETATM   32  C   UNL     1     -22.059  -4.163  -7.628  1.00  0.00     0.047 A 
BRANCH  30  33
HETATM   33  O   UNL     1     -21.436  -3.708 -11.219  1.00  0.00    -0.358 OA
HETATM   34  H   UNL     1     -20.870  -4.292 -11.751  1.00  0.00     0.217 HD
ENDBRANCH  30  33
BRANCH  31  35
HETATM   35  O   UNL     1     -23.591  -3.491  -9.237  1.00  0.00    -0.353 OA
HETATM   36  C   UNL     1     -24.455  -4.476  -9.789  1.00  0.00     0.210 C 
ENDBRANCH  31  35
ENDBRANCH  26  27
ENDBRANCH  24  26
ENDBRANCH  23  24
ENDBRANCH  22  23
ENDBRANCH  12  22
BRANCH  14  37
HETATM   37  O   UNL     1     -22.704 -10.247  -3.427  1.00  0.00    -0.381 OA
HETATM   38  H   UNL     1     -23.440 -10.879  -3.295  1.00  0.00     0.211 HD
ENDBRANCH  14  37
BRANCH   1  39
HETATM   39  C   UNL     1     -15.489 -12.523  -6.430  1.00  0.00    -0.052 C 
HETATM   40  C   UNL     1     -14.539 -11.876  -7.123  1.00  0.00     0.017 C 
HETATM   41  C   UNL     1     -15.150 -13.970  -6.029  1.00  0.00     0.046 C 
ENDBRANCH   1  39
BRANCH   7  42
HETATM   42  C   UNL     1     -16.149 -10.779  -4.144  1.00  0.00     0.130 C 
BRANCH  42  43
HETATM   43  C   UNL     1     -15.751 -11.553  -2.900  1.00  0.00    -0.051 A 
HETATM   44  C   UNL     1     -14.905 -12.655  -2.837  1.00  0.00     0.007 A 
HETATM   45  C   UNL     1     -14.718 -13.306  -1.606  1.00  0.00     0.001 A 
HETATM   46  C   UNL     1     -15.345 -12.860  -0.438  1.00  0.00     0.000 A 
HETATM   47  C   UNL     1     -16.178 -11.751  -0.485  1.00  0.00     0.001 A 
HETATM   48  C   UNL     1     -16.377 -11.115  -1.704  1.00  0.00     0.007 A 
ENDBRANCH  42  43
ENDBRANCH   7  42
TORSDOF 11
ENDMDL
MODEL 5
REMARK VINA RESULT:      -9.4      4.321      8.721
REMARK  11 active torsions:
REMARK  status: ('A' for Active; 'I' for Inactive)
REMARK    1  A    between atoms: C_2  and  C_4 
REMARK    2  A    between atoms: C_10  and  C_11 
REMARK    3  A    between atoms: C_11  and  C_12 
REMARK    4  A    between atoms: C_22  and  C_23 
REMARK    5  A    between atoms: C_23  and  O_24 
REMARK    6  A    between atoms: O_24  and  C_25 
REMARK    7  A    between atoms: C_25  and  C_27 
REMARK    8  A    between atoms: C_27  and  C_28 
REMARK    9  A    between atoms: C_31  and  O_32 
REMARK   10  A    between atoms: C_33  and  O_34 
REMARK   11  A    between atoms: C_38  and  O_39 
ROOT
HETATM    1  C   UNL     1     -21.455  -9.955  -0.386  1.00  0.00     0.153 A 
HETATM    2  C   UNL     1     -22.948 -10.836  -0.871  1.00  0.00     0.057 C 
HETATM    3  C   UNL     1     -22.835 -11.736  -2.142  1.00  0.00     0.021 C 
HETATM    4  C   UNL     1     -23.264 -10.671  -3.270  1.00  0.00     0.013 C 
HETATM    5  C   UNL     1     -21.345 -12.487  -2.365  1.00  0.00     0.086 C 
HETATM    6  O   UNL     1     -21.102 -11.147  -2.260  1.00  0.00    -0.326 OA
HETATM    7  C   UNL     1     -20.661 -10.897  -0.646  1.00  0.00     0.210 A 
HETATM    8  O   UNL     1     -19.811 -11.839   0.062  1.00  0.00    -0.325 OA
HETATM    9  C   UNL     1     -19.571 -10.891  -0.808  1.00  0.00     0.226 A 
HETATM   10  C   UNL     1     -19.704 -12.328  -1.984  1.00  0.00     0.082 C 
HETATM   11  C   UNL     1     -18.753 -12.235  -3.158  1.00  0.00    -0.011 C 
HETATM   12  C   UNL     1     -18.399 -13.419  -3.702  1.00  0.00    -0.056 C 
HETATM   13  C   UNL     1     -19.210 -13.734  -4.931  1.00  0.00     0.082 C 
HETATM   14  C   UNL     1     -20.579 -14.265  -4.458  1.00  0.00     0.128 C 
HETATM   15  C   UNL     1     -21.394 -14.581  -5.706  1.00  0.00     0.165 C 
HETATM   16  O   UNL     1     -21.062 -15.366  -6.578  1.00  0.00    -0.294 OA
HETATM   17  C   UNL     1     -22.758 -13.968  -5.665  1.00  0.00     0.055 C 
HETATM   18  C   UNL     1     -23.726 -15.067  -5.282  1.00  0.00     0.018 C 
HETATM   19  C   UNL     1     -22.481 -12.928  -4.840  1.00  0.00     0.023 C 
HETATM   20  C   UNL     1     -21.574 -13.349  -3.686  1.00  0.00     0.065 C 
HETATM   21  O   UNL     1     -21.428 -10.879   0.554  1.00  0.00    -0.316 OA
ENDROOT
BRANCH  12  22
HETATM   22  C   UNL     1     -17.960 -14.666  -2.947  1.00  0.00     0.212 C 
BRANCH  22  23
HETATM   23  O   UNL     1     -16.553 -14.648  -2.736  1.00  0.00    -0.317 OA
BRANCH  23  24
HETATM   24  C   UNL     1     -16.156 -13.996  -1.608  1.00  0.00     0.263 C 
HETATM   25  O   UNL     1     -16.700 -14.068  -0.513  1.00  0.00    -0.265 OA
BRANCH  24  26
HETATM   26  C   UNL     1     -14.942 -13.160  -1.905  1.00  0.00     0.149 C 
BRANCH  26  27
HETATM   27  C   UNL     1     -15.166 -12.164  -3.012  1.00  0.00    -0.046 A 
HETATM   28  C   UNL     1     -15.719 -10.906  -2.740  1.00  0.00     0.010 A 
HETATM   29  C   UNL     1     -15.908  -9.981  -3.764  1.00  0.00     0.040 A 
HETATM   30  C   UNL     1     -15.530 -10.297  -5.072  1.00  0.00     0.099 A 
HETATM   31  C   UNL     1     -14.958 -11.540  -5.362  1.00  0.00     0.101 A 
HETATM   32  C   UNL     1     -14.804 -12.473  -4.330  1.00  0.00     0.047 A 
BRANCH  30  33
HETATM   33  O   UNL     1     -15.752  -9.371  -6.053  1.00  0.00    -0.358 OA
HETATM   34  H   UNL     1     -14.898  -9.102  -6.428  1.00  0.00     0.217 HD
ENDBRANCH  30  33
BRANCH  31  35
HETATM   35  O   UNL     1     -14.554 -11.998  -6.588  1.00  0.00    -0.353 OA
HETATM   36  C   UNL     1     -13.345 -12.746  -6.606  1.00  0.00     0.210 C 
ENDBRANCH  31  35
ENDBRANCH  26  27
ENDBRANCH  24  26
ENDBRANCH  23  24
ENDBRANCH  22  23
ENDBRANCH  12  22
BRANCH  14  37
HETATM   37  O   UNL     1     -20.472 -15.523  -3.770  1.00  0.00    -0.381 OA
HETATM   38  H   UNL     1     -19.518 -15.735  -3.719  1.00  0.00     0.211 HD
ENDBRANCH  14  37
BRANCH   1  39
HETATM   39  C   UNL     1     -21.952  -8.733   0.467  1.00  0.00    -0.052 C 
HETATM   40  C   UNL     1     -23.132  -8.101   0.360  1.00  0.00     0.017 C 
HETATM   41  C   UNL     1     -21.123  -8.382   1.715  1.00  0.00     0.046 C 
ENDBRANCH   1  39
BRANCH   7  42
HETATM   42  C   UNL     1     -20.054  -9.243  -1.732  1.00  0.00     0.130 C 
BRANCH  42  43
HETATM   43  C   UNL     1     -20.491  -8.577  -3.024  1.00  0.00    -0.051 A 
HETATM   44  C   UNL     1     -20.087  -8.908  -4.312  1.00  0.00     0.007 A 
HETATM   45  C   UNL     1     -20.525  -8.121  -5.392  1.00  0.00     0.001 A 
HETATM   46  C   UNL     1     -21.374  -7.026  -5.203  1.00  0.00     0.000 A 
HETATM   47  C   UNL     1     -21.798  -6.695  -3.923  1.00  0.00     0.001 A 
HETATM   48  C   UNL     1     -21.353  -7.462  -2.853  1.00  0.00     0.007 A 
ENDBRANCH  42  43
ENDBRANCH   7  42
TORSDOF 11
ENDMDL
MODEL 6
REMARK VINA RESULT:      -9.4      2.820      5.400
REMARK  11 active torsions:
REMARK  status: ('A' for Active; 'I' for Inactive)
REMARK    1  A    between atoms: C_2  and  C_4 
REMARK    2  A    between atoms: C_10  and  C_11 
REMARK    3  A    between atoms: C_11  and  C_12 
REMARK    4  A    between atoms: C_22  and  C_23 
REMARK    5  A    between atoms: C_23  and  O_24 
REMARK    6  A    between atoms: O_24  and  C_25 
REMARK    7  A    between atoms: C_25  and  C_27 
REMARK    8  A    between atoms: C_27  and  C_28 
REMARK    9  A    between atoms: C_31  and  O_32 
REMARK   10  A    between atoms: C_33  and  O_34 
REMARK   11  A    between atoms: C_38  and  O_39 
ROOT
HETATM    1  C   UNL     1     -21.821 -12.790   0.173  1.00  0.00     0.153 A 
HETATM    2  C   UNL     1     -20.169 -12.220   0.607  1.00  0.00     0.057 C 
HETATM    3  C   UNL     1     -19.284 -11.710  -0.575  1.00  0.00     0.021 C 
HETATM    4  C   UNL     1     -18.552 -13.083  -0.981  1.00  0.00     0.013 C 
HETATM    5  C   UNL     1     -20.113 -10.921  -1.809  1.00  0.00     0.086 C 
HETATM    6  O   UNL     1     -20.693 -12.150  -1.664  1.00  0.00    -0.326 OA
HETATM    7  C   UNL     1     -22.045 -11.893  -0.681  1.00  0.00     0.210 A 
HETATM    8  O   UNL     1     -22.884 -10.717  -0.839  1.00  0.00    -0.325 OA
HETATM    9  C   UNL     1     -22.789 -11.847  -1.492  1.00  0.00     0.226 A 
HETATM   10  C   UNL     1     -21.639 -10.819  -2.534  1.00  0.00     0.082 C 
HETATM   11  C   UNL     1     -21.701 -11.153  -4.009  1.00  0.00    -0.011 C 
HETATM   12  C   UNL     1     -21.360 -10.145  -4.839  1.00  0.00    -0.056 C 
HETATM   13  C   UNL     1     -19.933 -10.264  -5.307  1.00  0.00     0.082 C 
HETATM   14  C   UNL     1     -19.029  -9.747  -4.170  1.00  0.00     0.128 C 
HETATM   15  C   UNL     1     -17.588  -9.871  -4.650  1.00  0.00     0.165 C 
HETATM   16  O   UNL     1     -17.135  -9.337  -5.649  1.00  0.00    -0.294 OA
HETATM   17  C   UNL     1     -16.715 -10.567  -3.655  1.00  0.00     0.055 C 
HETATM   18  C   UNL     1     -15.925  -9.496  -2.932  1.00  0.00     0.018 C 
HETATM   19  C   UNL     1     -17.672 -11.301  -3.035  1.00  0.00     0.023 C 
HETATM   20  C   UNL     1     -18.945 -10.492  -2.806  1.00  0.00     0.065 C 
HETATM   21  O   UNL     1     -22.168 -11.640   0.715  1.00  0.00    -0.316 OA
ENDROOT
BRANCH  12  22
HETATM   22  C   UNL     1     -21.834  -8.702  -4.751  1.00  0.00     0.212 C 
BRANCH  22  23
HETATM   23  O   UNL     1     -21.305  -7.939  -5.830  1.00  0.00    -0.317 OA
BRANCH  23  24
HETATM   24  C   UNL     1     -21.570  -6.605  -5.767  1.00  0.00     0.263 C 
HETATM   25  O   UNL     1     -22.591  -6.100  -5.315  1.00  0.00    -0.265 OA
BRANCH  24  26
HETATM   26  C   UNL     1     -20.418  -5.829  -6.344  1.00  0.00     0.149 C 
BRANCH  26  27
HETATM   27  C   UNL     1     -20.743  -5.185  -7.665  1.00  0.00    -0.046 A 
HETATM   28  C   UNL     1     -19.820  -5.210  -8.719  1.00  0.00     0.010 A 
HETATM   29  C   UNL     1     -20.131  -4.628  -9.945  1.00  0.00     0.040 A 
HETATM   30  C   UNL     1     -21.378  -4.030 -10.140  1.00  0.00     0.099 A 
HETATM   31  C   UNL     1     -22.322  -4.011  -9.108  1.00  0.00     0.101 A 
HETATM   32  C   UNL     1     -21.985  -4.569  -7.870  1.00  0.00     0.047 A 
BRANCH  30  33
HETATM   33  O   UNL     1     -21.638  -3.450 -11.351  1.00  0.00    -0.358 OA
HETATM   34  H   UNL     1     -22.565  -3.619 -11.585  1.00  0.00     0.217 HD
ENDBRANCH  30  33
BRANCH  31  35
HETATM   35  O   UNL     1     -23.572  -3.452  -9.142  1.00  0.00    -0.353 OA
HETATM   36  C   UNL     1     -24.577  -4.212  -9.803  1.00  0.00     0.210 C 
ENDBRANCH  31  35
ENDBRANCH  26  27
ENDBRANCH  24  26
ENDBRANCH  23  24
ENDBRANCH  22  23
ENDBRANCH  12  22
BRANCH  14  37
HETATM   37  O   UNL     1     -19.207  -8.341  -3.924  1.00  0.00    -0.381 OA
HETATM   38  H   UNL     1     -18.683  -7.869  -4.602  1.00  0.00     0.211 HD
ENDBRANCH  14  37
BRANCH   1  39
HETATM   39  C   UNL     1     -22.243 -13.761   1.334  1.00  0.00    -0.052 C 
HETATM   40  C   UNL     1     -23.376 -13.716   2.053  1.00  0.00     0.017 C 
HETATM   41  C   UNL     1     -21.403 -15.041   1.499  1.00  0.00     0.046 C 
ENDBRANCH   1  39
BRANCH   7  42
HETATM   42  C   UNL     1     -22.280 -13.725  -1.615  1.00  0.00     0.130 C 
BRANCH  42  43
HETATM   43  C   UNL     1     -23.456 -14.617  -1.967  1.00  0.00    -0.051 A 
HETATM   44  C   UNL     1     -24.430 -15.097  -1.098  1.00  0.00     0.007 A 
HETATM   45  C   UNL     1     -25.401 -15.990  -1.583  1.00  0.00     0.001 A 
HETATM   46  C   UNL     1     -25.424 -16.392  -2.922  1.00  0.00     0.000 A 
HETATM   47  C   UNL     1     -24.467 -15.906  -3.803  1.00  0.00     0.001 A 
HETATM   48  C   UNL     1     -23.497 -15.036  -3.323  1.00  0.00     0.007 A 
ENDBRANCH  42  43
ENDBRANCH   7  42
TORSDOF 11
ENDMDL
MODEL 7
REMARK VINA RESULT:      -9.3      3.572      8.176
REMARK  11 active torsions:
REMARK  status: ('A' for Active; 'I' for Inactive)
REMARK    1  A    between atoms: C_2  and  C_4 
REMARK    2  A    between atoms: C_10  and  C_11 
REMARK    3  A    between atoms: C_11  and  C_12 
REMARK    4  A    between atoms: C_22  and  C_23 
REMARK    5  A    between atoms: C_23  and  O_24 
REMARK    6  A    between atoms: O_24  and  C_25 
REMARK    7  A    between atoms: C_25  and  C_27 
REMARK    8  A    between atoms: C_27  and  C_28 
REMARK    9  A    between atoms: C_31  and  O_32 
REMARK   10  A    between atoms: C_33  and  O_34 
REMARK   11  A    between atoms: C_38  and  O_39 
ROOT
HETATM    1  C   UNL     1     -15.724 -11.666  -4.100  1.00  0.00     0.153 A 
HETATM    2  C   UNL     1     -15.663 -10.025  -4.838  1.00  0.00     0.057 C 
HETATM    3  C   UNL     1     -17.028  -9.278  -4.971  1.00  0.00     0.021 C 
HETATM    4  C   UNL     1     -17.466  -9.769  -6.439  1.00  0.00     0.013 C 
HETATM    5  C   UNL     1     -18.133  -9.568  -3.735  1.00  0.00     0.086 C 
HETATM    6  O   UNL     1     -17.787 -10.785  -4.252  1.00  0.00    -0.326 OA
HETATM    7  C   UNL     1     -16.582 -11.380  -3.225  1.00  0.00     0.210 A 
HETATM    8  O   UNL     1     -16.661 -11.207  -1.784  1.00  0.00    -0.325 OA
HETATM    9  C   UNL     1     -17.235 -12.032  -2.623  1.00  0.00     0.226 A 
HETATM   10  C   UNL     1     -18.553 -10.719  -2.569  1.00  0.00     0.082 C 
HETATM   11  C   UNL     1     -19.959 -11.273  -2.654  1.00  0.00    -0.011 C 
HETATM   12  C   UNL     1     -20.911 -10.506  -2.083  1.00  0.00    -0.056 C 
HETATM   13  C   UNL     1     -21.638  -9.665  -3.099  1.00  0.00     0.082 C 
HETATM   14  C   UNL     1     -20.739  -8.455  -3.425  1.00  0.00     0.128 C 
HETATM   15  C   UNL     1     -21.479  -7.609  -4.454  1.00  0.00     0.165 C 
HETATM   16  O   UNL     1     -22.584  -7.118  -4.292  1.00  0.00    -0.294 OA
HETATM   17  C   UNL     1     -20.624  -7.272  -5.634  1.00  0.00     0.055 C 
HETATM   18  C   UNL     1     -20.150  -5.847  -5.444  1.00  0.00     0.018 C 
HETATM   19  C   UNL     1     -19.778  -8.330  -5.571  1.00  0.00     0.023 C 
HETATM   20  C   UNL     1     -19.366  -8.640  -4.135  1.00  0.00     0.065 C 
HETATM   21  O   UNL     1     -15.211 -11.028  -3.068  1.00  0.00    -0.316 OA
ENDROOT
BRANCH  12  22
HETATM   22  C   UNL     1     -20.840  -9.846  -0.713  1.00  0.00     0.212 C 
BRANCH  22  23
HETATM   23  O   UNL     1     -21.847 -10.373   0.145  1.00  0.00    -0.317 OA
BRANCH  23  24
HETATM   24  C   UNL     1     -23.029  -9.699   0.113  1.00  0.00     0.263 C 
HETATM   25  O   UNL     1     -23.161  -8.483   0.187  1.00  0.00    -0.265 OA
BRANCH  24  26
HETATM   26  C   UNL     1     -24.167 -10.674  -0.022  1.00  0.00     0.149 C 
BRANCH  26  27
HETATM   27  C   UNL     1     -23.709 -12.104  -0.135  1.00  0.00    -0.046 A 
HETATM   28  C   UNL     1     -23.340 -12.829   1.006  1.00  0.00     0.010 A 
HETATM   29  C   UNL     1     -22.934 -14.157   0.899  1.00  0.00     0.040 A 
HETATM   30  C   UNL     1     -22.910 -14.783  -0.349  1.00  0.00     0.099 A 
HETATM   31  C   UNL     1     -23.294 -14.084  -1.499  1.00  0.00     0.101 A 
HETATM   32  C   UNL     1     -23.668 -12.741  -1.383  1.00  0.00     0.047 A 
BRANCH  30  33
HETATM   33  O   UNL     1     -22.485 -16.081  -0.416  1.00  0.00    -0.358 OA
HETATM   34  H   UNL     1     -23.125 -16.593  -0.937  1.00  0.00     0.217 HD
ENDBRANCH  30  33
BRANCH  31  35
HETATM   35  O   UNL     1     -23.308 -14.554  -2.785  1.00  0.00    -0.353 OA
HETATM   36  C   UNL     1     -22.481 -13.862  -3.712  1.00  0.00     0.210 C 
ENDBRANCH  31  35
ENDBRANCH  26  27
ENDBRANCH  24  26
ENDBRANCH  23  24
ENDBRANCH  22  23
ENDBRANCH  12  22
BRANCH  14  37
HETATM   37  O   UNL     1     -20.568  -7.580  -2.296  1.00  0.00    -0.381 OA
HETATM   38  H   UNL     1     -21.194  -6.837  -2.419  1.00  0.00     0.211 HD
ENDBRANCH  14  37
BRANCH   1  39
HETATM   39  C   UNL     1     -14.435 -12.402  -4.616  1.00  0.00    -0.052 C 
HETATM   40  C   UNL     1     -13.960 -12.412  -5.872  1.00  0.00     0.017 C 
HETATM   41  C   UNL     1     -13.480 -12.951  -3.541  1.00  0.00     0.046 C 
ENDBRANCH   1  39
BRANCH   7  42
HETATM   42  C   UNL     1     -17.315 -12.969  -4.330  1.00  0.00     0.130 C 
BRANCH  42  43
HETATM   43  C   UNL     1     -17.943 -13.134  -5.702  1.00  0.00    -0.051 A 
HETATM   44  C   UNL     1     -17.279 -13.360  -6.903  1.00  0.00     0.007 A 
HETATM   45  C   UNL     1     -18.018 -13.398  -8.098  1.00  0.00     0.001 A 
HETATM   46  C   UNL     1     -19.406 -13.235  -8.107  1.00  0.00     0.000 A 
HETATM   47  C   UNL     1     -20.083 -13.026  -6.913  1.00  0.00     0.001 A 
HETATM   48  C   UNL     1     -19.353 -12.972  -5.732  1.00  0.00     0.007 A 
ENDBRANCH  42  43
ENDBRANCH   7  42
TORSDOF 11
ENDMDL
MODEL 8
REMARK VINA RESULT:      -9.2      1.423      1.884
REMARK  11 active torsions:
REMARK  status: ('A' for Active; 'I' for Inactive)
REMARK    1  A    between atoms: C_2  and  C_4 
REMARK    2  A    between atoms: C_10  and  C_11 
REMARK    3  A    between atoms: C_11  and  C_12 
REMARK    4  A    between atoms: C_22  and  C_23 
REMARK    5  A    between atoms: C_23  and  O_24 
REMARK    6  A    between atoms: O_24  and  C_25 
REMARK    7  A    between atoms: C_25  and  C_27 
REMARK    8  A    between atoms: C_27  and  C_28 
REMARK    9  A    between atoms: C_31  and  O_32 
REMARK   10  A    between atoms: C_33  and  O_34 
REMARK   11  A    between atoms: C_38  and  O_39 
ROOT
HETATM    1  C   UNL     1     -20.128 -14.236  -5.564  1.00  0.00     0.153 A 
HETATM    2  C   UNL     1     -21.297 -14.283  -4.195  1.00  0.00     0.057 C 
HETATM    3  C   UNL     1     -21.376 -12.998  -3.311  1.00  0.00     0.021 C 
HETATM    4  C   UNL     1     -20.272 -13.363  -2.199  1.00  0.00     0.013 C 
HETATM    5  C   UNL     1     -21.147 -11.545  -4.129  1.00  0.00     0.086 C 
HETATM    6  O   UNL     1     -20.053 -12.321  -4.387  1.00  0.00    -0.326 OA
HETATM    7  C   UNL     1     -20.359 -13.042  -5.886  1.00  0.00     0.210 A 
HETATM    8  O   UNL     1     -20.986 -12.302  -6.969  1.00  0.00    -0.325 OA
HETATM    9  C   UNL     1     -19.767 -12.337  -6.493  1.00  0.00     0.226 A 
HETATM   10  C   UNL     1     -20.414 -10.895  -5.509  1.00  0.00     0.082 C 
HETATM   11  C   UNL     1     -19.380  -9.816  -5.270  1.00  0.00    -0.011 C 
HETATM   12  C   UNL     1     -19.880  -8.576  -5.085  1.00  0.00    -0.056 C 
HETATM   13  C   UNL     1     -19.968  -8.221  -3.624  1.00  0.00     0.082 C 
HETATM   14  C   UNL     1     -21.228  -8.905  -3.057  1.00  0.00     0.128 C 
HETATM   15  C   UNL     1     -21.311  -8.541  -1.579  1.00  0.00     0.165 C 
HETATM   16  O   UNL     1     -21.372  -7.405  -1.141  1.00  0.00    -0.294 OA
HETATM   17  C   UNL     1     -21.505  -9.742  -0.709  1.00  0.00     0.055 C 
HETATM   18  C   UNL     1     -22.972  -9.784  -0.335  1.00  0.00     0.018 C 
HETATM   19  C   UNL     1     -20.940 -10.668  -1.522  1.00  0.00     0.023 C 
HETATM   20  C   UNL     1     -21.337 -10.456  -2.980  1.00  0.00     0.065 C 
HETATM   21  O   UNL     1     -21.232 -14.099  -6.270  1.00  0.00    -0.316 OA
ENDROOT
BRANCH  12  22
HETATM   22  C   UNL     1     -20.956  -7.900  -5.924  1.00  0.00     0.212 C 
BRANCH  22  23
HETATM   23  O   UNL     1     -20.518  -6.614  -6.348  1.00  0.00    -0.317 OA
BRANCH  23  24
HETATM   24  C   UNL     1     -21.361  -5.593  -6.030  1.00  0.00     0.263 C 
HETATM   25  O   UNL     1     -22.341  -5.678  -5.300  1.00  0.00    -0.265 OA
BRANCH  24  26
HETATM   26  C   UNL     1     -20.913  -4.331  -6.715  1.00  0.00     0.149 C 
BRANCH  26  27
HETATM   27  C   UNL     1     -21.198  -4.329  -8.193  1.00  0.00    -0.046 A 
HETATM   28  C   UNL     1     -20.150  -4.318  -9.123  1.00  0.00     0.010 A 
HETATM   29  C   UNL     1     -20.417  -4.334 -10.490  1.00  0.00     0.040 A 
HETATM   30  C   UNL     1     -21.738  -4.380 -10.944  1.00  0.00     0.099 A 
HETATM   31  C   UNL     1     -22.799  -4.410 -10.033  1.00  0.00     0.101 A 
HETATM   32  C   UNL     1     -22.518  -4.361  -8.663  1.00  0.00     0.047 A 
BRANCH  30  33
HETATM   33  O   UNL     1     -21.960  -4.371 -12.293  1.00  0.00    -0.358 OA
HETATM   34  H   UNL     1     -22.543  -5.115 -12.518  1.00  0.00     0.217 HD
ENDBRANCH  30  33
BRANCH  31  35
HETATM   35  O   UNL     1     -24.137  -4.440 -10.324  1.00  0.00    -0.353 OA
HETATM   36  C   UNL     1     -24.918  -3.385  -9.775  1.00  0.00     0.210 C 
ENDBRANCH  31  35
ENDBRANCH  26  27
ENDBRANCH  24  26
ENDBRANCH  23  24
ENDBRANCH  22  23
ENDBRANCH  12  22
BRANCH  14  37
HETATM   37  O   UNL     1     -22.441  -8.379  -3.625  1.00  0.00    -0.381 OA
HETATM   38  H   UNL     1     -22.187  -7.593  -4.150  1.00  0.00     0.211 HD
ENDBRANCH  14  37
BRANCH   1  39
HETATM   39  C   UNL     1     -19.802 -15.740  -5.883  1.00  0.00    -0.052 C 
HETATM   40  C   UNL     1     -19.161 -16.613  -5.090  1.00  0.00     0.017 C 
HETATM   41  C   UNL     1     -20.504 -16.350  -7.110  1.00  0.00     0.046 C 
ENDBRANCH   1  39
BRANCH   7  42
HETATM   42  C   UNL     1     -18.332 -13.211  -5.504  1.00  0.00     0.130 C 
BRANCH  42  43
HETATM   43  C   UNL     1     -17.220 -12.253  -5.117  1.00  0.00    -0.051 A 
HETATM   44  C   UNL     1     -16.864 -11.861  -3.831  1.00  0.00     0.007 A 
HETATM   45  C   UNL     1     -15.862 -10.891  -3.663  1.00  0.00     0.001 A 
HETATM   46  C   UNL     1     -15.199 -10.325  -4.757  1.00  0.00     0.000 A 
HETATM   47  C   UNL     1     -15.533 -10.719  -6.045  1.00  0.00     0.001 A 
HETATM   48  C   UNL     1     -16.535 -11.667  -6.214  1.00  0.00     0.007 A 
ENDBRANCH  42  43
ENDBRANCH   7  42
TORSDOF 11
ENDMDL
MODEL 9
REMARK VINA RESULT:      -9.2      2.036      4.073
REMARK  11 active torsions:
REMARK  status: ('A' for Active; 'I' for Inactive)
REMARK    1  A    between atoms: C_2  and  C_4 
REMARK    2  A    between atoms: C_10  and  C_11 
REMARK    3  A    between atoms: C_11  and  C_12 
REMARK    4  A    between atoms: C_22  and  C_23 
REMARK    5  A    between atoms: C_23  and  O_24 
REMARK    6  A    between atoms: O_24  and  C_25 
REMARK    7  A    between atoms: C_25  and  C_27 
REMARK    8  A    between atoms: C_27  and  C_28 
REMARK    9  A    between atoms: C_31  and  O_32 
REMARK   10  A    between atoms: C_33  and  O_34 
REMARK   11  A    between atoms: C_38  and  O_39 
ROOT
HETATM    1  C   UNL     1     -19.906 -12.582  -6.611  1.00  0.00     0.153 A 
HETATM    2  C   UNL     1     -21.314 -13.653  -6.274  1.00  0.00     0.057 C 
HETATM    3  C   UNL     1     -21.814 -13.689  -4.795  1.00  0.00     0.021 C 
HETATM    4  C   UNL     1     -20.929 -14.911  -4.238  1.00  0.00     0.013 C 
HETATM    5  C   UNL     1     -21.683 -12.238  -3.953  1.00  0.00     0.086 C 
HETATM    6  O   UNL     1     -20.436 -12.536  -4.426  1.00  0.00    -0.326 OA
HETATM    7  C   UNL     1     -20.276 -11.646  -5.855  1.00  0.00     0.210 A 
HETATM    8  O   UNL     1     -20.778 -10.286  -5.961  1.00  0.00    -0.325 OA
HETATM    9  C   UNL     1     -19.705 -10.808  -5.423  1.00  0.00     0.226 A 
HETATM   10  C   UNL     1     -20.800 -10.795  -3.918  1.00  0.00     0.082 C 
HETATM   11  C   UNL     1     -20.056 -10.499  -2.633  1.00  0.00    -0.011 C 
HETATM   12  C   UNL     1     -20.800  -9.940  -1.657  1.00  0.00    -0.056 C 
HETATM   13  C   UNL     1     -21.265 -10.961  -0.653  1.00  0.00     0.082 C 
HETATM   14  C   UNL     1     -22.472 -11.698  -1.267  1.00  0.00     0.128 C 
HETATM   15  C   UNL     1     -22.936 -12.730  -0.246  1.00  0.00     0.165 C 
HETATM   16  O   UNL     1     -23.296 -12.476   0.891  1.00  0.00    -0.294 OA
HETATM   17  C   UNL     1     -23.092 -14.092  -0.845  1.00  0.00     0.055 C 
HETATM   18  C   UNL     1     -24.573 -14.302  -1.086  1.00  0.00     0.018 C 
HETATM   19  C   UNL     1     -22.206 -13.961  -1.864  1.00  0.00     0.023 C 
HETATM   20  C   UNL     1     -22.311 -12.593  -2.531  1.00  0.00     0.065 C 
HETATM   21  O   UNL     1     -20.838 -11.823  -7.151  1.00  0.00    -0.316 OA
ENDROOT
BRANCH  12  22
HETATM   22  C   UNL     1     -21.774  -8.780  -1.813  1.00  0.00     0.212 C 
BRANCH  22  23
HETATM   23  O   UNL     1     -21.104  -7.636  -2.330  1.00  0.00    -0.317 OA
BRANCH  23  24
HETATM   24  C   UNL     1     -21.911  -6.745  -2.969  1.00  0.00     0.263 C 
HETATM   25  O   UNL     1     -22.400  -5.738  -2.470  1.00  0.00    -0.265 OA
BRANCH  24  26
HETATM   26  C   UNL     1     -22.125  -7.181  -4.392  1.00  0.00     0.149 C 
BRANCH  26  27
HETATM   27  C   UNL     1     -21.551  -6.219  -5.398  1.00  0.00    -0.046 A 
HETATM   28  C   UNL     1     -20.168  -6.019  -5.489  1.00  0.00     0.010 A 
HETATM   29  C   UNL     1     -19.640  -5.141  -6.432  1.00  0.00     0.040 A 
HETATM   30  C   UNL     1     -20.490  -4.465  -7.311  1.00  0.00     0.099 A 
HETATM   31  C   UNL     1     -21.873  -4.664  -7.251  1.00  0.00     0.101 A 
HETATM   32  C   UNL     1     -22.393  -5.524  -6.277  1.00  0.00     0.047 A 
BRANCH  30  33
HETATM   33  O   UNL     1     -19.936  -3.594  -8.208  1.00  0.00    -0.358 OA
HETATM   34  H   UNL     1     -20.518  -3.533  -8.983  1.00  0.00     0.217 HD
ENDBRANCH  30  33
BRANCH  31  35
HETATM   35  O   UNL     1     -22.828  -4.065  -8.029  1.00  0.00    -0.353 OA
HETATM   36  C   UNL     1     -22.929  -4.537  -9.367  1.00  0.00     0.210 C 
ENDBRANCH  31  35
ENDBRANCH  26  27
ENDBRANCH  24  26
ENDBRANCH  23  24
ENDBRANCH  22  23
ENDBRANCH  12  22
BRANCH  14  37
HETATM   37  O   UNL     1     -23.608 -10.835  -1.448  1.00  0.00    -0.381 OA
HETATM   38  H   UNL     1     -23.260  -9.971  -1.750  1.00  0.00     0.211 HD
ENDBRANCH  14  37
BRANCH   1  39
HETATM   39  C   UNL     1     -19.251 -13.157  -7.919  1.00  0.00    -0.052 C 
HETATM   40  C   UNL     1     -18.818 -12.457  -8.979  1.00  0.00     0.017 C 
HETATM   41  C   UNL     1     -18.828 -14.637  -7.882  1.00  0.00     0.046 C 
ENDBRANCH   1  39
BRANCH   7  42
HETATM   42  C   UNL     1     -18.383 -12.231  -5.257  1.00  0.00     0.130 C 
BRANCH  42  43
HETATM   43  C   UNL     1     -17.387 -11.766  -4.209  1.00  0.00    -0.051 A 
HETATM   44  C   UNL     1     -17.033 -12.431  -3.040  1.00  0.00     0.007 A 
HETATM   45  C   UNL     1     -16.156 -11.808  -2.136  1.00  0.00     0.001 A 
HETATM   46  C   UNL     1     -15.616 -10.544  -2.392  1.00  0.00     0.000 A 
HETATM   47  C   UNL     1     -15.948  -9.877  -3.563  1.00  0.00     0.001 A 
HETATM   48  C   UNL     1     -16.827 -10.485  -4.451  1.00  0.00     0.007 A 
ENDBRANCH  42  43
ENDBRANCH   7  42
TORSDOF 11
ENDMDL
