REMARK  11 active torsions:
REMARK  status: ('A' for Active; 'I' for Inactive)
REMARK    1  A    between atoms: C_2  and  C_4 
REMARK    2  A    between atoms: C_10  and  C_11 
REMARK    3  A    between atoms: C_11  and  C_12 
REMARK    4  A    between atoms: C_22  and  C_23 
REMARK    5  A    between atoms: C_23  and  O_24 
REMARK    6  A    between atoms: O_24  and  C_25 
REMARK    7  A    between atoms: C_25  and  C_27 
REMARK    8  A    between atoms: C_27  and  C_28 
REMARK    9  A    between atoms: C_31  and  O_32 
REMARK   10  A    between atoms: C_33  and  O_34 
REMARK   11  A    between atoms: C_38  and  O_39 
ROOT
HETATM    1  C   UNL     1       6.532  -2.593  -5.307  1.00  0.00     0.153 A 
HETATM    2  C   UNL     1       5.503  -1.167  -5.693  1.00  0.00     0.057 C 
HETATM    3  C   UNL     1       6.191  -0.017  -6.495  1.00  0.00     0.021 C 
HETATM    4  C   UNL     1       6.734   0.880  -5.275  1.00  0.00     0.013 C 
HETATM    5  C   UNL     1       7.343  -0.510  -7.619  1.00  0.00     0.086 C 
HETATM    6  O   UNL     1       7.716  -1.033  -6.413  1.00  0.00    -0.326 OA
HETATM    7  C   UNL     1       7.131  -2.620  -6.414  1.00  0.00     0.210 A 
HETATM    8  O   UNL     1       7.191  -3.449  -7.606  1.00  0.00    -0.325 OA
HETATM    9  C   UNL     1       8.076  -3.107  -6.704  1.00  0.00     0.226 A 
HETATM   10  C   UNL     1       8.417  -1.773  -7.957  1.00  0.00     0.082 C 
HETATM   11  C   UNL     1       9.880  -1.397  -8.054  1.00  0.00    -0.011 C 
HETATM   12  C   UNL     1      10.264  -0.897  -9.247  1.00  0.00    -0.056 C 
HETATM   13  C   UNL     1      10.317   0.608  -9.232  1.00  0.00     0.082 C 
HETATM   14  C   UNL     1       8.872   1.123  -9.386  1.00  0.00     0.128 C 
HETATM   15  C   UNL     1       8.933   2.646  -9.369  1.00  0.00     0.165 C 
HETATM   16  O   UNL     1       9.572   3.329 -10.152  1.00  0.00    -0.294 OA
HETATM   17  C   UNL     1       7.963   3.243  -8.400  1.00  0.00     0.055 C 
HETATM   18  C   UNL     1       6.777   3.732  -9.205  1.00  0.00     0.018 C 
HETATM   19  C   UNL     1       7.872   2.196  -7.543  1.00  0.00     0.023 C 
HETATM   20  C   UNL     1       7.803   0.864  -8.284  1.00  0.00     0.065 C 
HETATM   21  O   UNL     1       5.816  -3.146  -6.265  1.00  0.00    -0.316 OA
ENDROOT
BRANCH  12  22
HETATM   22  C   UNL     1       9.920  -1.462 -10.618  1.00  0.00     0.212 C 
BRANCH  22  23
HETATM   23  O   UNL     1      10.522  -2.740 -10.793  1.00  0.00    -0.317 OA
BRANCH  23  24
HETATM   24  C   UNL     1      11.765  -2.711 -11.348  1.00  0.00     0.263 C 
HETATM   25  O   UNL     1      12.388  -1.701 -11.653  1.00  0.00    -0.265 OA
BRANCH  24  26
HETATM   26  C   UNL     1      12.269  -4.115 -11.541  1.00  0.00     0.149 C 
BRANCH  26  27
HETATM   27  C   UNL     1      12.919  -4.684 -10.308  1.00  0.00    -0.046 A 
HETATM   28  C   UNL     1      12.178  -4.883  -9.136  1.00  0.00     0.010 A 
HETATM   29  C   UNL     1      12.779  -5.426  -8.003  1.00  0.00     0.040 A 
HETATM   30  C   UNL     1      14.126  -5.795  -8.034  1.00  0.00     0.099 A 
HETATM   31  C   UNL     1      14.880  -5.623  -9.200  1.00  0.00     0.101 A 
HETATM   32  C   UNL     1      14.273  -5.046 -10.321  1.00  0.00     0.047 A 
BRANCH  30  33
HETATM   33  O   UNL     1      14.686  -6.304  -6.895  1.00  0.00    -0.358 OA
HETATM   34  H   UNL     1      14.040  -6.237  -6.173  1.00  0.00     0.217 HD
ENDBRANCH  30  33
BRANCH  31  35
HETATM   35  O   UNL     1      16.205  -5.920  -9.378  1.00  0.00    -0.353 OA
HETATM   36  C   UNL     1      16.700  -7.030  -8.639  1.00  0.00     0.210 C 
ENDBRANCH  31  35
ENDBRANCH  26  27
ENDBRANCH  24  26
ENDBRANCH  23  24
ENDBRANCH  22  23
ENDBRANCH  12  22
BRANCH  14  37
HETATM   37  O   UNL     1       8.308   0.800 -10.669  1.00  0.00    -0.381 OA
HETATM   38  H   UNL     1       8.762   1.366 -11.326  1.00  0.00     0.211 HD
ENDBRANCH  14  37
BRANCH   1  39
HETATM   39  C   UNL     1       5.857  -3.266  -4.058  1.00  0.00    -0.052 C 
HETATM   40  C   UNL     1       6.407  -3.456  -2.848  1.00  0.00     0.017 C 
HETATM   41  C   UNL     1       4.338  -3.501  -4.141  1.00  0.00     0.046 C 
ENDBRANCH   1  39
BRANCH   7  42
HETATM   42  C   UNL     1       8.562  -2.473  -4.926  1.00  0.00     0.130 C 
BRANCH  42  43
HETATM   43  C   UNL     1       9.456  -3.450  -4.184  1.00  0.00    -0.051 A 
HETATM   44  C   UNL     1       9.229  -4.808  -3.990  1.00  0.00     0.007 A 
HETATM   45  C   UNL     1      10.124  -5.546  -3.196  1.00  0.00     0.001 A 
HETATM   46  C   UNL     1      11.248  -4.952  -2.614  1.00  0.00     0.000 A 
HETATM   47  C   UNL     1      11.495  -3.601  -2.814  1.00  0.00     0.001 A 
HETATM   48  C   UNL     1      10.603  -2.866  -3.585  1.00  0.00     0.007 A 
ENDBRANCH  42  43
ENDBRANCH   7  42
TORSDOF 11
