REMARK  3 active torsions:
REMARK  status: ('A' for Active; 'I' for Inactive)
REMARK    1  A    between atoms: C_2  and  C_5 
REMARK    2  A    between atoms: C_8  and  N_9 
REMARK       I    between atoms: N_9  and  C_10 
REMARK       I    between atoms: C_10  and  N_12 
REMARK    3  A    between atoms: N_15  and  C_16 
ROOT
HETATM    1  N   UNL     1       4.056   3.122  -4.637  1.00  0.00    -0.309 N 
HETATM    2  C   UNL     1       3.776   4.442  -4.900  1.00  0.00     0.323 C 
HETATM    3  O   UNL     1       3.163   5.182  -4.130  1.00  0.00    -0.247 OA
HETATM    4  N   UNL     1       4.241   4.934  -6.108  1.00  0.00    -0.331 N 
HETATM    5  C   UNL     1       4.902   4.170  -7.192  1.00  0.00     0.147 C 
HETATM    6  C   UNL     1       5.949   5.010  -7.960  1.00  0.00     0.144 C 
HETATM    7  N   UNL     1       5.325   6.275  -8.349  1.00  0.00    -0.363 N 
HETATM    8  C   UNL     1       4.879   7.074  -7.205  1.00  0.00     0.144 C 
HETATM    9  C   UNL     1       3.773   6.277  -6.501  1.00  0.00     0.147 C 
HETATM   10  H   UNL     1       4.677   2.639  -5.263  1.00  0.00     0.170 HD
ENDROOT
BRANCH   1  11
HETATM   11  C   UNL     1       3.663   2.389  -3.503  1.00  0.00     0.036 A 
HETATM   12  C   UNL     1       2.745   2.863  -2.572  1.00  0.00     0.030 A 
HETATM   13  C   UNL     1       2.395   2.093  -1.465  1.00  0.00     0.010 A 
HETATM   14  C   UNL     1       2.924   0.810  -1.259  1.00  0.00    -0.051 A 
HETATM   15  C   UNL     1       3.862   0.348  -2.197  1.00  0.00     0.010 A 
HETATM   16  C   UNL     1       4.218   1.122  -3.310  1.00  0.00     0.030 A 
BRANCH  14  17
HETATM   17  C   UNL     1       2.501  -0.011  -0.033  1.00  0.00    -0.024 C 
HETATM   18  C   UNL     1       1.024   0.258   0.346  1.00  0.00     0.019 C 
HETATM   19  C   UNL     1       3.400   0.382   1.154  1.00  0.00     0.019 C 
HETATM   20  C   UNL     1       2.619  -1.534  -0.262  1.00  0.00     0.019 C 
ENDBRANCH  14  17
ENDBRANCH   1  11
BRANCH   7  21
HETATM   21  C   UNL     1       5.609   6.828  -9.576  1.00  0.00     0.125 A 
HETATM   22  N   UNL     1       6.770   6.441 -10.163  1.00  0.00    -0.351 N 
HETATM   23  C   UNL     1       7.060   6.896 -11.403  1.00  0.00     0.090 A 
ATOM     24  HN  UNL     1       7.414   5.817  -9.677  1.00  0.00     0.166 HD
HETATM   25  C   UNL     1       6.241   7.740 -12.125  1.00  0.00     0.019 A 
HETATM   26  C   UNL     1       5.048   8.135 -11.543  1.00  0.00     0.029 A 
HETATM   27  C   UNL     1       4.717   7.676 -10.266  1.00  0.00     0.077 A 
HETATM   28 CL   UNL     1       3.129   8.082  -9.701  1.00  0.00    -0.080 Cl
ENDBRANCH   7  21
TORSDOF 3
