MODEL 1
REMARK VINA RESULT:      -7.6      0.000      0.000
REMARK  3 active torsions:
REMARK  status: ('A' for Active; 'I' for Inactive)
REMARK    1  A    between atoms: C_2  and  C_5 
REMARK    2  A    between atoms: C_8  and  N_9 
REMARK       I    between atoms: N_9  and  C_10 
REMARK       I    between atoms: C_10  and  N_12 
REMARK    3  A    between atoms: N_15  and  C_16 
ROOT
HETATM    1  N   UNL     1     -21.612   9.089   2.523  1.00  0.00    -0.309 N 
HETATM    2  C   UNL     1     -20.587   9.950   2.213  1.00  0.00     0.323 C 
HETATM    3  O   UNL     1     -20.683  10.869   1.398  1.00  0.00    -0.247 OA
HETATM    4  N   UNL     1     -19.396   9.748   2.889  1.00  0.00    -0.331 N 
HETATM    5  C   UNL     1     -19.071   8.641   3.820  1.00  0.00     0.147 C 
HETATM    6  C   UNL     1     -18.101   9.073   4.944  1.00  0.00     0.144 C 
HETATM    7  N   UNL     1     -16.963   9.756   4.330  1.00  0.00    -0.363 N 
HETATM    8  C   UNL     1     -17.343  10.964   3.593  1.00  0.00     0.144 C 
HETATM    9  C   UNL     1     -18.228  10.519   2.422  1.00  0.00     0.147 C 
HETATM   10  H   UNL     1     -21.481   8.460   3.296  1.00  0.00     0.170 HD
ENDROOT
BRANCH   1  11
HETATM   11  C   UNL     1     -22.896   9.069   1.950  1.00  0.00     0.036 A 
HETATM   12  C   UNL     1     -23.173   8.470   0.726  1.00  0.00     0.030 A 
HETATM   13  C   UNL     1     -24.465   8.483   0.205  1.00  0.00     0.010 A 
HETATM   14  C   UNL     1     -25.536   9.069   0.897  1.00  0.00    -0.051 A 
HETATM   15  C   UNL     1     -25.242   9.685   2.125  1.00  0.00     0.010 A 
HETATM   16  C   UNL     1     -23.942   9.675   2.650  1.00  0.00     0.030 A 
BRANCH  14  17
HETATM   17  C   UNL     1     -26.947   9.050   0.294  1.00  0.00    -0.024 C 
HETATM   18  C   UNL     1     -27.949   8.317   1.220  1.00  0.00     0.019 C 
HETATM   19  C   UNL     1     -26.892   8.317  -1.060  1.00  0.00     0.019 C 
HETATM   20  C   UNL     1     -27.522  10.466   0.069  1.00  0.00     0.019 C 
ENDBRANCH  14  17
ENDBRANCH   1  11
BRANCH   7  21
HETATM   21  C   UNL     1     -15.696   9.559   4.829  1.00  0.00     0.125 A 
HETATM   22  N   UNL     1     -15.581   9.486   6.180  1.00  0.00    -0.351 N 
HETATM   23  C   UNL     1     -14.370   9.217   6.720  1.00  0.00     0.090 A 
ATOM     24  HN  UNL     1     -16.393   9.632   6.779  1.00  0.00     0.166 HD
HETATM   25  C   UNL     1     -13.226   9.006   5.978  1.00  0.00     0.019 A 
HETATM   26  C   UNL     1     -13.331   9.067   4.598  1.00  0.00     0.029 A 
HETATM   27  C   UNL     1     -14.569   9.336   4.011  1.00  0.00     0.077 A 
HETATM   28 CL   UNL     1     -14.632   9.215   2.282  1.00  0.00    -0.080 Cl
ENDBRANCH   7  21
TORSDOF 3
ENDMDL
MODEL 2
REMARK VINA RESULT:      -7.6     19.322     20.795
REMARK  3 active torsions:
REMARK  status: ('A' for Active; 'I' for Inactive)
REMARK    1  A    between atoms: C_2  and  C_5 
REMARK    2  A    between atoms: C_8  and  N_9 
REMARK       I    between atoms: N_9  and  C_10 
REMARK       I    between atoms: C_10  and  N_12 
REMARK    3  A    between atoms: N_15  and  C_16 
ROOT
HETATM    1  N   UNL     1     -21.526  -8.702  -3.703  1.00  0.00    -0.309 N 
HETATM    2  C   UNL     1     -20.867  -8.844  -2.505  1.00  0.00     0.323 C 
HETATM    3  O   UNL     1     -20.008  -8.063  -2.096  1.00  0.00    -0.247 OA
HETATM    4  N   UNL     1     -21.231  -9.936  -1.736  1.00  0.00    -0.331 N 
HETATM    5  C   UNL     1     -22.163 -11.025  -2.110  1.00  0.00     0.147 C 
HETATM    6  C   UNL     1     -22.944 -11.585  -0.898  1.00  0.00     0.144 C 
HETATM    7  N   UNL     1     -21.983 -11.893   0.162  1.00  0.00    -0.363 N 
HETATM    8  C   UNL     1     -21.240 -10.718   0.626  1.00  0.00     0.144 C 
HETATM    9  C   UNL     1     -20.395 -10.223  -0.554  1.00  0.00     0.147 C 
HETATM   10  H   UNL     1     -22.305  -9.311  -3.887  1.00  0.00     0.170 HD
ENDROOT
BRANCH   1  11
HETATM   11  C   UNL     1     -21.310  -7.702  -4.668  1.00  0.00     0.036 A 
HETATM   12  C   UNL     1     -20.153  -7.624  -5.436  1.00  0.00     0.030 A 
HETATM   13  C   UNL     1     -19.993  -6.608  -6.376  1.00  0.00     0.010 A 
HETATM   14  C   UNL     1     -20.991  -5.650  -6.608  1.00  0.00    -0.051 A 
HETATM   15  C   UNL     1     -22.148  -5.729  -5.815  1.00  0.00     0.010 A 
HETATM   16  C   UNL     1     -22.311  -6.748  -4.867  1.00  0.00     0.030 A 
BRANCH  14  17
HETATM   17  C   UNL     1     -20.780  -4.556  -7.663  1.00  0.00    -0.024 C 
HETATM   18  C   UNL     1     -19.274  -4.291  -7.911  1.00  0.00     0.019 C 
HETATM   19  C   UNL     1     -21.438  -3.257  -7.162  1.00  0.00     0.019 C 
HETATM   20  C   UNL     1     -21.386  -4.922  -9.036  1.00  0.00     0.019 C 
ENDBRANCH  14  17
ENDBRANCH   1  11
BRANCH   7  21
HETATM   21  C   UNL     1     -22.158 -13.016   0.937  1.00  0.00     0.125 A 
HETATM   22  N   UNL     1     -23.375 -13.170   1.518  1.00  0.00    -0.351 N 
HETATM   23  C   UNL     1     -23.623 -14.294   2.227  1.00  0.00     0.090 A 
ATOM     24  HN  UNL     1     -24.091 -12.450   1.421  1.00  0.00     0.166 HD
HETATM   25  C   UNL     1     -22.709 -15.313   2.403  1.00  0.00     0.019 A 
HETATM   26  C   UNL     1     -21.466 -15.174   1.807  1.00  0.00     0.029 A 
HETATM   27  C   UNL     1     -21.182 -14.027   1.062  1.00  0.00     0.077 A 
HETATM   28 CL   UNL     1     -19.670 -14.029   0.213  1.00  0.00    -0.080 Cl
ENDBRANCH   7  21
TORSDOF 3
ENDMDL
MODEL 3
REMARK VINA RESULT:      -7.4     19.014     20.738
REMARK  3 active torsions:
REMARK  status: ('A' for Active; 'I' for Inactive)
REMARK    1  A    between atoms: C_2  and  C_5 
REMARK    2  A    between atoms: C_8  and  N_9 
REMARK       I    between atoms: N_9  and  C_10 
REMARK       I    between atoms: C_10  and  N_12 
REMARK    3  A    between atoms: N_15  and  C_16 
ROOT
HETATM    1  N   UNL     1     -21.838 -10.230  -2.176  1.00  0.00    -0.309 N 
HETATM    2  C   UNL     1     -21.887  -8.869  -1.985  1.00  0.00     0.323 C 
HETATM    3  O   UNL     1     -22.139  -8.335  -0.905  1.00  0.00    -0.247 OA
HETATM    4  N   UNL     1     -21.617  -8.089  -3.097  1.00  0.00    -0.331 N 
HETATM    5  C   UNL     1     -21.397  -8.554  -4.486  1.00  0.00     0.147 C 
HETATM    6  C   UNL     1     -20.400  -7.661  -5.262  1.00  0.00     0.144 C 
HETATM    7  N   UNL     1     -20.817  -6.267  -5.105  1.00  0.00    -0.363 N 
HETATM    8  C   UNL     1     -20.812  -5.816  -3.711  1.00  0.00     0.144 C 
HETATM    9  C   UNL     1     -21.870  -6.641  -2.967  1.00  0.00     0.147 C 
HETATM   10  H   UNL     1     -21.492 -10.569  -3.057  1.00  0.00     0.170 HD
ENDROOT
BRANCH   1  11
HETATM   11  C   UNL     1     -22.107 -11.224  -1.218  1.00  0.00     0.036 A 
HETATM   12  C   UNL     1     -23.393 -11.548  -0.799  1.00  0.00     0.030 A 
HETATM   13  C   UNL     1     -23.599 -12.541   0.156  1.00  0.00     0.010 A 
HETATM   14  C   UNL     1     -22.534 -13.268   0.710  1.00  0.00    -0.051 A 
HETATM   15  C   UNL     1     -21.238 -12.920   0.292  1.00  0.00     0.010 A 
HETATM   16  C   UNL     1     -21.028 -11.920  -0.667  1.00  0.00     0.030 A 
BRANCH  14  17
HETATM   17  C   UNL     1     -22.806 -14.363   1.750  1.00  0.00    -0.024 C 
HETATM   18  C   UNL     1     -21.610 -14.533   2.719  1.00  0.00     0.019 C 
HETATM   19  C   UNL     1     -23.041 -15.693   1.011  1.00  0.00     0.019 C 
HETATM   20  C   UNL     1     -24.038 -14.060   2.631  1.00  0.00     0.019 C 
ENDBRANCH  14  17
ENDBRANCH   1  11
BRANCH   7  21
HETATM   21  C   UNL     1     -20.711  -5.399  -6.167  1.00  0.00     0.125 A 
HETATM   22  N   UNL     1     -19.462  -5.183  -6.653  1.00  0.00    -0.351 N 
HETATM   23  C   UNL     1     -19.311  -4.398  -7.744  1.00  0.00     0.090 A 
ATOM     24  HN  UNL     1     -18.650  -5.605  -6.203  1.00  0.00     0.166 HD
HETATM   25  C   UNL     1     -20.358  -3.793  -8.409  1.00  0.00     0.019 A 
HETATM   26  C   UNL     1     -21.639  -4.013  -7.931  1.00  0.00     0.029 A 
HETATM   27  C   UNL     1     -21.828  -4.825  -6.810  1.00  0.00     0.077 A 
HETATM   28 CL   UNL     1     -23.474  -5.181  -6.399  1.00  0.00    -0.080 Cl
ENDBRANCH   7  21
TORSDOF 3
ENDMDL
MODEL 4
REMARK VINA RESULT:      -7.3     19.656     21.155
REMARK  3 active torsions:
REMARK  status: ('A' for Active; 'I' for Inactive)
REMARK    1  A    between atoms: C_2  and  C_5 
REMARK    2  A    between atoms: C_8  and  N_9 
REMARK       I    between atoms: N_9  and  C_10 
REMARK       I    between atoms: C_10  and  N_12 
REMARK    3  A    between atoms: N_15  and  C_16 
ROOT
HETATM    1  N   UNL     1     -21.452  -8.578  -3.422  1.00  0.00    -0.309 N 
HETATM    2  C   UNL     1     -21.770  -9.905  -3.584  1.00  0.00     0.323 C 
HETATM    3  O   UNL     1     -21.947 -10.442  -4.678  1.00  0.00    -0.247 OA
HETATM    4  N   UNL     1     -21.873 -10.653  -2.423  1.00  0.00    -0.331 N 
HETATM    5  C   UNL     1     -21.792 -10.158  -1.029  1.00  0.00     0.147 C 
HETATM    6  C   UNL     1     -21.166 -11.192  -0.065  1.00  0.00     0.144 C 
HETATM    7  N   UNL     1     -21.849 -12.471  -0.258  1.00  0.00    -0.363 N 
HETATM    8  C   UNL     1     -21.709 -13.001  -1.617  1.00  0.00     0.144 C 
HETATM    9  C   UNL     1     -22.415 -12.018  -2.560  1.00  0.00     0.147 C 
HETATM   10  H   UNL     1     -21.193  -8.265  -2.503  1.00  0.00     0.170 HD
ENDROOT
BRANCH   1  11
HETATM   11  C   UNL     1     -21.327  -7.613  -4.438  1.00  0.00     0.036 A 
HETATM   12  C   UNL     1     -22.331  -6.703  -4.750  1.00  0.00     0.030 A 
HETATM   13  C   UNL     1     -22.152  -5.770  -5.770  1.00  0.00     0.010 A 
HETATM   14  C   UNL     1     -20.955  -5.690  -6.497  1.00  0.00    -0.051 A 
HETATM   15  C   UNL     1     -19.954  -6.625  -6.184  1.00  0.00     0.010 A 
HETATM   16  C   UNL     1     -20.133  -7.566  -5.161  1.00  0.00     0.030 A 
BRANCH  14  17
HETATM   17  C   UNL     1     -20.793  -4.638  -7.603  1.00  0.00    -0.024 C 
HETATM   18  C   UNL     1     -19.301  -4.373  -7.918  1.00  0.00     0.019 C 
HETATM   19  C   UNL     1     -21.444  -3.325  -7.130  1.00  0.00     0.019 C 
HETATM   20  C   UNL     1     -21.448  -5.065  -8.936  1.00  0.00     0.019 C 
ENDBRANCH  14  17
ENDBRANCH   1  11
BRANCH   7  21
HETATM   21  C   UNL     1     -22.120 -13.272   0.827  1.00  0.00     0.125 A 
HETATM   22  N   UNL     1     -23.366 -13.176   1.357  1.00  0.00    -0.351 N 
HETATM   23  C   UNL     1     -23.709 -13.995   2.377  1.00  0.00     0.090 A 
ATOM     24  HN  UNL     1     -24.034 -12.496   0.993  1.00  0.00     0.166 HD
HETATM   25  C   UNL     1     -22.864 -14.940   2.923  1.00  0.00     0.019 A 
HETATM   26  C   UNL     1     -21.593 -15.057   2.385  1.00  0.00     0.029 A 
HETATM   27  C   UNL     1     -21.212 -14.229   1.327  1.00  0.00     0.077 A 
HETATM   28 CL   UNL     1     -19.671 -14.573   0.610  1.00  0.00    -0.080 Cl
ENDBRANCH   7  21
TORSDOF 3
ENDMDL
MODEL 5
REMARK VINA RESULT:      -7.2     17.877     20.116
REMARK  3 active torsions:
REMARK  status: ('A' for Active; 'I' for Inactive)
REMARK    1  A    between atoms: C_2  and  C_5 
REMARK    2  A    between atoms: C_8  and  N_9 
REMARK       I    between atoms: N_9  and  C_10 
REMARK       I    between atoms: C_10  and  N_12 
REMARK    3  A    between atoms: N_15  and  C_16 
ROOT
HETATM    1  N   UNL     1     -20.802  -7.705  -4.257  1.00  0.00    -0.309 N 
HETATM    2  C   UNL     1     -21.707  -6.726  -4.591  1.00  0.00     0.323 C 
HETATM    3  O   UNL     1     -22.575  -6.302  -3.827  1.00  0.00    -0.247 OA
HETATM    4  N   UNL     1     -21.594  -6.201  -5.867  1.00  0.00    -0.331 N 
HETATM    5  C   UNL     1     -20.685  -6.656  -6.946  1.00  0.00     0.147 C 
HETATM    6  C   UNL     1     -20.221  -5.499  -7.861  1.00  0.00     0.144 C 
HETATM    7  N   UNL     1     -21.403  -4.749  -8.286  1.00  0.00    -0.363 N 
HETATM    8  C   UNL     1     -22.140  -4.153  -7.169  1.00  0.00     0.144 C 
HETATM    9  C   UNL     1     -22.680  -5.308  -6.316  1.00  0.00     0.147 C 
HETATM   10  H   UNL     1     -20.048  -7.886  -4.897  1.00  0.00     0.170 HD
ENDROOT
BRANCH   1  11
HETATM   11  C   UNL     1     -20.736  -8.411  -3.043  1.00  0.00     0.036 A 
HETATM   12  C   UNL     1     -20.899  -7.805  -1.801  1.00  0.00     0.030 A 
HETATM   13  C   UNL     1     -20.822  -8.555  -0.630  1.00  0.00     0.010 A 
HETATM   14  C   UNL     1     -20.608  -9.942  -0.652  1.00  0.00    -0.051 A 
HETATM   15  C   UNL     1     -20.429 -10.540  -1.910  1.00  0.00     0.010 A 
HETATM   16  C   UNL     1     -20.504  -9.787  -3.090  1.00  0.00     0.030 A 
BRANCH  14  17
HETATM   17  C   UNL     1     -20.543 -10.733   0.661  1.00  0.00    -0.024 C 
HETATM   18  C   UNL     1     -21.774 -11.659   0.826  1.00  0.00     0.019 C 
HETATM   19  C   UNL     1     -20.509  -9.735   1.834  1.00  0.00     0.019 C 
HETATM   20  C   UNL     1     -19.300 -11.646   0.750  1.00  0.00     0.019 C 
ENDBRANCH  14  17
ENDBRANCH   1  11
BRANCH   7  21
HETATM   21  C   UNL     1     -21.477  -4.262  -9.570  1.00  0.00     0.125 A 
HETATM   22  N   UNL     1     -20.338  -3.738 -10.089  1.00  0.00    -0.351 N 
HETATM   23  C   UNL     1     -20.337  -3.315 -11.373  1.00  0.00     0.090 A 
ATOM     24  HN  UNL     1     -19.495  -3.664  -9.519  1.00  0.00     0.166 HD
HETATM   25  C   UNL     1     -21.434  -3.382 -12.207  1.00  0.00     0.019 A 
HETATM   26  C   UNL     1     -22.601  -3.924 -11.695  1.00  0.00     0.029 A 
HETATM   27  C   UNL     1     -22.631  -4.376 -10.374  1.00  0.00     0.077 A 
HETATM   28 CL   UNL     1     -24.078  -5.197  -9.885  1.00  0.00    -0.080 Cl
ENDBRANCH   7  21
TORSDOF 3
ENDMDL
MODEL 6
REMARK VINA RESULT:      -7.0      1.545      2.518
REMARK  3 active torsions:
REMARK  status: ('A' for Active; 'I' for Inactive)
REMARK    1  A    between atoms: C_2  and  C_5 
REMARK    2  A    between atoms: C_8  and  N_9 
REMARK       I    between atoms: N_9  and  C_10 
REMARK       I    between atoms: C_10  and  N_12 
REMARK    3  A    between atoms: N_15  and  C_16 
ROOT
HETATM    1  N   UNL     1     -22.690   8.615   1.161  1.00  0.00    -0.309 N 
HETATM    2  C   UNL     1     -21.967   9.740   1.480  1.00  0.00     0.323 C 
HETATM    3  O   UNL     1     -22.245  10.872   1.083  1.00  0.00    -0.247 OA
HETATM    4  N   UNL     1     -20.877   9.548   2.313  1.00  0.00    -0.331 N 
HETATM    5  C   UNL     1     -20.340   8.256   2.800  1.00  0.00     0.147 C 
HETATM    6  C   UNL     1     -19.724   8.363   4.215  1.00  0.00     0.144 C 
HETATM    7  N   UNL     1     -18.796   9.495   4.226  1.00  0.00    -0.363 N 
HETATM    8  C   UNL     1     -19.445  10.775   3.934  1.00  0.00     0.144 C 
HETATM    9  C   UNL     1     -19.972  10.698   2.495  1.00  0.00     0.147 C 
HETATM   10  H   UNL     1     -22.467   7.761   1.642  1.00  0.00     0.170 HD
ENDROOT
BRANCH   1  11
HETATM   11  C   UNL     1     -23.809   8.548   0.311  1.00  0.00     0.036 A 
HETATM   12  C   UNL     1     -25.113   8.733   0.756  1.00  0.00     0.030 A 
HETATM   13  C   UNL     1     -26.184   8.652  -0.132  1.00  0.00     0.010 A 
HETATM   14  C   UNL     1     -25.993   8.413  -1.501  1.00  0.00    -0.051 A 
HETATM   15  C   UNL     1     -24.673   8.212  -1.936  1.00  0.00     0.010 A 
HETATM   16  C   UNL     1     -23.594   8.290  -1.044  1.00  0.00     0.030 A 
BRANCH  14  17
HETATM   17  C   UNL     1     -27.200   8.345  -2.448  1.00  0.00    -0.024 C 
HETATM   18  C   UNL     1     -27.302   9.616  -3.325  1.00  0.00     0.019 C 
HETATM   19  C   UNL     1     -28.480   8.218  -1.601  1.00  0.00     0.019 C 
HETATM   20  C   UNL     1     -27.129   7.150  -3.423  1.00  0.00     0.019 C 
ENDBRANCH  14  17
ENDBRANCH   1  11
BRANCH   7  21
HETATM   21  C   UNL     1     -17.614   9.402   4.923  1.00  0.00     0.125 A 
HETATM   22  N   UNL     1     -17.699   9.474   6.275  1.00  0.00    -0.351 N 
HETATM   23  C   UNL     1     -16.576   9.312   7.011  1.00  0.00     0.090 A 
ATOM     24  HN  UNL     1     -18.595   9.647   6.730  1.00  0.00     0.166 HD
HETATM   25  C   UNL     1     -15.328   9.073   6.471  1.00  0.00     0.019 A 
HETATM   26  C   UNL     1     -15.228   8.988   5.092  1.00  0.00     0.029 A 
HETATM   27  C   UNL     1     -16.372   9.143   4.306  1.00  0.00     0.077 A 
HETATM   28 CL   UNL     1     -16.173   8.843   2.610  1.00  0.00    -0.080 Cl
ENDBRANCH   7  21
TORSDOF 3
ENDMDL
MODEL 7
REMARK VINA RESULT:      -6.9     19.820     21.498
REMARK  3 active torsions:
REMARK  status: ('A' for Active; 'I' for Inactive)
REMARK    1  A    between atoms: C_2  and  C_5 
REMARK    2  A    between atoms: C_8  and  N_9 
REMARK       I    between atoms: N_9  and  C_10 
REMARK       I    between atoms: C_10  and  N_12 
REMARK    3  A    between atoms: N_15  and  C_16 
ROOT
HETATM    1  N   UNL     1     -22.067 -11.255  -1.422  1.00  0.00    -0.309 N 
HETATM    2  C   UNL     1     -21.785  -9.922  -1.243  1.00  0.00     0.323 C 
HETATM    3  O   UNL     1     -21.640  -9.391  -0.141  1.00  0.00    -0.247 OA
HETATM    4  N   UNL     1     -21.650  -9.168  -2.397  1.00  0.00    -0.331 N 
HETATM    5  C   UNL     1     -21.887  -9.611  -3.790  1.00  0.00     0.147 C 
HETATM    6  C   UNL     1     -20.957  -8.908  -4.806  1.00  0.00     0.144 C 
HETATM    7  N   UNL     1     -21.024  -7.466  -4.567  1.00  0.00    -0.363 N 
HETATM    8  C   UNL     1     -20.575  -7.082  -3.226  1.00  0.00     0.144 C 
HETATM    9  C   UNL     1     -21.558  -7.705  -2.225  1.00  0.00     0.147 C 
HETATM   10  H   UNL     1     -22.031 -11.622  -2.358  1.00  0.00     0.170 HD
ENDROOT
BRANCH   1  11
HETATM   11  C   UNL     1     -22.283 -12.211  -0.414  1.00  0.00     0.036 A 
HETATM   12  C   UNL     1     -21.311 -13.117  -0.003  1.00  0.00     0.030 A 
HETATM   13  C   UNL     1     -21.583 -14.044   1.000  1.00  0.00     0.010 A 
HETATM   14  C   UNL     1     -22.825 -14.086   1.651  1.00  0.00    -0.051 A 
HETATM   15  C   UNL     1     -23.805 -13.178   1.217  1.00  0.00     0.010 A 
HETATM   16  C   UNL     1     -23.534 -12.246   0.206  1.00  0.00     0.030 A 
BRANCH  14  17
HETATM   17  C   UNL     1     -23.080 -15.116   2.761  1.00  0.00    -0.024 C 
HETATM   18  C   UNL     1     -21.997 -15.036   3.865  1.00  0.00     0.019 C 
HETATM   19  C   UNL     1     -23.054 -16.524   2.138  1.00  0.00     0.019 C 
HETATM   20  C   UNL     1     -24.437 -14.911   3.469  1.00  0.00     0.019 C 
ENDBRANCH  14  17
ENDBRANCH   1  11
BRANCH   7  21
HETATM   21  C   UNL     1     -21.013  -6.596  -5.632  1.00  0.00     0.125 A 
HETATM   22  N   UNL     1     -19.879  -6.562  -6.377  1.00  0.00    -0.351 N 
HETATM   23  C   UNL     1     -19.844  -5.780  -7.480  1.00  0.00     0.090 A 
ATOM     24  HN  UNL     1     -19.067  -7.117  -6.110  1.00  0.00     0.166 HD
HETATM   25  C   UNL     1     -20.901  -5.002  -7.907  1.00  0.00     0.019 A 
HETATM   26  C   UNL     1     -22.068  -5.034  -7.162  1.00  0.00     0.029 A 
HETATM   27  C   UNL     1     -22.138  -5.838  -6.022  1.00  0.00     0.077 A 
HETATM   28 CL   UNL     1     -23.693  -5.947  -5.263  1.00  0.00    -0.080 Cl
ENDBRANCH   7  21
TORSDOF 3
ENDMDL
MODEL 8
REMARK VINA RESULT:      -6.7     20.747     22.283
REMARK  3 active torsions:
REMARK  status: ('A' for Active; 'I' for Inactive)
REMARK    1  A    between atoms: C_2  and  C_5 
REMARK    2  A    between atoms: C_8  and  N_9 
REMARK       I    between atoms: N_9  and  C_10 
REMARK       I    between atoms: C_10  and  N_12 
REMARK    3  A    between atoms: N_15  and  C_16 
ROOT
HETATM    1  N   UNL     1     -22.055 -12.378  -0.158  1.00  0.00    -0.309 N 
HETATM    2  C   UNL     1     -21.562 -11.101  -0.030  1.00  0.00     0.323 C 
HETATM    3  O   UNL     1     -21.174 -10.617   1.033  1.00  0.00    -0.247 OA
HETATM    4  N   UNL     1     -21.502 -10.352  -1.194  1.00  0.00    -0.331 N 
HETATM    5  C   UNL     1     -22.015 -10.732  -2.531  1.00  0.00     0.147 C 
HETATM    6  C   UNL     1     -21.164 -10.148  -3.683  1.00  0.00     0.144 C 
HETATM    7  N   UNL     1     -20.987  -8.716  -3.442  1.00  0.00    -0.363 N 
HETATM    8  C   UNL     1     -20.285  -8.424  -2.189  1.00  0.00     0.144 C 
HETATM    9  C   UNL     1     -21.177  -8.921  -1.045  1.00  0.00     0.147 C 
HETATM   10  H   UNL     1     -22.219 -12.728  -1.086  1.00  0.00     0.170 HD
ENDROOT
BRANCH   1  11
HETATM   11  C   UNL     1     -22.246 -13.313   0.875  1.00  0.00     0.036 A 
HETATM   12  C   UNL     1     -21.311 -14.289   1.199  1.00  0.00     0.030 A 
HETATM   13  C   UNL     1     -21.555 -15.191   2.232  1.00  0.00     0.010 A 
HETATM   14  C   UNL     1     -22.728 -15.136   3.000  1.00  0.00    -0.051 A 
HETATM   15  C   UNL     1     -23.673 -14.156   2.654  1.00  0.00     0.010 A 
HETATM   16  C   UNL     1     -23.430 -13.249   1.613  1.00  0.00     0.030 A 
BRANCH  14  17
HETATM   17  C   UNL     1     -22.952 -16.141   4.139  1.00  0.00    -0.024 C 
HETATM   18  C   UNL     1     -22.947 -15.441   5.520  1.00  0.00     0.019 C 
HETATM   19  C   UNL     1     -21.819 -17.183   4.103  1.00  0.00     0.019 C 
HETATM   20  C   UNL     1     -24.306 -16.877   4.031  1.00  0.00     0.019 C 
ENDBRANCH  14  17
ENDBRANCH   1  11
BRANCH   7  21
HETATM   21  C   UNL     1     -21.018  -7.836  -4.498  1.00  0.00     0.125 A 
HETATM   22  N   UNL     1     -22.053  -6.958  -4.528  1.00  0.00    -0.351 N 
HETATM   23  C   UNL     1     -22.089  -6.022  -5.503  1.00  0.00     0.090 A 
ATOM     24  HN  UNL     1     -22.791  -7.003  -3.825  1.00  0.00     0.166 HD
HETATM   25  C   UNL     1     -21.129  -5.895  -6.486  1.00  0.00     0.019 A 
HETATM   26  C   UNL     1     -20.062  -6.778  -6.463  1.00  0.00     0.029 A 
HETATM   27  C   UNL     1     -19.992  -7.752  -5.464  1.00  0.00     0.077 A 
HETATM   28 CL   UNL     1     -18.534  -8.688  -5.416  1.00  0.00    -0.080 Cl
ENDBRANCH   7  21
TORSDOF 3
ENDMDL
MODEL 9
REMARK VINA RESULT:      -6.5     22.311     23.882
REMARK  3 active torsions:
REMARK  status: ('A' for Active; 'I' for Inactive)
REMARK    1  A    between atoms: C_2  and  C_5 
REMARK    2  A    between atoms: C_8  and  N_9 
REMARK       I    between atoms: N_9  and  C_10 
REMARK       I    between atoms: C_10  and  N_12 
REMARK    3  A    between atoms: N_15  and  C_16 
ROOT
HETATM    1  N   UNL     1     -19.565 -12.608  -6.831  1.00  0.00    -0.309 N 
HETATM    2  C   UNL     1     -18.846 -11.903  -5.895  1.00  0.00     0.323 C 
HETATM    3  O   UNL     1     -17.621 -11.958  -5.785  1.00  0.00    -0.247 OA
HETATM    4  N   UNL     1     -19.579 -11.082  -5.055  1.00  0.00    -0.331 N 
HETATM    5  C   UNL     1     -21.055 -10.968  -4.977  1.00  0.00     0.147 C 
HETATM    6  C   UNL     1     -21.524  -9.543  -4.603  1.00  0.00     0.144 C 
HETATM    7  N   UNL     1     -20.779  -9.112  -3.419  1.00  0.00    -0.363 N 
HETATM    8  C   UNL     1     -19.332  -9.052  -3.638  1.00  0.00     0.144 C 
HETATM    9  C   UNL     1     -18.857 -10.484  -3.916  1.00  0.00     0.147 C 
HETATM   10  H   UNL     1     -20.542 -12.394  -6.932  1.00  0.00     0.170 HD
ENDROOT
BRANCH   1  11
HETATM   11  C   UNL     1     -19.056 -13.526  -7.766  1.00  0.00     0.036 A 
HETATM   12  C   UNL     1     -19.099 -14.904  -7.579  1.00  0.00     0.030 A 
HETATM   13  C   UNL     1     -18.575 -15.766  -8.539  1.00  0.00     0.010 A 
HETATM   14  C   UNL     1     -18.016 -15.291  -9.735  1.00  0.00    -0.051 A 
HETATM   15  C   UNL     1     -17.964 -13.898  -9.906  1.00  0.00     0.010 A 
HETATM   16  C   UNL     1     -18.487 -13.027  -8.940  1.00  0.00     0.030 A 
BRANCH  14  17
HETATM   17  C   UNL     1     -17.463 -16.277 -10.774  1.00  0.00    -0.024 C 
HETATM   18  C   UNL     1     -16.845 -15.536 -11.985  1.00  0.00     0.019 C 
HETATM   19  C   UNL     1     -18.619 -17.166 -11.269  1.00  0.00     0.019 C 
HETATM   20  C   UNL     1     -16.349 -17.183 -10.205  1.00  0.00     0.019 C 
ENDBRANCH  14  17
ENDBRANCH   1  11
BRANCH   7  21
HETATM   21  C   UNL     1     -21.413  -8.382  -2.441  1.00  0.00     0.125 A 
HETATM   22  N   UNL     1     -21.712  -9.037  -1.291  1.00  0.00    -0.351 N 
HETATM   23  C   UNL     1     -22.267  -8.346  -0.269  1.00  0.00     0.090 A 
ATOM     24  HN  UNL     1     -21.522 -10.035  -1.198  1.00  0.00     0.166 HD
HETATM   25  C   UNL     1     -22.554  -6.997  -0.317  1.00  0.00     0.019 A 
HETATM   26  C   UNL     1     -22.244  -6.313  -1.481  1.00  0.00     0.029 A 
HETATM   27  C   UNL     1     -21.664  -6.998  -2.551  1.00  0.00     0.077 A 
HETATM   28 CL   UNL     1     -21.154  -6.021  -3.890  1.00  0.00    -0.080 Cl
ENDBRANCH   7  21
TORSDOF 3
ENDMDL
