REMARK  4 active torsions:
REMARK  status: ('A' for Active; 'I' for Inactive)
REMARK    1  A    between atoms: C_5  and  N_6 
REMARK       I    between atoms: N_6  and  C_7 
REMARK       I    between atoms: C_7  and  N_9 
REMARK    2  A    between atoms: N_9  and  C_10 
REMARK    3  A    between atoms: C_12  and  C_13 
REMARK    4  A    between atoms: C_12  and  C_15 
ROOT
HETATM    1  N   UNL     1       6.535   5.625   1.434  1.00  0.00    -0.308 N 
HETATM    2  C   UNL     1       5.497   5.176   0.667  1.00  0.00     0.321 C 
HETATM    3  O   UNL     1       5.510   4.195  -0.077  1.00  0.00    -0.247 OA
HETATM    4  N   UNL     1       4.395   5.964   0.703  1.00  0.00    -0.334 N 
HETATM    5  H   UNL     1       6.583   6.632   1.389  1.00  0.00     0.170 HD
HETATM    6  H   UNL     1       3.843   5.849  -0.139  1.00  0.00     0.165 HD
ENDROOT
BRANCH   4   7
HETATM    7  C   UNL     1       4.053   7.064   1.596  1.00  0.00     0.125 C 
HETATM    8  C   UNL     1       2.542   7.077   2.030  1.00  0.00     0.073 C 
HETATM    9  C   UNL     1       1.626   7.082   0.767  1.00  0.00     0.121 C 
HETATM   10  O   UNL     1       2.295   7.774  -0.327  1.00  0.00    -0.335 OA
HETATM   11  C   UNL     1       3.112   8.781   0.146  1.00  0.00     0.080 C 
HETATM   12  C   UNL     1       2.766  10.119   0.060  1.00  0.00     0.061 C 
HETATM   13  C   UNL     1       4.219   8.398   0.909  1.00  0.00    -0.002 C 
HETATM   14  C   UNL     1       3.620  11.065   0.631  1.00  0.00     0.036 C 
HETATM   15 CL   UNL     1       3.092  12.695   0.812  1.00  0.00    -0.084 Cl
HETATM   16  C   UNL     1       4.864  10.692   1.153  1.00  0.00     0.024 C 
HETATM   17  C   UNL     1       5.173   9.341   1.297  1.00  0.00     0.013 C 
BRANCH   9  18
HETATM   18  C   UNL     1       0.257   7.773   0.854  1.00  0.00     0.263 C 
HETATM   19  F   UNL     1      -0.371   7.608  -0.359  1.00  0.00    -0.252 F 
ENDBRANCH   9  18
BRANCH   9  20
HETATM   20  C   UNL     1       1.294   5.604   0.462  1.00  0.00     0.263 C 
HETATM   21  F   UNL     1       0.549   5.115   1.502  1.00  0.00    -0.252 F 
ENDBRANCH   9  20
ENDBRANCH   4   7
BRANCH   1  22
HETATM   22  C   UNL     1       7.798   5.000   1.507  1.00  0.00     0.047 A 
HETATM   23  C   UNL     1       8.008   3.676   1.988  1.00  0.00     0.004 A 
HETATM   24  C   UNL     1       6.995   2.743   2.319  1.00  0.00     0.039 A 
HETATM   25  C   UNL     1       9.345   3.268   2.199  1.00  0.00    -0.008 A 
HETATM   26  C   UNL     1       7.331   1.485   2.814  1.00  0.00     0.005 A 
HETATM   27  C   UNL     1       6.278   0.453   3.092  1.00  0.00     0.068 C 
HETATM   28  N   UNL     1       8.606   1.114   3.059  1.00  0.00    -0.369 N 
HETATM   29  C   UNL     1       9.572   2.007   2.749  1.00  0.00     0.100 A 
ATOM     30  HN  UNL     1       8.830   0.203   3.459  1.00  0.00     0.165 HD
HETATM   31  C   UNL     1      10.419   4.122   1.891  1.00  0.00     0.014 A 
HETATM   32  C   UNL     1      10.191   5.392   1.375  1.00  0.00     0.003 A 
HETATM   33  C   UNL     1       8.887   5.834   1.206  1.00  0.00     0.030 A 
ENDBRANCH   1  22
TORSDOF 4
