MODEL 1
REMARK VINA RESULT:      -8.3      0.000      0.000
REMARK  4 active torsions:
REMARK  status: ('A' for Active; 'I' for Inactive)
REMARK    1  A    between atoms: C_5  and  N_6 
REMARK       I    between atoms: N_6  and  C_7 
REMARK       I    between atoms: C_7  and  N_9 
REMARK    2  A    between atoms: N_9  and  C_10 
REMARK    3  A    between atoms: C_12  and  C_13 
REMARK    4  A    between atoms: C_12  and  C_15 
ROOT
HETATM    1  N   UNL     1     -19.549 -10.171  -1.427  1.00  0.00    -0.308 N 
HETATM    2  C   UNL     1     -19.692 -11.251  -2.252  1.00  0.00     0.321 C 
HETATM    3  O   UNL     1     -20.734 -11.626  -2.791  1.00  0.00    -0.247 OA
HETATM    4  N   UNL     1     -18.568 -11.993  -2.400  1.00  0.00    -0.334 N 
HETATM    5  H   UNL     1     -18.948 -10.410  -0.652  1.00  0.00     0.170 HD
HETATM    6  H   UNL     1     -18.798 -12.948  -2.651  1.00  0.00     0.165 HD
ENDROOT
BRANCH   4   7
HETATM    7  C   UNL     1     -17.191 -11.702  -2.021  1.00  0.00     0.125 C 
HETATM    8  C   UNL     1     -16.482 -10.669  -2.971  1.00  0.00     0.073 C 
HETATM    9  C   UNL     1     -16.559 -11.165  -4.448  1.00  0.00     0.121 C 
HETATM   10  O   UNL     1     -16.564 -12.622  -4.482  1.00  0.00    -0.335 OA
HETATM   11  C   UNL     1     -15.832 -13.147  -3.436  1.00  0.00     0.080 C 
HETATM   12  C   UNL     1     -14.570 -13.688  -3.612  1.00  0.00     0.061 C 
HETATM   13  C   UNL     1     -16.319 -12.928  -2.144  1.00  0.00    -0.002 C 
HETATM   14  C   UNL     1     -13.872 -14.129  -2.486  1.00  0.00     0.036 C 
HETATM   15 CL   UNL     1     -12.201 -14.528  -2.617  1.00  0.00    -0.084 Cl
HETATM   16  C   UNL     1     -14.480 -14.158  -1.225  1.00  0.00     0.024 C 
HETATM   17  C   UNL     1     -15.721 -13.550  -1.046  1.00  0.00     0.013 C 
BRANCH   9  18
HETATM   18  C   UNL     1     -15.427 -10.781  -5.413  1.00  0.00     0.263 C 
HETATM   19  F   UNL     1     -15.200  -9.431  -5.274  1.00  0.00    -0.252 F 
ENDBRANCH   9  18
BRANCH   9  20
HETATM   20  C   UNL     1     -17.823 -10.521  -5.061  1.00  0.00     0.263 C 
HETATM   21  F   UNL     1     -18.021  -9.313  -4.446  1.00  0.00    -0.252 F 
ENDBRANCH   9  20
ENDBRANCH   4   7
BRANCH   1  22
HETATM   22  C   UNL     1     -20.596  -9.291  -1.081  1.00  0.00     0.047 A 
HETATM   23  C   UNL     1     -21.036  -8.211  -1.900  1.00  0.00     0.004 A 
HETATM   24  C   UNL     1     -20.609  -7.947  -3.224  1.00  0.00     0.039 A 
HETATM   25  C   UNL     1     -21.946  -7.293  -1.328  1.00  0.00    -0.008 A 
HETATM   26  C   UNL     1     -21.090  -6.834  -3.910  1.00  0.00     0.005 A 
HETATM   27  C   UNL     1     -20.715  -6.582  -5.341  1.00  0.00     0.068 C 
HETATM   28  N   UNL     1     -21.922  -5.933  -3.346  1.00  0.00    -0.369 N 
HETATM   29  C   UNL     1     -22.325  -6.182  -2.080  1.00  0.00     0.100 A 
ATOM     30  HN  UNL     1     -22.233  -5.103  -3.851  1.00  0.00     0.165 HD
HETATM   31  C   UNL     1     -22.434  -7.478  -0.022  1.00  0.00     0.014 A 
HETATM   32  C   UNL     1     -22.029  -8.567   0.741  1.00  0.00     0.003 A 
HETATM   33  C   UNL     1     -21.099  -9.454   0.220  1.00  0.00     0.030 A 
ENDBRANCH   1  22
TORSDOF 4
ENDMDL
MODEL 2
REMARK VINA RESULT:      -8.1      2.804      3.830
REMARK  4 active torsions:
REMARK  status: ('A' for Active; 'I' for Inactive)
REMARK    1  A    between atoms: C_5  and  N_6 
REMARK       I    between atoms: N_6  and  C_7 
REMARK       I    between atoms: C_7  and  N_9 
REMARK    2  A    between atoms: N_9  and  C_10 
REMARK    3  A    between atoms: C_12  and  C_13 
REMARK    4  A    between atoms: C_12  and  C_15 
ROOT
HETATM    1  N   UNL     1     -19.550 -10.469  -2.667  1.00  0.00    -0.308 N 
HETATM    2  C   UNL     1     -18.274 -10.087  -2.971  1.00  0.00     0.321 C 
HETATM    3  O   UNL     1     -17.700  -9.074  -2.571  1.00  0.00    -0.247 OA
HETATM    4  N   UNL     1     -17.649 -10.893  -3.864  1.00  0.00    -0.334 N 
HETATM    5  H   UNL     1     -20.007 -10.825  -3.493  1.00  0.00     0.170 HD
HETATM    6  H   UNL     1     -16.922 -10.387  -4.357  1.00  0.00     0.165 HD
ENDROOT
BRANCH   4   7
HETATM    7  C   UNL     1     -18.019 -12.211  -4.363  1.00  0.00     0.125 C 
HETATM    8  C   UNL     1     -16.884 -13.287  -4.203  1.00  0.00     0.073 C 
HETATM    9  C   UNL     1     -15.574 -12.784  -4.884  1.00  0.00     0.121 C 
HETATM   10  O   UNL     1     -15.903 -11.926  -6.015  1.00  0.00    -0.335 OA
HETATM   11  C   UNL     1     -17.085 -12.318  -6.610  1.00  0.00     0.080 C 
HETATM   12  C   UNL     1     -17.119 -13.000  -7.815  1.00  0.00     0.061 C 
HETATM   13  C   UNL     1     -18.253 -12.186  -5.854  1.00  0.00    -0.002 C 
HETATM   14  C   UNL     1     -18.357 -13.421  -8.306  1.00  0.00     0.036 C 
HETATM   15 CL   UNL     1     -18.423 -14.521  -9.630  1.00  0.00    -0.084 Cl
HETATM   16  C   UNL     1     -19.549 -13.044  -7.676  1.00  0.00     0.024 C 
HETATM   17  C   UNL     1     -19.503 -12.418  -6.433  1.00  0.00     0.013 C 
BRANCH   9  18
HETATM   18  C   UNL     1     -14.609 -13.820  -5.479  1.00  0.00     0.263 C 
HETATM   19  F   UNL     1     -13.952 -13.223  -6.530  1.00  0.00    -0.252 F 
ENDBRANCH   9  18
BRANCH   9  20
HETATM   20  C   UNL     1     -14.752 -12.078  -3.783  1.00  0.00     0.263 C 
HETATM   21  F   UNL     1     -13.497 -12.626  -3.776  1.00  0.00    -0.252 F 
ENDBRANCH   9  20
ENDBRANCH   4   7
BRANCH   1  22
HETATM   22  C   UNL     1     -20.411  -9.752  -1.807  1.00  0.00     0.047 A 
HETATM   23  C   UNL     1     -21.046  -8.526  -2.154  1.00  0.00     0.004 A 
HETATM   24  C   UNL     1     -21.040  -7.921  -3.434  1.00  0.00     0.039 A 
HETATM   25  C   UNL     1     -21.705  -7.823  -1.119  1.00  0.00    -0.008 A 
HETATM   26  C   UNL     1     -21.674  -6.697  -3.638  1.00  0.00     0.005 A 
HETATM   27  C   UNL     1     -21.751  -6.079  -5.003  1.00  0.00     0.068 C 
HETATM   28  N   UNL     1     -22.262  -6.005  -2.639  1.00  0.00    -0.369 N 
HETATM   29  C   UNL     1     -22.262  -6.580  -1.415  1.00  0.00     0.100 A 
ATOM     30  HN  UNL     1     -22.686  -5.091  -2.799  1.00  0.00     0.165 HD
HETATM   31  C   UNL     1     -21.772  -8.349   0.184  1.00  0.00     0.014 A 
HETATM   32  C   UNL     1     -21.187  -9.572   0.487  1.00  0.00     0.003 A 
HETATM   33  C   UNL     1     -20.492 -10.257  -0.500  1.00  0.00     0.030 A 
ENDBRANCH   1  22
TORSDOF 4
ENDMDL
MODEL 3
REMARK VINA RESULT:      -8.0      2.185      2.640
REMARK  4 active torsions:
REMARK  status: ('A' for Active; 'I' for Inactive)
REMARK    1  A    between atoms: C_5  and  N_6 
REMARK       I    between atoms: N_6  and  C_7 
REMARK       I    between atoms: C_7  and  N_9 
REMARK    2  A    between atoms: N_9  and  C_10 
REMARK    3  A    between atoms: C_12  and  C_13 
REMARK    4  A    between atoms: C_12  and  C_15 
ROOT
HETATM    1  N   UNL     1     -19.648 -10.399  -2.493  1.00  0.00    -0.308 N 
HETATM    2  C   UNL     1     -19.848 -11.695  -2.877  1.00  0.00     0.321 C 
HETATM    3  O   UNL     1     -20.762 -12.433  -2.509  1.00  0.00    -0.247 OA
HETATM    4  N   UNL     1     -18.878 -12.195  -3.681  1.00  0.00    -0.334 N 
HETATM    5  H   UNL     1     -18.665 -10.240  -2.325  1.00  0.00     0.170 HD
HETATM    6  H   UNL     1     -18.833 -13.204  -3.606  1.00  0.00     0.165 HD
ENDROOT
BRANCH   4   7
HETATM    7  C   UNL     1     -17.798 -11.516  -4.386  1.00  0.00     0.125 C 
HETATM    8  C   UNL     1     -18.140 -11.171  -5.881  1.00  0.00     0.073 C 
HETATM    9  C   UNL     1     -18.573 -12.464  -6.640  1.00  0.00     0.121 C 
HETATM   10  O   UNL     1     -17.889 -13.621  -6.076  1.00  0.00    -0.335 OA
HETATM   11  C   UNL     1     -16.638 -13.279  -5.604  1.00  0.00     0.080 C 
HETATM   12  C   UNL     1     -15.475 -13.604  -6.283  1.00  0.00     0.061 C 
HETATM   13  C   UNL     1     -16.584 -12.406  -4.514  1.00  0.00    -0.002 C 
HETATM   14  C   UNL     1     -14.257 -13.154  -5.769  1.00  0.00     0.036 C 
HETATM   15 CL   UNL     1     -12.829 -13.275  -6.725  1.00  0.00    -0.084 Cl
HETATM   16  C   UNL     1     -14.191 -12.512  -4.527  1.00  0.00     0.024 C 
HETATM   17  C   UNL     1     -15.368 -12.130  -3.886  1.00  0.00     0.013 C 
BRANCH   9  18
HETATM   18  C   UNL     1     -18.283 -12.566  -8.145  1.00  0.00     0.263 C 
HETATM   19  F   UNL     1     -19.424 -13.028  -8.759  1.00  0.00    -0.252 F 
ENDBRANCH   9  18
BRANCH   9  20
HETATM   20  C   UNL     1     -20.113 -12.536  -6.538  1.00  0.00     0.263 C 
HETATM   21  F   UNL     1     -20.585 -11.262  -6.365  1.00  0.00    -0.252 F 
ENDBRANCH   9  20
ENDBRANCH   4   7
BRANCH   1  22
HETATM   22  C   UNL     1     -20.495  -9.691  -1.614  1.00  0.00     0.047 A 
HETATM   23  C   UNL     1     -21.147  -8.469  -1.944  1.00  0.00     0.004 A 
HETATM   24  C   UNL     1     -21.174  -7.862  -3.223  1.00  0.00     0.039 A 
HETATM   25  C   UNL     1     -21.789  -7.773  -0.894  1.00  0.00    -0.008 A 
HETATM   26  C   UNL     1     -21.822  -6.643  -3.411  1.00  0.00     0.005 A 
HETATM   27  C   UNL     1     -21.933  -6.024  -4.773  1.00  0.00     0.068 C 
HETATM   28  N   UNL     1     -22.393  -5.957  -2.398  1.00  0.00    -0.369 N 
HETATM   29  C   UNL     1     -22.362  -6.534  -1.176  1.00  0.00     0.100 A 
ATOM     30  HN  UNL     1     -22.828  -5.047  -2.547  1.00  0.00     0.165 HD
HETATM   31  C   UNL     1     -21.823  -8.301   0.409  1.00  0.00     0.014 A 
HETATM   32  C   UNL     1     -21.222  -9.521   0.697  1.00  0.00     0.003 A 
HETATM   33  C   UNL     1     -20.543 -10.198  -0.305  1.00  0.00     0.030 A 
ENDBRANCH   1  22
TORSDOF 4
ENDMDL
MODEL 4
REMARK VINA RESULT:      -7.8      2.941      4.270
REMARK  4 active torsions:
REMARK  status: ('A' for Active; 'I' for Inactive)
REMARK    1  A    between atoms: C_5  and  N_6 
REMARK       I    between atoms: N_6  and  C_7 
REMARK       I    between atoms: C_7  and  N_9 
REMARK    2  A    between atoms: N_9  and  C_10 
REMARK    3  A    between atoms: C_12  and  C_13 
REMARK    4  A    between atoms: C_12  and  C_15 
ROOT
HETATM    1  N   UNL     1     -20.150  -9.346  -4.525  1.00  0.00    -0.308 N 
HETATM    2  C   UNL     1     -20.814 -10.492  -4.865  1.00  0.00     0.321 C 
HETATM    3  O   UNL     1     -21.920 -10.843  -4.454  1.00  0.00    -0.247 OA
HETATM    4  N   UNL     1     -20.113 -11.324  -5.672  1.00  0.00    -0.334 N 
HETATM    5  H   UNL     1     -19.171  -9.548  -4.383  1.00  0.00     0.170 HD
HETATM    6  H   UNL     1     -20.431 -12.281  -5.566  1.00  0.00     0.165 HD
ENDROOT
BRANCH   4   7
HETATM    7  C   UNL     1     -18.883 -11.096  -6.420  1.00  0.00     0.125 C 
HETATM    8  C   UNL     1     -18.693 -12.076  -7.635  1.00  0.00     0.073 C 
HETATM    9  C   UNL     1     -18.778 -13.554  -7.144  1.00  0.00     0.121 C 
HETATM   10  O   UNL     1     -18.288 -13.650  -5.775  1.00  0.00    -0.335 OA
HETATM   11  C   UNL     1     -17.297 -12.719  -5.534  1.00  0.00     0.080 C 
HETATM   12  C   UNL     1     -15.958 -13.064  -5.461  1.00  0.00     0.061 C 
HETATM   13  C   UNL     1     -17.666 -11.371  -5.570  1.00  0.00    -0.002 C 
HETATM   14  C   UNL     1     -15.018 -12.046  -5.287  1.00  0.00     0.036 C 
HETATM   15 CL   UNL     1     -13.341 -12.387  -5.489  1.00  0.00    -0.084 Cl
HETATM   16  C   UNL     1     -15.419 -10.726  -5.049  1.00  0.00     0.024 C 
HETATM   17  C   UNL     1     -16.761 -10.378  -5.192  1.00  0.00     0.013 C 
BRANCH   9  18
HETATM   18  C   UNL     1     -17.974 -14.626  -7.895  1.00  0.00     0.263 C 
HETATM   19  F   UNL     1     -18.716 -15.015  -8.986  1.00  0.00    -0.252 F 
ENDBRANCH   9  18
BRANCH   9  20
HETATM   20  C   UNL     1     -20.251 -13.988  -7.313  1.00  0.00     0.263 C 
HETATM   21  F   UNL     1     -20.827 -13.170  -8.248  1.00  0.00    -0.252 F 
ENDBRANCH   9  20
ENDBRANCH   4   7
BRANCH   1  22
HETATM   22  C   UNL     1     -20.659  -8.362  -3.652  1.00  0.00     0.047 A 
HETATM   23  C   UNL     1     -20.898  -8.571  -2.264  1.00  0.00     0.004 A 
HETATM   24  C   UNL     1     -20.532  -9.721  -1.523  1.00  0.00     0.039 A 
HETATM   25  C   UNL     1     -21.605  -7.563  -1.569  1.00  0.00    -0.008 A 
HETATM   26  C   UNL     1     -20.855  -9.820  -0.171  1.00  0.00     0.005 A 
HETATM   27  C   UNL     1     -20.404 -10.992   0.651  1.00  0.00     0.068 C 
HETATM   28  N   UNL     1     -21.570  -8.878   0.479  1.00  0.00    -0.369 N 
HETATM   29  C   UNL     1     -21.925  -7.783  -0.230  1.00  0.00     0.100 A 
ATOM     30  HN  UNL     1     -21.831  -8.987   1.459  1.00  0.00     0.165 HD
HETATM   31  C   UNL     1     -22.002  -6.380  -2.218  1.00  0.00     0.014 A 
HETATM   32  C   UNL     1     -21.713  -6.176  -3.562  1.00  0.00     0.003 A 
HETATM   33  C   UNL     1     -21.065  -7.172  -4.278  1.00  0.00     0.030 A 
ENDBRANCH   1  22
TORSDOF 4
ENDMDL
MODEL 5
REMARK VINA RESULT:      -7.8      1.732      3.063
REMARK  4 active torsions:
REMARK  status: ('A' for Active; 'I' for Inactive)
REMARK    1  A    between atoms: C_5  and  N_6 
REMARK       I    between atoms: N_6  and  C_7 
REMARK       I    between atoms: C_7  and  N_9 
REMARK    2  A    between atoms: N_9  and  C_10 
REMARK    3  A    between atoms: C_12  and  C_13 
REMARK    4  A    between atoms: C_12  and  C_15 
ROOT
HETATM    1  N   UNL     1     -18.531  -9.724  -2.798  1.00  0.00    -0.308 N 
HETATM    2  C   UNL     1     -18.700 -11.060  -3.027  1.00  0.00     0.321 C 
HETATM    3  O   UNL     1     -19.651 -11.588  -3.605  1.00  0.00    -0.247 OA
HETATM    4  N   UNL     1     -17.742 -11.846  -2.476  1.00  0.00    -0.334 N 
HETATM    5  H   UNL     1     -18.176  -9.578  -1.865  1.00  0.00     0.170 HD
HETATM    6  H   UNL     1     -18.097 -12.780  -2.308  1.00  0.00     0.165 HD
ENDROOT
BRANCH   4   7
HETATM    7  C   UNL     1     -16.453 -11.492  -1.895  1.00  0.00     0.125 C 
HETATM    8  C   UNL     1     -15.284 -11.435  -2.944  1.00  0.00     0.073 C 
HETATM    9  C   UNL     1     -15.193 -12.789  -3.713  1.00  0.00     0.121 C 
HETATM   10  O   UNL     1     -15.628 -13.879  -2.849  1.00  0.00    -0.335 OA
HETATM   11  C   UNL     1     -15.324 -13.619  -1.528  1.00  0.00     0.080 C 
HETATM   12  C   UNL     1     -14.275 -14.241  -0.872  1.00  0.00     0.061 C 
HETATM   13  C   UNL     1     -15.984 -12.546  -0.922  1.00  0.00    -0.002 C 
HETATM   14  C   UNL     1     -13.996 -13.862   0.443  1.00  0.00     0.036 C 
HETATM   15 CL   UNL     1     -12.533 -14.382   1.191  1.00  0.00    -0.084 Cl
HETATM   16  C   UNL     1     -14.836 -12.982   1.135  1.00  0.00     0.024 C 
HETATM   17  C   UNL     1     -15.846 -12.311   0.447  1.00  0.00     0.013 C 
BRANCH   9  18
HETATM   18  C   UNL     1     -13.821 -13.254  -4.225  1.00  0.00     0.263 C 
HETATM   19  F   UNL     1     -12.860 -12.543  -3.545  1.00  0.00    -0.252 F 
ENDBRANCH   9  18
BRANCH   9  20
HETATM   20  C   UNL     1     -16.047 -12.625  -4.990  1.00  0.00     0.263 C 
HETATM   21  F   UNL     1     -16.127 -11.288  -5.276  1.00  0.00    -0.252 F 
ENDBRANCH   9  20
ENDBRANCH   4   7
BRANCH   1  22
HETATM   22  C   UNL     1     -19.431  -8.724  -3.225  1.00  0.00     0.047 A 
HETATM   23  C   UNL     1     -20.435  -8.147  -2.396  1.00  0.00     0.004 A 
HETATM   24  C   UNL     1     -20.590  -8.365  -1.006  1.00  0.00     0.039 A 
HETATM   25  C   UNL     1     -21.392  -7.316  -3.023  1.00  0.00    -0.008 A 
HETATM   26  C   UNL     1     -21.638  -7.766  -0.311  1.00  0.00     0.005 A 
HETATM   27  C   UNL     1     -21.772  -7.917   1.175  1.00  0.00     0.068 C 
HETATM   28  N   UNL     1     -22.579  -7.011  -0.919  1.00  0.00    -0.369 N 
HETATM   29  C   UNL     1     -22.434  -6.807  -2.247  1.00  0.00     0.100 A 
ATOM     30  HN  UNL     1     -23.361  -6.612  -0.401  1.00  0.00     0.165 HD
HETATM   31  C   UNL     1     -21.316  -7.033  -4.398  1.00  0.00     0.014 A 
HETATM   32  C   UNL     1     -20.297  -7.568  -5.177  1.00  0.00     0.003 A 
HETATM   33  C   UNL     1     -19.375  -8.426  -4.596  1.00  0.00     0.030 A 
ENDBRANCH   1  22
TORSDOF 4
ENDMDL
MODEL 6
REMARK VINA RESULT:      -7.7      3.608      7.865
REMARK  4 active torsions:
REMARK  status: ('A' for Active; 'I' for Inactive)
REMARK    1  A    between atoms: C_5  and  N_6 
REMARK       I    between atoms: N_6  and  C_7 
REMARK       I    between atoms: C_7  and  N_9 
REMARK    2  A    between atoms: N_9  and  C_10 
REMARK    3  A    between atoms: C_12  and  C_13 
REMARK    4  A    between atoms: C_12  and  C_15 
ROOT
HETATM    1  N   UNL     1     -17.559 -10.960  -1.670  1.00  0.00    -0.308 N 
HETATM    2  C   UNL     1     -18.853 -11.366  -1.837  1.00  0.00     0.321 C 
HETATM    3  O   UNL     1     -19.314 -12.472  -1.553  1.00  0.00    -0.247 OA
HETATM    4  N   UNL     1     -19.649 -10.456  -2.451  1.00  0.00    -0.334 N 
HETATM    5  H   UNL     1     -17.261 -10.429  -2.474  1.00  0.00     0.170 HD
HETATM    6  H   UNL     1     -20.428 -10.912  -2.911  1.00  0.00     0.165 HD
ENDROOT
BRANCH   4   7
HETATM    7  C   UNL     1     -19.417  -9.047  -2.741  1.00  0.00     0.125 C 
HETATM    8  C   UNL     1     -19.976  -8.076  -1.637  1.00  0.00     0.073 C 
HETATM    9  C   UNL     1     -21.493  -8.353  -1.405  1.00  0.00     0.121 C 
HETATM   10  O   UNL     1     -22.106  -8.822  -2.641  1.00  0.00    -0.335 OA
HETATM   11  C   UNL     1     -21.494  -8.262  -3.744  1.00  0.00     0.080 C 
HETATM   12  C   UNL     1     -22.077  -7.244  -4.479  1.00  0.00     0.061 C 
HETATM   13  C   UNL     1     -20.162  -8.614  -3.980  1.00  0.00    -0.002 C 
HETATM   14  C   UNL     1     -21.353  -6.687  -5.535  1.00  0.00     0.036 C 
HETATM   15 CL   UNL     1     -21.905  -5.235  -6.279  1.00  0.00    -0.084 Cl
HETATM   16  C   UNL     1     -20.129  -7.233  -5.938  1.00  0.00     0.024 C 
HETATM   17  C   UNL     1     -19.519  -8.210  -5.153  1.00  0.00     0.013 C 
BRANCH   9  18
HETATM   18  C   UNL     1     -22.395  -7.189  -0.968  1.00  0.00     0.263 C 
HETATM   19  F   UNL     1     -21.846  -6.028  -1.464  1.00  0.00    -0.252 F 
ENDBRANCH   9  18
BRANCH   9  20
HETATM   20  C   UNL     1     -21.580  -9.366  -0.240  1.00  0.00     0.263 C 
HETATM   21  F   UNL     1     -21.781  -8.662   0.917  1.00  0.00    -0.252 F 
ENDBRANCH   9  20
ENDBRANCH   4   7
BRANCH   1  22
HETATM   22  C   UNL     1     -16.541 -11.760  -1.109  1.00  0.00     0.047 A 
HETATM   23  C   UNL     1     -15.469 -12.327  -1.854  1.00  0.00     0.004 A 
HETATM   24  C   UNL     1     -15.172 -12.063  -3.214  1.00  0.00     0.039 A 
HETATM   25  C   UNL     1     -14.651 -13.274  -1.195  1.00  0.00    -0.008 A 
HETATM   26  C   UNL     1     -14.111 -12.711  -3.842  1.00  0.00     0.005 A 
HETATM   27  C   UNL     1     -13.728 -12.385  -5.255  1.00  0.00     0.068 C 
HETATM   28  N   UNL     1     -13.361 -13.649  -3.225  1.00  0.00    -0.369 N 
HETATM   29  C   UNL     1     -13.648 -13.906  -1.929  1.00  0.00     0.100 A 
ATOM     30  HN  UNL     1     -12.613 -14.142  -3.713  1.00  0.00     0.165 HD
HETATM   31  C   UNL     1     -14.863 -13.595   0.158  1.00  0.00     0.014 A 
HETATM   32  C   UNL     1     -15.885 -12.990   0.879  1.00  0.00     0.003 A 
HETATM   33  C   UNL     1     -16.731 -12.095   0.242  1.00  0.00     0.030 A 
ENDBRANCH   1  22
TORSDOF 4
ENDMDL
MODEL 7
REMARK VINA RESULT:      -7.6      2.026      3.250
REMARK  4 active torsions:
REMARK  status: ('A' for Active; 'I' for Inactive)
REMARK    1  A    between atoms: C_5  and  N_6 
REMARK       I    between atoms: N_6  and  C_7 
REMARK       I    between atoms: C_7  and  N_9 
REMARK    2  A    between atoms: N_9  and  C_10 
REMARK    3  A    between atoms: C_12  and  C_13 
REMARK    4  A    between atoms: C_12  and  C_15 
ROOT
HETATM    1  N   UNL     1     -19.536  -9.756  -1.724  1.00  0.00    -0.308 N 
HETATM    2  C   UNL     1     -19.457  -9.922  -3.078  1.00  0.00     0.321 C 
HETATM    3  O   UNL     1     -20.392  -9.862  -3.877  1.00  0.00    -0.247 OA
HETATM    4  N   UNL     1     -18.224 -10.259  -3.528  1.00  0.00    -0.334 N 
HETATM    5  H   UNL     1     -18.955 -10.439  -1.261  1.00  0.00     0.170 HD
HETATM    6  H   UNL     1     -18.286 -10.756  -4.409  1.00  0.00     0.165 HD
ENDROOT
BRANCH   4   7
HETATM    7  C   UNL     1     -16.936 -10.240  -2.847  1.00  0.00     0.125 C 
HETATM    8  C   UNL     1     -15.709 -10.108  -3.821  1.00  0.00     0.073 C 
HETATM    9  C   UNL     1     -15.755 -11.243  -4.890  1.00  0.00     0.121 C 
HETATM   10  O   UNL     1     -16.381 -12.431  -4.324  1.00  0.00    -0.335 OA
HETATM   11  C   UNL     1     -16.124 -12.533  -2.972  1.00  0.00     0.080 C 
HETATM   12  C   UNL     1     -15.208 -13.435  -2.457  1.00  0.00     0.061 C 
HETATM   13  C   UNL     1     -16.669 -11.548  -2.143  1.00  0.00    -0.002 C 
HETATM   14  C   UNL     1     -14.958 -13.419  -1.084  1.00  0.00     0.036 C 
HETATM   15 CL   UNL     1     -13.625 -14.304  -0.446  1.00  0.00    -0.084 Cl
HETATM   16  C   UNL     1     -15.713 -12.613  -0.223  1.00  0.00     0.024 C 
HETATM   17  C   UNL     1     -16.581 -11.663  -0.754  1.00  0.00     0.013 C 
BRANCH   9  18
HETATM   18  C   UNL     1     -14.430 -11.767  -5.464  1.00  0.00     0.263 C 
HETATM   19  F   UNL     1     -14.568 -11.841  -6.831  1.00  0.00    -0.252 F 
ENDBRANCH   9  18
BRANCH   9  20
HETATM   20  C   UNL     1     -16.503 -10.664  -6.112  1.00  0.00     0.263 C 
HETATM   21  F   UNL     1     -16.170  -9.339  -6.222  1.00  0.00    -0.252 F 
ENDBRANCH   9  20
ENDBRANCH   4   7
BRANCH   1  22
HETATM   22  C   UNL     1     -20.727  -9.460  -1.028  1.00  0.00     0.047 A 
HETATM   23  C   UNL     1     -21.730 -10.422  -0.714  1.00  0.00     0.004 A 
HETATM   24  C   UNL     1     -21.628 -11.821  -0.911  1.00  0.00     0.039 A 
HETATM   25  C   UNL     1     -22.956  -9.937  -0.204  1.00  0.00    -0.008 A 
HETATM   26  C   UNL     1     -22.697 -12.656  -0.594  1.00  0.00     0.005 A 
HETATM   27  C   UNL     1     -22.580 -14.147  -0.716  1.00  0.00     0.068 C 
HETATM   28  N   UNL     1     -23.883 -12.187  -0.151  1.00  0.00    -0.369 N 
HETATM   29  C   UNL     1     -23.982 -10.851   0.031  1.00  0.00     0.100 A 
ATOM     30  HN  UNL     1     -24.667 -12.811   0.038  1.00  0.00     0.165 HD
HETATM   31  C   UNL     1     -23.148  -8.564   0.034  1.00  0.00     0.014 A 
HETATM   32  C   UNL     1     -22.136  -7.649  -0.233  1.00  0.00     0.003 A 
HETATM   33  C   UNL     1     -20.943  -8.094  -0.781  1.00  0.00     0.030 A 
ENDBRANCH   1  22
TORSDOF 4
ENDMDL
MODEL 8
REMARK VINA RESULT:      -7.6     20.000     21.267
REMARK  4 active torsions:
REMARK  status: ('A' for Active; 'I' for Inactive)
REMARK    1  A    between atoms: C_5  and  N_6 
REMARK       I    between atoms: N_6  and  C_7 
REMARK       I    between atoms: C_7  and  N_9 
REMARK    2  A    between atoms: N_9  and  C_10 
REMARK    3  A    between atoms: C_12  and  C_13 
REMARK    4  A    between atoms: C_12  and  C_15 
ROOT
HETATM    1  N   UNL     1     -22.063   8.965   1.453  1.00  0.00    -0.308 N 
HETATM    2  C   UNL     1     -21.548  10.193   1.758  1.00  0.00     0.321 C 
HETATM    3  O   UNL     1     -22.097  11.280   1.579  1.00  0.00    -0.247 OA
HETATM    4  N   UNL     1     -20.277  10.163   2.229  1.00  0.00    -0.334 N 
HETATM    5  H   UNL     1     -21.345   8.383   1.047  1.00  0.00     0.170 HD
HETATM    6  H   UNL     1     -19.808  11.044   2.054  1.00  0.00     0.165 HD
ENDROOT
BRANCH   4   7
HETATM    7  C   UNL     1     -19.467   9.039   2.682  1.00  0.00     0.125 C 
HETATM    8  C   UNL     1     -19.821   8.552   4.134  1.00  0.00     0.073 C 
HETATM    9  C   UNL     1     -19.723   9.746   5.134  1.00  0.00     0.121 C 
HETATM   10  O   UNL     1     -18.709  10.690   4.681  1.00  0.00    -0.335 OA
HETATM   11  C   UNL     1     -17.690  10.042   4.013  1.00  0.00     0.080 C 
HETATM   12  C   UNL     1     -16.449   9.822   4.587  1.00  0.00     0.061 C 
HETATM   13  C   UNL     1     -18.013   9.426   2.800  1.00  0.00    -0.002 C 
HETATM   14  C   UNL     1     -15.502   9.093   3.865  1.00  0.00     0.036 C 
HETATM   15 CL   UNL     1     -14.069   8.541   4.647  1.00  0.00    -0.084 Cl
HETATM   16  C   UNL     1     -15.740   8.715   2.538  1.00  0.00     0.024 C 
HETATM   17  C   UNL     1     -17.012   8.881   1.993  1.00  0.00     0.013 C 
BRANCH   9  18
HETATM   18  C   UNL     1     -19.328   9.456   6.590  1.00  0.00     0.263 C 
HETATM   19  F   UNL     1     -18.753  10.597   7.101  1.00  0.00    -0.252 F 
ENDBRANCH   9  18
BRANCH   9  20
HETATM   20  C   UNL     1     -21.141  10.352   5.232  1.00  0.00     0.263 C 
HETATM   21  F   UNL     1     -22.043   9.366   4.932  1.00  0.00    -0.252 F 
ENDBRANCH   9  20
ENDBRANCH   4   7
BRANCH   1  22
HETATM   22  C   UNL     1     -23.343   8.756   0.896  1.00  0.00     0.047 A 
HETATM   23  C   UNL     1     -24.564   9.047   1.568  1.00  0.00     0.004 A 
HETATM   24  C   UNL     1     -24.688   9.717   2.810  1.00  0.00     0.039 A 
HETATM   25  C   UNL     1     -25.759   8.588   0.968  1.00  0.00    -0.008 A 
HETATM   26  C   UNL     1     -25.943   9.912   3.383  1.00  0.00     0.005 A 
HETATM   27  C   UNL     1     -26.104  10.690   4.655  1.00  0.00     0.068 C 
HETATM   28  N   UNL     1     -27.079   9.432   2.832  1.00  0.00    -0.369 N 
HETATM   29  C   UNL     1     -26.959   8.787   1.650  1.00  0.00     0.100 A 
ATOM     30  HN  UNL     1     -27.985   9.550   3.286  1.00  0.00     0.165 HD
HETATM   31  C   UNL     1     -25.737   7.921  -0.269  1.00  0.00     0.014 A 
HETATM   32  C   UNL     1     -24.537   7.692  -0.932  1.00  0.00     0.003 A 
HETATM   33  C   UNL     1     -23.347   8.089  -0.340  1.00  0.00     0.030 A 
ENDBRANCH   1  22
TORSDOF 4
ENDMDL
MODEL 9
REMARK VINA RESULT:      -7.5      2.987      4.556
REMARK  4 active torsions:
REMARK  status: ('A' for Active; 'I' for Inactive)
REMARK    1  A    between atoms: C_5  and  N_6 
REMARK       I    between atoms: N_6  and  C_7 
REMARK       I    between atoms: C_7  and  N_9 
REMARK    2  A    between atoms: N_9  and  C_10 
REMARK    3  A    between atoms: C_12  and  C_13 
REMARK    4  A    between atoms: C_12  and  C_15 
ROOT
HETATM    1  N   UNL     1     -19.213  -9.667  -3.902  1.00  0.00    -0.308 N 
HETATM    2  C   UNL     1     -17.991  -9.893  -3.334  1.00  0.00     0.321 C 
HETATM    3  O   UNL     1     -17.319  -9.079  -2.700  1.00  0.00    -0.247 OA
HETATM    4  N   UNL     1     -17.478 -11.122  -3.585  1.00  0.00    -0.334 N 
HETATM    5  H   UNL     1     -19.251 -10.098  -4.814  1.00  0.00     0.170 HD
HETATM    6  H   UNL     1     -16.467 -11.110  -3.518  1.00  0.00     0.165 HD
ENDROOT
BRANCH   4   7
HETATM    7  C   UNL     1     -18.108 -12.308  -4.151  1.00  0.00     0.125 C 
HETATM    8  C   UNL     1     -17.328 -13.640  -3.853  1.00  0.00     0.073 C 
HETATM    9  C   UNL     1     -15.851 -13.511  -4.339  1.00  0.00     0.121 C 
HETATM   10  O   UNL     1     -15.784 -12.621  -5.491  1.00  0.00    -0.335 OA
HETATM   11  C   UNL     1     -16.935 -12.702  -6.250  1.00  0.00     0.080 C 
HETATM   12  C   UNL     1     -16.980 -13.377  -7.458  1.00  0.00     0.061 C 
HETATM   13  C   UNL     1     -18.120 -12.253  -5.660  1.00  0.00    -0.002 C 
HETATM   14  C   UNL     1     -18.205 -13.470  -8.122  1.00  0.00     0.036 C 
HETATM   15 CL   UNL     1     -18.373 -14.542  -9.460  1.00  0.00    -0.084 Cl
HETATM   16  C   UNL     1     -19.332 -12.781  -7.658  1.00  0.00     0.024 C 
HETATM   17  C   UNL     1     -19.295 -12.163  -6.410  1.00  0.00     0.013 C 
BRANCH   9  18
HETATM   18  C   UNL     1     -15.119 -14.776  -4.811  1.00  0.00     0.263 C 
HETATM   19  F   UNL     1     -14.168 -15.085  -3.865  1.00  0.00    -0.252 F 
ENDBRANCH   9  18
BRANCH   9  20
HETATM   20  C   UNL     1     -15.032 -13.022  -3.123  1.00  0.00     0.263 C 
HETATM   21  F   UNL     1     -15.707 -13.382  -1.987  1.00  0.00    -0.252 F 
ENDBRANCH   9  20
ENDBRANCH   4   7
BRANCH   1  22
HETATM   22  C   UNL     1     -19.912  -8.444  -3.824  1.00  0.00     0.047 A 
HETATM   23  C   UNL     1     -20.628  -8.005  -2.673  1.00  0.00     0.004 A 
HETATM   24  C   UNL     1     -20.628  -8.636  -1.405  1.00  0.00     0.039 A 
HETATM   25  C   UNL     1     -21.450  -6.864  -2.818  1.00  0.00    -0.008 A 
HETATM   26  C   UNL     1     -21.400  -8.125  -0.365  1.00  0.00     0.005 A 
HETATM   27  C   UNL     1     -21.351  -8.728   1.008  1.00  0.00     0.068 C 
HETATM   28  N   UNL     1     -22.220  -7.063  -0.518  1.00  0.00    -0.369 N 
HETATM   29  C   UNL     1     -22.225  -6.465  -1.730  1.00  0.00     0.100 A 
ATOM     30  HN  UNL     1     -22.808  -6.728   0.245  1.00  0.00     0.165 HD
HETATM   31  C   UNL     1     -21.508  -6.164  -4.037  1.00  0.00     0.014 A 
HETATM   32  C   UNL     1     -20.761  -6.582  -5.132  1.00  0.00     0.003 A 
HETATM   33  C   UNL     1     -19.986  -7.728  -5.030  1.00  0.00     0.030 A 
ENDBRANCH   1  22
TORSDOF 4
ENDMDL
