REMARK  3 active torsions:
REMARK  status: ('A' for Active; 'I' for Inactive)
REMARK    1  A    between atoms: N_9  and  C_10 
REMARK    2  A    between atoms: C_10  and  C_11 
REMARK    3  A    between atoms: C_15  and  C_16 
ROOT
HETATM    1  C   UNL     1       1.462   0.502   0.644  1.00  0.00     0.050 C 
HETATM    2  C   UNL     1       2.903   0.199   0.373  1.00  0.00    -0.033 A 
HETATM    3  C   UNL     1       3.797   1.295   0.310  1.00  0.00     0.033 A 
HETATM    4  C   UNL     1       5.173   1.115   0.113  1.00  0.00     0.035 A 
HETATM    5 CL   UNL     1       6.214   2.483   0.029  1.00  0.00    -0.084 Cl
HETATM    6  C   UNL     1       5.705  -0.159  -0.011  1.00  0.00     0.036 A 
HETATM    7  C   UNL     1       4.826  -1.235   0.028  1.00  0.00     0.018 A 
HETATM    8  C   UNL     1       3.434  -1.073   0.174  1.00  0.00     0.053 A 
HETATM    9  N   UNL     1       2.824  -2.345   0.050  1.00  0.00    -0.310 N 
HETATM   10  C   UNL     1       3.785  -3.354  -0.168  1.00  0.00     0.268 C 
HETATM   11  O   UNL     1       3.567  -4.529  -0.427  1.00  0.00    -0.269 OA
HETATM   12  C   UNL     1       5.163  -2.690  -0.085  1.00  0.00     0.227 A 
HETATM   13  N   UNL     1       6.044  -2.992  -1.183  1.00  0.00    -0.313 N 
HETATM   14  C   UNL     1       7.145  -3.696  -0.765  1.00  0.00     0.324 A 
HETATM   15  O   UNL     1       8.016  -4.129  -1.495  1.00  0.00    -0.247 OA
HETATM   16  N   UNL     1       7.109  -3.803   0.585  1.00  0.00    -0.276 N 
HETATM   17  C   UNL     1       5.973  -3.237   1.087  1.00  0.00     0.268 A 
HETATM   18  O   UNL     1       5.684  -3.192   2.273  1.00  0.00    -0.269 OA
HETATM   19  H   UNL     1       5.830  -2.885  -2.165  1.00  0.00     0.166 HD
HETATM   20  H   UNL     1       7.814  -4.268   1.133  1.00  0.00     0.173 HD
ENDROOT
BRANCH   9  21
HETATM   21  C   UNL     1       1.413  -2.642  -0.086  1.00  0.00     0.171 C 
BRANCH  21  22
HETATM   22  C   UNL     1       0.751  -3.281   1.121  1.00  0.00    -0.039 A 
HETATM   23  C   UNL     1       1.337  -3.300   2.393  1.00  0.00     0.009 A 
HETATM   24  C   UNL     1       0.728  -3.983   3.448  1.00  0.00     0.001 A 
HETATM   25  C   UNL     1      -0.480  -4.653   3.252  1.00  0.00     0.016 A 
HETATM   26  C   UNL     1      -1.104  -4.633   2.000  1.00  0.00     0.048 A 
HETATM   27  C   UNL     1      -0.492  -3.924   0.950  1.00  0.00     0.025 A 
BRANCH  26  28
HETATM   28  C   UNL     1      -2.395  -5.382   1.764  1.00  0.00     0.417 C 
HETATM   29  F   UNL     1      -2.778  -6.159   2.816  1.00  0.00    -0.166 F 
HETATM   30  F   UNL     1      -3.444  -4.550   1.514  1.00  0.00    -0.166 F 
HETATM   31  F   UNL     1      -2.322  -6.220   0.692  1.00  0.00    -0.166 F 
ENDBRANCH  26  28
ENDBRANCH  21  22
ENDBRANCH   9  21
TORSDOF 3
