MODEL 1
REMARK VINA RESULT:      -8.8      0.000      0.000
REMARK  3 active torsions:
REMARK  status: ('A' for Active; 'I' for Inactive)
REMARK    1  A    between atoms: N_9  and  C_10 
REMARK    2  A    between atoms: C_10  and  C_11 
REMARK    3  A    between atoms: C_15  and  C_16 
ROOT
HETATM    1  C   UNL     1     -21.980  -6.958  -1.383  1.00  0.00     0.050 C 
HETATM    2  C   UNL     1     -21.215  -7.501  -2.550  1.00  0.00    -0.033 A 
HETATM    3  C   UNL     1     -21.351  -6.826  -3.787  1.00  0.00     0.033 A 
HETATM    4  C   UNL     1     -20.638  -7.222  -4.927  1.00  0.00     0.035 A 
HETATM    5 CL   UNL     1     -20.851  -6.376  -6.410  1.00  0.00    -0.084 Cl
HETATM    6  C   UNL     1     -19.756  -8.290  -4.868  1.00  0.00     0.036 A 
HETATM    7  C   UNL     1     -19.638  -8.968  -3.661  1.00  0.00     0.018 A 
HETATM    8  C   UNL     1     -20.384  -8.618  -2.518  1.00  0.00     0.053 A 
HETATM    9  N   UNL     1     -20.123  -9.575  -1.507  1.00  0.00    -0.310 N 
HETATM   10  C   UNL     1     -19.210 -10.553  -1.953  1.00  0.00     0.268 C 
HETATM   11  O   UNL     1     -18.876 -11.568  -1.358  1.00  0.00    -0.269 OA
HETATM   12  C   UNL     1     -18.759 -10.143  -3.358  1.00  0.00     0.227 A 
HETATM   13  N   UNL     1     -18.838 -11.188  -4.345  1.00  0.00    -0.313 N 
HETATM   14  C   UNL     1     -17.596 -11.528  -4.818  1.00  0.00     0.324 A 
HETATM   15  O   UNL     1     -17.371 -12.421  -5.612  1.00  0.00    -0.247 OA
HETATM   16  N   UNL     1     -16.678 -10.694  -4.273  1.00  0.00    -0.276 N 
HETATM   17  C   UNL     1     -17.266  -9.832  -3.394  1.00  0.00     0.268 A 
HETATM   18  O   UNL     1     -16.673  -8.972  -2.760  1.00  0.00    -0.269 OA
HETATM   19  H   UNL     1     -19.652 -11.751  -4.553  1.00  0.00     0.166 HD
HETATM   20  H   UNL     1     -15.692 -10.733  -4.473  1.00  0.00     0.173 HD
ENDROOT
BRANCH   9  21
HETATM   21  C   UNL     1     -20.820  -9.749  -0.250  1.00  0.00     0.171 C 
BRANCH  21  22
HETATM   22  C   UNL     1     -21.968 -10.742  -0.260  1.00  0.00    -0.039 A 
HETATM   23  C   UNL     1     -23.079 -10.616  -1.103  1.00  0.00     0.009 A 
HETATM   24  C   UNL     1     -24.151 -11.506  -1.006  1.00  0.00     0.001 A 
HETATM   25  C   UNL     1     -24.128 -12.541  -0.071  1.00  0.00     0.016 A 
HETATM   26  C   UNL     1     -23.021 -12.710   0.769  1.00  0.00     0.048 A 
HETATM   27  C   UNL     1     -21.938 -11.820   0.649  1.00  0.00     0.025 A 
BRANCH  26  28
HETATM   28  C   UNL     1     -22.996 -13.805   1.810  1.00  0.00     0.417 C 
HETATM   29  F   UNL     1     -21.875 -13.799   2.585  1.00  0.00    -0.166 F 
HETATM   30  F   UNL     1     -24.047 -13.729   2.674  1.00  0.00    -0.166 F 
HETATM   31  F   UNL     1     -23.059 -15.049   1.258  1.00  0.00    -0.166 F 
ENDBRANCH  26  28
ENDBRANCH  21  22
ENDBRANCH   9  21
TORSDOF 3
ENDMDL
MODEL 2
REMARK VINA RESULT:      -8.7      3.577      5.332
REMARK  3 active torsions:
REMARK  status: ('A' for Active; 'I' for Inactive)
REMARK    1  A    between atoms: N_9  and  C_10 
REMARK    2  A    between atoms: C_10  and  C_11 
REMARK    3  A    between atoms: C_15  and  C_16 
ROOT
HETATM    1  C   UNL     1     -16.256  -9.437  -2.678  1.00  0.00     0.050 C 
HETATM    2  C   UNL     1     -16.296 -10.324  -3.884  1.00  0.00    -0.033 A 
HETATM    3  C   UNL     1     -15.068 -10.868  -4.332  1.00  0.00     0.033 A 
HETATM    4  C   UNL     1     -15.004 -11.750  -5.419  1.00  0.00     0.035 A 
HETATM    5 CL   UNL     1     -13.483 -12.371  -5.932  1.00  0.00    -0.084 Cl
HETATM    6  C   UNL     1     -16.159 -12.131  -6.084  1.00  0.00     0.036 A 
HETATM    7  C   UNL     1     -17.362 -11.580  -5.660  1.00  0.00     0.018 A 
HETATM    8  C   UNL     1     -17.442 -10.653  -4.603  1.00  0.00     0.053 A 
HETATM    9  N   UNL     1     -18.781 -10.200  -4.510  1.00  0.00    -0.310 N 
HETATM   10  C   UNL     1     -19.597 -10.814  -5.482  1.00  0.00     0.268 C 
HETATM   11  O   UNL     1     -20.765 -10.550  -5.731  1.00  0.00    -0.269 OA
HETATM   12  C   UNL     1     -18.728 -11.838  -6.220  1.00  0.00     0.227 A 
HETATM   13  N   UNL     1     -18.786 -11.753  -7.656  1.00  0.00    -0.313 N 
HETATM   14  C   UNL     1     -19.335 -12.884  -8.204  1.00  0.00     0.324 A 
HETATM   15  O   UNL     1     -19.556 -13.050  -9.389  1.00  0.00    -0.247 OA
HETATM   16  N   UNL     1     -19.564 -13.782  -7.217  1.00  0.00    -0.276 N 
HETATM   17  C   UNL     1     -19.236 -13.259  -5.999  1.00  0.00     0.268 A 
HETATM   18  O   UNL     1     -19.343 -13.852  -4.936  1.00  0.00    -0.269 OA
HETATM   19  H   UNL     1     -18.629 -10.922  -8.210  1.00  0.00     0.166 HD
HETATM   20  H   UNL     1     -19.955 -14.698  -7.366  1.00  0.00     0.173 HD
ENDROOT
BRANCH   9  21
HETATM   21  C   UNL     1     -19.290  -9.094  -3.725  1.00  0.00     0.171 C 
BRANCH  21  22
HETATM   22  C   UNL     1     -19.872  -9.456  -2.371  1.00  0.00    -0.039 A 
HETATM   23  C   UNL     1     -19.641 -10.687  -1.744  1.00  0.00     0.009 A 
HETATM   24  C   UNL     1     -20.276 -11.005  -0.542  1.00  0.00     0.001 A 
HETATM   25  C   UNL     1     -21.149 -10.096   0.058  1.00  0.00     0.016 A 
HETATM   26  C   UNL     1     -21.382  -8.848  -0.529  1.00  0.00     0.048 A 
HETATM   27  C   UNL     1     -20.720  -8.530  -1.729  1.00  0.00     0.025 A 
BRANCH  26  28
HETATM   28  C   UNL     1     -22.350  -7.867   0.091  1.00  0.00     0.417 C 
HETATM   29  F   UNL     1     -22.593  -6.773  -0.684  1.00  0.00    -0.166 F 
HETATM   30  F   UNL     1     -23.567  -8.422   0.344  1.00  0.00    -0.166 F 
HETATM   31  F   UNL     1     -21.907  -7.384   1.285  1.00  0.00    -0.166 F 
ENDBRANCH  26  28
ENDBRANCH  21  22
ENDBRANCH   9  21
TORSDOF 3
ENDMDL
MODEL 3
REMARK VINA RESULT:      -8.5      4.510      5.870
REMARK  3 active torsions:
REMARK  status: ('A' for Active; 'I' for Inactive)
REMARK    1  A    between atoms: N_9  and  C_10 
REMARK    2  A    between atoms: C_10  and  C_11 
REMARK    3  A    between atoms: C_15  and  C_16 
ROOT
HETATM    1  C   UNL     1     -22.462 -11.392  -3.301  1.00  0.00     0.050 C 
HETATM    2  C   UNL     1     -21.278 -11.852  -4.095  1.00  0.00    -0.033 A 
HETATM    3  C   UNL     1     -21.488 -12.895  -5.029  1.00  0.00     0.033 A 
HETATM    4  C   UNL     1     -20.458 -13.362  -5.857  1.00  0.00     0.035 A 
HETATM    5 CL   UNL     1     -20.762 -14.643  -6.965  1.00  0.00    -0.084 Cl
HETATM    6  C   UNL     1     -19.194 -12.797  -5.794  1.00  0.00     0.036 A 
HETATM    7  C   UNL     1     -18.980 -11.788  -4.862  1.00  0.00     0.018 A 
HETATM    8  C   UNL     1     -19.988 -11.339  -3.985  1.00  0.00     0.053 A 
HETATM    9  N   UNL     1     -19.413 -10.404  -3.091  1.00  0.00    -0.310 N 
HETATM   10  C   UNL     1     -18.042 -10.215  -3.360  1.00  0.00     0.268 C 
HETATM   11  O   UNL     1     -17.249  -9.563  -2.696  1.00  0.00    -0.269 OA
HETATM   12  C   UNL     1     -17.710 -11.035  -4.611  1.00  0.00     0.227 A 
HETATM   13  N   UNL     1     -16.554 -11.884  -4.485  1.00  0.00    -0.313 N 
HETATM   14  C   UNL     1     -15.552 -11.499  -5.339  1.00  0.00     0.324 A 
HETATM   15  O   UNL     1     -14.448 -12.006  -5.395  1.00  0.00    -0.247 OA
HETATM   16  N   UNL     1     -16.006 -10.486  -6.117  1.00  0.00    -0.276 N 
HETATM   17  C   UNL     1     -17.278 -10.136  -5.766  1.00  0.00     0.268 A 
HETATM   18  O   UNL     1     -17.929  -9.253  -6.302  1.00  0.00    -0.269 OA
HETATM   19  H   UNL     1     -16.390 -12.561  -3.753  1.00  0.00     0.166 HD
HETATM   20  H   UNL     1     -15.460 -10.037  -6.833  1.00  0.00     0.173 HD
ENDROOT
BRANCH   9  21
HETATM   21  C   UNL     1     -20.003  -9.847  -1.891  1.00  0.00     0.171 C 
BRANCH  21  22
HETATM   22  C   UNL     1     -20.700  -8.508  -2.055  1.00  0.00    -0.039 A 
HETATM   23  C   UNL     1     -21.487  -7.929  -1.053  1.00  0.00     0.009 A 
HETATM   24  C   UNL     1     -22.181  -6.740  -1.289  1.00  0.00     0.001 A 
HETATM   25  C   UNL     1     -22.096  -6.107  -2.530  1.00  0.00     0.016 A 
HETATM   26  C   UNL     1     -21.299  -6.647  -3.545  1.00  0.00     0.048 A 
HETATM   27  C   UNL     1     -20.587  -7.833  -3.288  1.00  0.00     0.025 A 
BRANCH  26  28
HETATM   28  C   UNL     1     -21.223  -5.991  -4.904  1.00  0.00     0.417 C 
HETATM   29  F   UNL     1     -22.442  -5.726  -5.454  1.00  0.00    -0.166 F 
HETATM   30  F   UNL     1     -20.561  -4.801  -4.874  1.00  0.00    -0.166 F 
HETATM   31  F   UNL     1     -20.565  -6.760  -5.817  1.00  0.00    -0.166 F 
ENDBRANCH  26  28
ENDBRANCH  21  22
ENDBRANCH   9  21
TORSDOF 3
ENDMDL
MODEL 4
REMARK VINA RESULT:      -8.4      3.432      5.121
REMARK  3 active torsions:
REMARK  status: ('A' for Active; 'I' for Inactive)
REMARK    1  A    between atoms: N_9  and  C_10 
REMARK    2  A    between atoms: C_10  and  C_11 
REMARK    3  A    between atoms: C_15  and  C_16 
ROOT
HETATM    1  C   UNL     1     -22.416 -11.677  -4.098  1.00  0.00     0.050 C 
HETATM    2  C   UNL     1     -21.398 -12.228  -3.149  1.00  0.00    -0.033 A 
HETATM    3  C   UNL     1     -21.720 -13.431  -2.476  1.00  0.00     0.033 A 
HETATM    4  C   UNL     1     -20.816 -14.056  -1.607  1.00  0.00     0.035 A 
HETATM    5 CL   UNL     1     -21.265 -15.510  -0.802  1.00  0.00    -0.084 Cl
HETATM    6  C   UNL     1     -19.558 -13.515  -1.392  1.00  0.00     0.036 A 
HETATM    7  C   UNL     1     -19.248 -12.321  -2.034  1.00  0.00     0.018 A 
HETATM    8  C   UNL     1     -20.161 -11.651  -2.871  1.00  0.00     0.053 A 
HETATM    9  N   UNL     1     -19.583 -10.418  -3.261  1.00  0.00    -0.310 N 
HETATM   10  C   UNL     1     -18.297 -10.258  -2.704  1.00  0.00     0.268 C 
HETATM   11  O   UNL     1     -17.594  -9.259  -2.760  1.00  0.00    -0.269 OA
HETATM   12  C   UNL     1     -17.965 -11.553  -1.955  1.00  0.00     0.227 A 
HETATM   13  N   UNL     1     -17.489 -11.365  -0.609  1.00  0.00    -0.313 N 
HETATM   14  C   UNL     1     -16.192 -11.790  -0.471  1.00  0.00     0.324 A 
HETATM   15  O   UNL     1     -15.529 -11.691   0.544  1.00  0.00    -0.247 OA
HETATM   16  N   UNL     1     -15.790 -12.354  -1.635  1.00  0.00    -0.276 N 
HETATM   17  C   UNL     1     -16.770 -12.265  -2.581  1.00  0.00     0.268 A 
HETATM   18  O   UNL     1     -16.676 -12.693  -3.722  1.00  0.00    -0.269 OA
HETATM   19  H   UNL     1     -17.947 -10.827   0.114  1.00  0.00     0.166 HD
HETATM   20  H   UNL     1     -14.878 -12.753  -1.783  1.00  0.00     0.173 HD
ENDROOT
BRANCH   9  21
HETATM   21  C   UNL     1     -20.228  -9.309  -3.934  1.00  0.00     0.171 C 
BRANCH  21  22
HETATM   22  C   UNL     1     -20.993  -8.348  -3.043  1.00  0.00    -0.039 A 
HETATM   23  C   UNL     1     -21.211  -7.005  -3.377  1.00  0.00     0.009 A 
HETATM   24  C   UNL     1     -21.839  -6.140  -2.479  1.00  0.00     0.001 A 
HETATM   25  C   UNL     1     -22.267  -6.603  -1.234  1.00  0.00     0.016 A 
HETATM   26  C   UNL     1     -22.086  -7.944  -0.879  1.00  0.00     0.048 A 
HETATM   27  C   UNL     1     -21.471  -8.811  -1.800  1.00  0.00     0.025 A 
BRANCH  26  28
HETATM   28  C   UNL     1     -22.513  -8.451   0.479  1.00  0.00     0.417 C 
HETATM   29  F   UNL     1     -21.590  -8.240   1.459  1.00  0.00    -0.166 F 
HETATM   30  F   UNL     1     -23.663  -7.867   0.918  1.00  0.00    -0.166 F 
HETATM   31  F   UNL     1     -22.755  -9.792   0.481  1.00  0.00    -0.166 F 
ENDBRANCH  26  28
ENDBRANCH  21  22
ENDBRANCH   9  21
TORSDOF 3
ENDMDL
MODEL 5
REMARK VINA RESULT:      -8.0      3.790      5.507
REMARK  3 active torsions:
REMARK  status: ('A' for Active; 'I' for Inactive)
REMARK    1  A    between atoms: N_9  and  C_10 
REMARK    2  A    between atoms: C_10  and  C_11 
REMARK    3  A    between atoms: C_15  and  C_16 
ROOT
HETATM    1  C   UNL     1     -21.704 -12.027  -6.768  1.00  0.00     0.050 C 
HETATM    2  C   UNL     1     -20.253 -12.381  -6.869  1.00  0.00    -0.033 A 
HETATM    3  C   UNL     1     -19.842 -13.119  -8.005  1.00  0.00     0.033 A 
HETATM    4  C   UNL     1     -18.498 -13.456  -8.219  1.00  0.00     0.035 A 
HETATM    5 CL   UNL     1     -18.053 -14.368  -9.609  1.00  0.00    -0.084 Cl
HETATM    6  C   UNL     1     -17.521 -13.056  -7.321  1.00  0.00     0.036 A 
HETATM    7  C   UNL     1     -17.926 -12.350  -6.194  1.00  0.00     0.018 A 
HETATM    8  C   UNL     1     -19.277 -12.046  -5.934  1.00  0.00     0.053 A 
HETATM    9  N   UNL     1     -19.357 -11.437  -4.658  1.00  0.00    -0.310 N 
HETATM   10  C   UNL     1     -18.082 -11.322  -4.066  1.00  0.00     0.268 C 
HETATM   11  O   UNL     1     -17.834 -10.948  -2.928  1.00  0.00    -0.269 OA
HETATM   12  C   UNL     1     -17.060 -11.819  -5.093  1.00  0.00     0.227 A 
HETATM   13  N   UNL     1     -16.117 -12.783  -4.588  1.00  0.00    -0.313 N 
HETATM   14  C   UNL     1     -14.837 -12.291  -4.608  1.00  0.00     0.324 A 
HETATM   15  O   UNL     1     -13.858 -12.874  -4.182  1.00  0.00    -0.247 OA
HETATM   16  N   UNL     1     -14.846 -11.071  -5.197  1.00  0.00    -0.276 N 
HETATM   17  C   UNL     1     -16.117 -10.699  -5.524  1.00  0.00     0.268 A 
HETATM   18  O   UNL     1     -16.416  -9.646  -6.067  1.00  0.00    -0.269 OA
HETATM   19  H   UNL     1     -16.344 -13.640  -4.102  1.00  0.00     0.166 HD
HETATM   20  H   UNL     1     -14.023 -10.508  -5.341  1.00  0.00     0.173 HD
ENDROOT
BRANCH   9  21
HETATM   21  C   UNL     1     -20.547 -11.154  -3.884  1.00  0.00     0.171 C 
BRANCH  21  22
HETATM   22  C   UNL     1     -20.887  -9.686  -3.703  1.00  0.00    -0.039 A 
HETATM   23  C   UNL     1     -20.710  -8.731  -4.712  1.00  0.00     0.009 A 
HETATM   24  C   UNL     1     -20.950  -7.378  -4.463  1.00  0.00     0.001 A 
HETATM   25  C   UNL     1     -21.377  -6.957  -3.203  1.00  0.00     0.016 A 
HETATM   26  C   UNL     1     -21.587  -7.888  -2.180  1.00  0.00     0.048 A 
HETATM   27  C   UNL     1     -21.363  -9.251  -2.449  1.00  0.00     0.025 A 
BRANCH  26  28
HETATM   28  C   UNL     1     -22.018  -7.444  -0.802  1.00  0.00     0.417 C 
HETATM   29  F   UNL     1     -23.167  -8.034  -0.370  1.00  0.00    -0.166 F 
HETATM   30  F   UNL     1     -21.081  -7.711   0.150  1.00  0.00    -0.166 F 
HETATM   31  F   UNL     1     -22.242  -6.101  -0.735  1.00  0.00    -0.166 F 
ENDBRANCH  26  28
ENDBRANCH  21  22
ENDBRANCH   9  21
TORSDOF 3
ENDMDL
MODEL 6
REMARK VINA RESULT:      -8.0      5.332      6.815
REMARK  3 active torsions:
REMARK  status: ('A' for Active; 'I' for Inactive)
REMARK    1  A    between atoms: N_9  and  C_10 
REMARK    2  A    between atoms: C_10  and  C_11 
REMARK    3  A    between atoms: C_15  and  C_16 
ROOT
HETATM    1  C   UNL     1     -21.722 -11.558  -6.772  1.00  0.00     0.050 C 
HETATM    2  C   UNL     1     -20.295 -12.012  -6.789  1.00  0.00    -0.033 A 
HETATM    3  C   UNL     1     -19.922 -12.945  -7.787  1.00  0.00     0.033 A 
HETATM    4  C   UNL     1     -18.601 -13.393  -7.921  1.00  0.00     0.035 A 
HETATM    5 CL   UNL     1     -18.204 -14.539  -9.142  1.00  0.00    -0.084 Cl
HETATM    6  C   UNL     1     -17.607 -12.917  -7.079  1.00  0.00     0.036 A 
HETATM    7  C   UNL     1     -17.976 -12.019  -6.085  1.00  0.00     0.018 A 
HETATM    8  C   UNL     1     -19.307 -11.595  -5.901  1.00  0.00     0.053 A 
HETATM    9  N   UNL     1     -19.359 -10.789  -4.738  1.00  0.00    -0.310 N 
HETATM   10  C   UNL     1     -18.084 -10.661  -4.147  1.00  0.00     0.268 C 
HETATM   11  O   UNL     1     -17.823 -10.127  -3.078  1.00  0.00    -0.269 OA
HETATM   12  C   UNL     1     -17.088 -11.375  -5.065  1.00  0.00     0.227 A 
HETATM   13  N   UNL     1     -16.213 -12.303  -4.398  1.00  0.00    -0.313 N 
HETATM   14  C   UNL     1     -14.903 -11.901  -4.471  1.00  0.00     0.324 A 
HETATM   15  O   UNL     1     -13.967 -12.468  -3.941  1.00  0.00    -0.247 OA
HETATM   16  N   UNL     1     -14.829 -10.791  -5.245  1.00  0.00    -0.276 N 
HETATM   17  C   UNL     1     -16.072 -10.398  -5.650  1.00  0.00     0.268 A 
HETATM   18  O   UNL     1     -16.298  -9.427  -6.356  1.00  0.00    -0.269 OA
HETATM   19  H   UNL     1     -16.498 -13.057  -3.788  1.00  0.00     0.166 HD
HETATM   20  H   UNL     1     -13.972 -10.310  -5.460  1.00  0.00     0.173 HD
ENDROOT
BRANCH   9  21
HETATM   21  C   UNL     1     -20.535 -10.314  -4.039  1.00  0.00     0.171 C 
BRANCH  21  22
HETATM   22  C   UNL     1     -20.721  -8.808  -4.000  1.00  0.00    -0.039 A 
HETATM   23  C   UNL     1     -21.198  -8.126  -2.874  1.00  0.00     0.009 A 
HETATM   24  C   UNL     1     -21.439  -6.751  -2.922  1.00  0.00     0.001 A 
HETATM   25  C   UNL     1     -21.200  -6.033  -4.094  1.00  0.00     0.016 A 
HETATM   26  C   UNL     1     -20.700  -6.680  -5.230  1.00  0.00     0.048 A 
HETATM   27  C   UNL     1     -20.441  -8.061  -5.163  1.00  0.00     0.025 A 
BRANCH  26  28
HETATM   28  C   UNL     1     -20.468  -5.922  -6.516  1.00  0.00     0.417 C 
HETATM   29  F   UNL     1     -21.467  -6.075  -7.430  1.00  0.00    -0.166 F 
HETATM   30  F   UNL     1     -20.347  -4.580  -6.317  1.00  0.00    -0.166 F 
HETATM   31  F   UNL     1     -19.325  -6.308  -7.149  1.00  0.00    -0.166 F 
ENDBRANCH  26  28
ENDBRANCH  21  22
ENDBRANCH   9  21
TORSDOF 3
ENDMDL
MODEL 7
REMARK VINA RESULT:      -7.9      3.883      4.824
REMARK  3 active torsions:
REMARK  status: ('A' for Active; 'I' for Inactive)
REMARK    1  A    between atoms: N_9  and  C_10 
REMARK    2  A    between atoms: C_10  and  C_11 
REMARK    3  A    between atoms: C_15  and  C_16 
ROOT
HETATM    1  C   UNL     1     -22.490 -11.138  -4.304  1.00  0.00     0.050 C 
HETATM    2  C   UNL     1     -21.049 -11.453  -4.562  1.00  0.00    -0.033 A 
HETATM    3  C   UNL     1     -20.675 -11.733  -5.898  1.00  0.00     0.033 A 
HETATM    4  C   UNL     1     -19.343 -11.989  -6.253  1.00  0.00     0.035 A 
HETATM    5 CL   UNL     1     -18.944 -12.340  -7.890  1.00  0.00    -0.084 Cl
HETATM    6  C   UNL     1     -18.341 -11.958  -5.295  1.00  0.00     0.036 A 
HETATM    7  C   UNL     1     -18.711 -11.705  -3.979  1.00  0.00     0.018 A 
HETATM    8  C   UNL     1     -20.049 -11.496  -3.594  1.00  0.00     0.053 A 
HETATM    9  N   UNL     1     -20.093 -11.392  -2.182  1.00  0.00    -0.310 N 
HETATM   10  C   UNL     1     -18.806 -11.520  -1.620  1.00  0.00     0.268 C 
HETATM   11  O   UNL     1     -18.530 -11.589  -0.430  1.00  0.00    -0.269 OA
HETATM   12  C   UNL     1     -17.814 -11.624  -2.782  1.00  0.00     0.227 A 
HETATM   13  N   UNL     1     -16.885 -12.720  -2.685  1.00  0.00    -0.313 N 
HETATM   14  C   UNL     1     -15.594 -12.274  -2.556  1.00  0.00     0.324 A 
HETATM   15  O   UNL     1     -14.621 -12.986  -2.396  1.00  0.00    -0.247 OA
HETATM   16  N   UNL     1     -15.585 -10.923  -2.662  1.00  0.00    -0.276 N 
HETATM   17  C   UNL     1     -16.853 -10.438  -2.800  1.00  0.00     0.268 A 
HETATM   18  O   UNL     1     -17.137  -9.256  -2.915  1.00  0.00    -0.269 OA
HETATM   19  H   UNL     1     -17.123 -13.691  -2.539  1.00  0.00     0.166 HD
HETATM   20  H   UNL     1     -14.753 -10.359  -2.611  1.00  0.00     0.173 HD
ENDROOT
BRANCH   9  21
HETATM   21  C   UNL     1     -21.263 -11.392  -1.329  1.00  0.00     0.171 C 
BRANCH  21  22
HETATM   22  C   UNL     1     -21.747 -10.030  -0.866  1.00  0.00    -0.039 A 
HETATM   23  C   UNL     1     -22.479  -9.839   0.312  1.00  0.00     0.009 A 
HETATM   24  C   UNL     1     -22.980  -8.578   0.643  1.00  0.00     0.001 A 
HETATM   25  C   UNL     1     -22.752  -7.485  -0.194  1.00  0.00     0.016 A 
HETATM   26  C   UNL     1     -22.004  -7.637  -1.367  1.00  0.00     0.048 A 
HETATM   27  C   UNL     1     -21.487  -8.908  -1.679  1.00  0.00     0.025 A 
BRANCH  26  28
HETATM   28  C   UNL     1     -21.778  -6.471  -2.300  1.00  0.00     0.417 C 
HETATM   29  F   UNL     1     -22.011  -5.257  -1.727  1.00  0.00    -0.166 F 
HETATM   30  F   UNL     1     -20.503  -6.420  -2.775  1.00  0.00    -0.166 F 
HETATM   31  F   UNL     1     -22.582  -6.521  -3.400  1.00  0.00    -0.166 F 
ENDBRANCH  26  28
ENDBRANCH  21  22
ENDBRANCH   9  21
TORSDOF 3
ENDMDL
MODEL 8
REMARK VINA RESULT:      -7.9      1.610      2.104
REMARK  3 active torsions:
REMARK  status: ('A' for Active; 'I' for Inactive)
REMARK    1  A    between atoms: N_9  and  C_10 
REMARK    2  A    between atoms: C_10  and  C_11 
REMARK    3  A    between atoms: C_15  and  C_16 
ROOT
HETATM    1  C   UNL     1     -21.236  -9.406   1.092  1.00  0.00     0.050 C 
HETATM    2  C   UNL     1     -20.965  -9.058  -0.339  1.00  0.00    -0.033 A 
HETATM    3  C   UNL     1     -21.527  -7.856  -0.833  1.00  0.00     0.033 A 
HETATM    4  C   UNL     1     -21.291  -7.414  -2.142  1.00  0.00     0.035 A 
HETATM    5 CL   UNL     1     -22.011  -5.953  -2.698  1.00  0.00    -0.084 Cl
HETATM    6  C   UNL     1     -20.476  -8.143  -2.994  1.00  0.00     0.036 A 
HETATM    7  C   UNL     1     -19.941  -9.334  -2.518  1.00  0.00     0.018 A 
HETATM    8  C   UNL     1     -20.208  -9.822  -1.224  1.00  0.00     0.053 A 
HETATM    9  N   UNL     1     -19.619 -11.104  -1.103  1.00  0.00    -0.310 N 
HETATM   10  C   UNL     1     -18.957 -11.477  -2.291  1.00  0.00     0.268 C 
HETATM   11  O   UNL     1     -18.454 -12.564  -2.539  1.00  0.00    -0.269 OA
HETATM   12  C   UNL     1     -19.042 -10.284  -3.248  1.00  0.00     0.227 A 
HETATM   13  N   UNL     1     -19.503 -10.607  -4.574  1.00  0.00    -0.313 N 
HETATM   14  C   UNL     1     -18.528 -10.382  -5.513  1.00  0.00     0.324 A 
HETATM   15  O   UNL     1     -18.632 -10.628  -6.700  1.00  0.00    -0.247 OA
HETATM   16  N   UNL     1     -17.454  -9.825  -4.904  1.00  0.00    -0.276 N 
HETATM   17  C   UNL     1     -17.658  -9.722  -3.559  1.00  0.00     0.268 A 
HETATM   18  O   UNL     1     -16.853  -9.256  -2.767  1.00  0.00    -0.269 OA
HETATM   19  H   UNL     1     -20.350 -11.108  -4.804  1.00  0.00     0.166 HD
HETATM   20  H   UNL     1     -16.611  -9.555  -5.384  1.00  0.00     0.173 HD
ENDROOT
BRANCH   9  21
HETATM   21  C   UNL     1     -19.811 -12.072  -0.043  1.00  0.00     0.171 C 
BRANCH  21  22
HETATM   22  C   UNL     1     -21.142 -12.802  -0.046  1.00  0.00    -0.039 A 
HETATM   23  C   UNL     1     -21.981 -12.856  -1.165  1.00  0.00     0.009 A 
HETATM   24  C   UNL     1     -23.237 -13.462  -1.086  1.00  0.00     0.001 A 
HETATM   25  C   UNL     1     -23.673 -14.030   0.111  1.00  0.00     0.016 A 
HETATM   26  C   UNL     1     -22.849 -14.014   1.242  1.00  0.00     0.048 A 
HETATM   27  C   UNL     1     -21.577 -13.420   1.144  1.00  0.00     0.025 A 
BRANCH  26  28
HETATM   28  C   UNL     1     -23.321 -14.595   2.555  1.00  0.00     0.417 C 
HETATM   29  F   UNL     1     -24.387 -13.939   3.093  1.00  0.00    -0.166 F 
HETATM   30  F   UNL     1     -23.704 -15.898   2.442  1.00  0.00    -0.166 F 
HETATM   31  F   UNL     1     -22.351 -14.574   3.512  1.00  0.00    -0.166 F 
ENDBRANCH  26  28
ENDBRANCH  21  22
ENDBRANCH   9  21
TORSDOF 3
ENDMDL
MODEL 9
REMARK VINA RESULT:      -7.9      2.747      4.031
REMARK  3 active torsions:
REMARK  status: ('A' for Active; 'I' for Inactive)
REMARK    1  A    between atoms: N_9  and  C_10 
REMARK    2  A    between atoms: C_10  and  C_11 
REMARK    3  A    between atoms: C_15  and  C_16 
ROOT
HETATM    1  C   UNL     1     -18.405 -12.524  -0.140  1.00  0.00     0.050 C 
HETATM    2  C   UNL     1     -18.468 -11.414  -1.143  1.00  0.00    -0.033 A 
HETATM    3  C   UNL     1     -17.312 -11.179  -1.925  1.00  0.00     0.033 A 
HETATM    4  C   UNL     1     -17.285 -10.198  -2.927  1.00  0.00     0.035 A 
HETATM    5 CL   UNL     1     -15.848  -9.942  -3.839  1.00  0.00    -0.084 Cl
HETATM    6  C   UNL     1     -18.410  -9.434  -3.193  1.00  0.00     0.036 A 
HETATM    7  C   UNL     1     -19.539  -9.649  -2.411  1.00  0.00     0.018 A 
HETATM    8  C   UNL     1     -19.570 -10.593  -1.366  1.00  0.00     0.053 A 
HETATM    9  N   UNL     1     -20.812 -10.473  -0.696  1.00  0.00    -0.310 N 
HETATM   10  C   UNL     1     -21.614  -9.471  -1.281  1.00  0.00     0.268 C 
HETATM   11  O   UNL     1     -22.685  -9.054  -0.864  1.00  0.00    -0.269 OA
HETATM   12  C   UNL     1     -20.861  -8.950  -2.509  1.00  0.00     0.227 A 
HETATM   13  N   UNL     1     -20.749  -7.517  -2.584  1.00  0.00    -0.313 N 
HETATM   14  C   UNL     1     -21.423  -7.016  -3.669  1.00  0.00     0.324 A 
HETATM   15  O   UNL     1     -21.541  -5.835  -3.934  1.00  0.00    -0.247 OA
HETATM   16  N   UNL     1     -21.908  -8.049  -4.398  1.00  0.00    -0.276 N 
HETATM   17  C   UNL     1     -21.627  -9.242  -3.796  1.00  0.00     0.268 A 
HETATM   18  O   UNL     1     -21.948 -10.335  -4.236  1.00  0.00    -0.269 OA
HETATM   19  H   UNL     1     -20.393  -6.909  -1.859  1.00  0.00     0.166 HD
HETATM   20  H   UNL     1     -22.433  -7.941  -5.250  1.00  0.00     0.173 HD
ENDROOT
BRANCH   9  21
HETATM   21  C   UNL     1     -21.204 -11.078   0.560  1.00  0.00     0.171 C 
BRANCH  21  22
HETATM   22  C   UNL     1     -22.071 -12.319   0.456  1.00  0.00    -0.039 A 
HETATM   23  C   UNL     1     -22.684 -12.726  -0.736  1.00  0.00     0.009 A 
HETATM   24  C   UNL     1     -23.547 -13.824  -0.755  1.00  0.00     0.001 A 
HETATM   25  C   UNL     1     -23.807 -14.538   0.415  1.00  0.00     0.016 A 
HETATM   26  C   UNL     1     -23.192 -14.173   1.617  1.00  0.00     0.048 A 
HETATM   27  C   UNL     1     -22.308 -13.078   1.621  1.00  0.00     0.025 A 
BRANCH  26  28
HETATM   28  C   UNL     1     -23.490 -14.916   2.899  1.00  0.00     0.417 C 
HETATM   29  F   UNL     1     -22.515 -14.794   3.843  1.00  0.00    -0.166 F 
HETATM   30  F   UNL     1     -24.640 -14.492   3.494  1.00  0.00    -0.166 F 
HETATM   31  F   UNL     1     -23.647 -16.255   2.700  1.00  0.00    -0.166 F 
ENDBRANCH  26  28
ENDBRANCH  21  22
ENDBRANCH   9  21
TORSDOF 3
ENDMDL
