MODEL 1
REMARK VINA RESULT:      -9.6      0.000      0.000
REMARK  4 active torsions:
REMARK  status: ('A' for Active; 'I' for Inactive)
REMARK    1  A    between atoms: O_2  and  C_3 
REMARK    2  A    between atoms: C_7  and  N_8 
REMARK       I    between atoms: N_8  and  C_9 
REMARK    3  A    between atoms: C_9  and  C_11 
REMARK    4  A    between atoms: C_12  and  C_13 
ROOT
HETATM    1  N   UNL     1     -21.327  -4.568  -7.164  1.00  0.00    -0.324 N 
HETATM    2  C   UNL     1     -20.738  -5.681  -6.595  1.00  0.00     0.245 C 
HETATM    3  O   UNL     1     -20.207  -6.607  -7.195  1.00  0.00    -0.268 OA
HETATM    4  H   UNL     1     -21.715  -3.865  -6.549  1.00  0.00     0.169 HD
ENDROOT
BRANCH   2   5
HETATM    5  C   UNL     1     -20.781  -5.698  -5.104  1.00  0.00     0.075 C 
HETATM    6  C   UNL     1     -21.123  -6.859  -4.516  1.00  0.00     0.017 C 
BRANCH   6   7
HETATM    7  C   UNL     1     -21.259  -7.119  -3.079  1.00  0.00    -0.036 A 
HETATM    8  C   UNL     1     -22.132  -6.397  -2.258  1.00  0.00     0.013 A 
HETATM    9  C   UNL     1     -22.282  -6.738  -0.910  1.00  0.00     0.024 A 
HETATM   10  C   UNL     1     -21.568  -7.810  -0.378  1.00  0.00     0.034 A 
HETATM   11 CL   UNL     1     -21.768  -8.236   1.276  1.00  0.00    -0.084 Cl
HETATM   12  C   UNL     1     -20.702  -8.545  -1.182  1.00  0.00     0.024 A 
HETATM   13  C   UNL     1     -20.552  -8.202  -2.528  1.00  0.00     0.013 A 
ENDBRANCH   6   7
ENDBRANCH   2   5
BRANCH   1  14
HETATM   14  C   UNL     1     -21.393  -4.289  -8.552  1.00  0.00     0.037 A 
HETATM   15  C   UNL     1     -20.271  -4.291  -9.386  1.00  0.00     0.029 A 
HETATM   16  C   UNL     1     -20.375  -3.965 -10.736  1.00  0.00     0.005 A 
HETATM   17  C   UNL     1     -21.610  -3.637 -11.284  1.00  0.00     0.037 A 
HETATM   18  C   UNL     1     -22.751  -3.647 -10.481  1.00  0.00     0.070 A 
HETATM   19  C   UNL     1     -22.639  -3.981  -9.121  1.00  0.00     0.066 A 
BRANCH  18  20
HETATM   20  O   UNL     1     -24.016  -3.342 -10.912  1.00  0.00    -0.356 OA
HETATM   21  C   UNL     1     -25.024  -3.267  -9.906  1.00  0.00     0.210 C 
ENDBRANCH  18  20
ENDBRANCH   1  14
TORSDOF 4
ENDMDL
MODEL 2
REMARK VINA RESULT:      -8.1      4.078      9.253
REMARK  4 active torsions:
REMARK  status: ('A' for Active; 'I' for Inactive)
REMARK    1  A    between atoms: O_2  and  C_3 
REMARK    2  A    between atoms: C_7  and  N_8 
REMARK       I    between atoms: N_8  and  C_9 
REMARK    3  A    between atoms: C_9  and  C_11 
REMARK    4  A    between atoms: C_12  and  C_13 
ROOT
HETATM    1  N   UNL     1     -21.640  -7.718  -3.237  1.00  0.00    -0.324 N 
HETATM    2  C   UNL     1     -21.419  -6.432  -3.692  1.00  0.00     0.245 C 
HETATM    3  O   UNL     1     -21.199  -5.446  -2.999  1.00  0.00    -0.268 OA
HETATM    4  H   UNL     1     -21.793  -8.447  -3.920  1.00  0.00     0.169 HD
ENDROOT
BRANCH   2   5
HETATM    5  C   UNL     1     -21.463  -6.295  -5.177  1.00  0.00     0.075 C 
HETATM    6  C   UNL     1     -21.064  -5.119  -5.693  1.00  0.00     0.017 C 
BRANCH   6   7
HETATM    7  C   UNL     1     -21.039  -4.735  -7.109  1.00  0.00    -0.036 A 
HETATM    8  C   UNL     1     -19.968  -5.037  -7.957  1.00  0.00     0.013 A 
HETATM    9  C   UNL     1     -20.029  -4.718  -9.317  1.00  0.00     0.024 A 
HETATM   10  C   UNL     1     -21.167  -4.106  -9.839  1.00  0.00     0.034 A 
HETATM   11 CL   UNL     1     -21.245  -3.732 -11.516  1.00  0.00    -0.084 Cl
HETATM   12  C   UNL     1     -22.246  -3.807  -9.013  1.00  0.00     0.024 A 
HETATM   13  C   UNL     1     -22.182  -4.125  -7.654  1.00  0.00     0.013 A 
ENDBRANCH   6   7
ENDBRANCH   2   5
BRANCH   1  14
HETATM   14  C   UNL     1     -21.621  -8.128  -1.880  1.00  0.00     0.037 A 
HETATM   15  C   UNL     1     -22.245  -7.408  -0.857  1.00  0.00     0.029 A 
HETATM   16  C   UNL     1     -22.160  -7.822   0.471  1.00  0.00     0.005 A 
HETATM   17  C   UNL     1     -21.455  -8.972   0.802  1.00  0.00     0.037 A 
HETATM   18  C   UNL     1     -20.839  -9.722  -0.200  1.00  0.00     0.070 A 
HETATM   19  C   UNL     1     -20.932  -9.302  -1.537  1.00  0.00     0.066 A 
BRANCH  18  20
HETATM   20  O   UNL     1     -20.119 -10.870   0.008  1.00  0.00    -0.356 OA
HETATM   21  C   UNL     1     -20.844 -11.986   0.521  1.00  0.00     0.210 C 
ENDBRANCH  18  20
ENDBRANCH   1  14
TORSDOF 4
ENDMDL
MODEL 3
REMARK VINA RESULT:      -8.1      4.156      8.993
REMARK  4 active torsions:
REMARK  status: ('A' for Active; 'I' for Inactive)
REMARK    1  A    between atoms: O_2  and  C_3 
REMARK    2  A    between atoms: C_7  and  N_8 
REMARK       I    between atoms: N_8  and  C_9 
REMARK    3  A    between atoms: C_9  and  C_11 
REMARK    4  A    between atoms: C_12  and  C_13 
ROOT
HETATM    1  N   UNL     1     -20.942  -7.649  -3.018  1.00  0.00    -0.324 N 
HETATM    2  C   UNL     1     -21.581  -6.480  -3.384  1.00  0.00     0.245 C 
HETATM    3  O   UNL     1     -22.534  -5.964  -2.811  1.00  0.00    -0.268 OA
HETATM    4  H   UNL     1     -20.153  -7.956  -3.571  1.00  0.00     0.169 HD
ENDROOT
BRANCH   2   5
HETATM    5  C   UNL     1     -21.011  -5.828  -4.598  1.00  0.00     0.075 C 
HETATM    6  C   UNL     1     -21.821  -5.711  -5.666  1.00  0.00     0.017 C 
BRANCH   6   7
HETATM    7  C   UNL     1     -21.488  -5.134  -6.973  1.00  0.00    -0.036 A 
HETATM    8  C   UNL     1     -20.270  -5.374  -7.618  1.00  0.00     0.013 A 
HETATM    9  C   UNL     1     -20.035  -4.864  -8.899  1.00  0.00     0.024 A 
HETATM   10  C   UNL     1     -21.021  -4.121  -9.546  1.00  0.00     0.034 A 
HETATM   11 CL   UNL     1     -20.733  -3.511 -11.128  1.00  0.00    -0.084 Cl
HETATM   12  C   UNL     1     -22.241  -3.881  -8.923  1.00  0.00     0.024 A 
HETATM   13  C   UNL     1     -22.474  -4.390  -7.643  1.00  0.00     0.013 A 
ENDBRANCH   6   7
ENDBRANCH   2   5
BRANCH   1  14
HETATM   14  C   UNL     1     -21.261  -8.445  -1.890  1.00  0.00     0.037 A 
HETATM   15  C   UNL     1     -21.043  -8.028  -0.574  1.00  0.00     0.029 A 
HETATM   16  C   UNL     1     -21.328  -8.862   0.505  1.00  0.00     0.005 A 
HETATM   17  C   UNL     1     -21.847 -10.133   0.289  1.00  0.00     0.037 A 
HETATM   18  C   UNL     1     -22.094 -10.570  -1.013  1.00  0.00     0.070 A 
HETATM   19  C   UNL     1     -21.809  -9.721  -2.096  1.00  0.00     0.066 A 
BRANCH  18  20
HETATM   20  O   UNL     1     -22.603 -11.799  -1.345  1.00  0.00    -0.356 OA
HETATM   21  C   UNL     1     -23.995 -11.992  -1.104  1.00  0.00     0.210 C 
ENDBRANCH  18  20
ENDBRANCH   1  14
TORSDOF 4
ENDMDL
MODEL 4
REMARK VINA RESULT:      -8.0      1.098      2.318
REMARK  4 active torsions:
REMARK  status: ('A' for Active; 'I' for Inactive)
REMARK    1  A    between atoms: O_2  and  C_3 
REMARK    2  A    between atoms: C_7  and  N_8 
REMARK       I    between atoms: N_8  and  C_9 
REMARK    3  A    between atoms: C_9  and  C_11 
REMARK    4  A    between atoms: C_12  and  C_13 
ROOT
HETATM    1  N   UNL     1     -22.009  -5.235  -6.934  1.00  0.00    -0.324 N 
HETATM    2  C   UNL     1     -20.758  -5.024  -6.386  1.00  0.00     0.245 C 
HETATM    3  O   UNL     1     -19.900  -4.259  -6.810  1.00  0.00    -0.268 OA
HETATM    4  H   UNL     1     -22.630  -5.885  -6.472  1.00  0.00     0.169 HD
ENDROOT
BRANCH   2   5
HETATM    5  C   UNL     1     -20.485  -5.832  -5.162  1.00  0.00     0.075 C 
HETATM    6  C   UNL     1     -21.515  -6.034  -4.321  1.00  0.00     0.017 C 
BRANCH   6   7
HETATM    7  C   UNL     1     -21.492  -6.768  -3.051  1.00  0.00    -0.036 A 
HETATM    8  C   UNL     1     -20.633  -7.847  -2.816  1.00  0.00     0.013 A 
HETATM    9  C   UNL     1     -20.596  -8.461  -1.560  1.00  0.00     0.024 A 
HETATM   10  C   UNL     1     -21.408  -7.992  -0.529  1.00  0.00     0.034 A 
HETATM   11 CL   UNL     1     -21.346  -8.740   1.019  1.00  0.00    -0.084 Cl
HETATM   12  C   UNL     1     -22.261  -6.914  -0.743  1.00  0.00     0.024 A 
HETATM   13  C   UNL     1     -22.299  -6.302  -1.998  1.00  0.00     0.013 A 
ENDBRANCH   6   7
ENDBRANCH   2   5
BRANCH   1  14
HETATM   14  C   UNL     1     -22.532  -4.574  -8.074  1.00  0.00     0.037 A 
HETATM   15  C   UNL     1     -23.866  -4.169  -8.177  1.00  0.00     0.029 A 
HETATM   16  C   UNL     1     -24.349  -3.565  -9.335  1.00  0.00     0.005 A 
HETATM   17  C   UNL     1     -23.503  -3.345 -10.416  1.00  0.00     0.037 A 
HETATM   18  C   UNL     1     -22.161  -3.720 -10.335  1.00  0.00     0.070 A 
HETATM   19  C   UNL     1     -21.680  -4.325  -9.161  1.00  0.00     0.066 A 
BRANCH  18  20
HETATM   20  O   UNL     1     -21.238  -3.553 -11.334  1.00  0.00    -0.356 OA
HETATM   21  C   UNL     1     -20.019  -4.281 -11.195  1.00  0.00     0.210 C 
ENDBRANCH  18  20
ENDBRANCH   1  14
TORSDOF 4
ENDMDL
MODEL 5
REMARK VINA RESULT:      -7.3      2.531      3.289
REMARK  4 active torsions:
REMARK  status: ('A' for Active; 'I' for Inactive)
REMARK    1  A    between atoms: O_2  and  C_3 
REMARK    2  A    between atoms: C_7  and  N_8 
REMARK       I    between atoms: N_8  and  C_9 
REMARK    3  A    between atoms: C_9  and  C_11 
REMARK    4  A    between atoms: C_12  and  C_13 
ROOT
HETATM    1  N   UNL     1     -21.223  -6.266  -5.107  1.00  0.00    -0.324 N 
HETATM    2  C   UNL     1     -21.291  -7.645  -5.082  1.00  0.00     0.245 C 
HETATM    3  O   UNL     1     -21.117  -8.398  -6.033  1.00  0.00    -0.268 OA
HETATM    4  H   UNL     1     -21.371  -5.764  -4.242  1.00  0.00     0.169 HD
ENDROOT
BRANCH   2   5
HETATM    5  C   UNL     1     -21.610  -8.215  -3.740  1.00  0.00     0.075 C 
HETATM    6  C   UNL     1     -21.759  -9.550  -3.663  1.00  0.00     0.017 C 
BRANCH   6   7
HETATM    7  C   UNL     1     -22.095 -10.338  -2.472  1.00  0.00    -0.036 A 
HETATM    8  C   UNL     1     -21.655  -9.994  -1.188  1.00  0.00     0.013 A 
HETATM    9  C   UNL     1     -22.070 -10.734  -0.077  1.00  0.00     0.024 A 
HETATM   10  C   UNL     1     -22.935 -11.814  -0.241  1.00  0.00     0.034 A 
HETATM   11 CL   UNL     1     -23.456 -12.710   1.132  1.00  0.00    -0.084 Cl
HETATM   12  C   UNL     1     -23.390 -12.164  -1.508  1.00  0.00     0.024 A 
HETATM   13  C   UNL     1     -22.973 -11.425  -2.618  1.00  0.00     0.013 A 
ENDBRANCH   6   7
ENDBRANCH   2   5
BRANCH   1  14
HETATM   14  C   UNL     1     -20.906  -5.477  -6.241  1.00  0.00     0.037 A 
HETATM   15  C   UNL     1     -19.594  -5.187  -6.628  1.00  0.00     0.029 A 
HETATM   16  C   UNL     1     -19.329  -4.368  -7.723  1.00  0.00     0.005 A 
HETATM   17  C   UNL     1     -20.375  -3.826  -8.462  1.00  0.00     0.037 A 
HETATM   18  C   UNL     1     -21.694  -4.113  -8.111  1.00  0.00     0.070 A 
HETATM   19  C   UNL     1     -21.954  -4.944  -7.008  1.00  0.00     0.066 A 
BRANCH  18  20
HETATM   20  O   UNL     1     -22.801  -3.636  -8.764  1.00  0.00    -0.356 OA
HETATM   21  C   UNL     1     -22.726  -3.594 -10.187  1.00  0.00     0.210 C 
ENDBRANCH  18  20
ENDBRANCH   1  14
TORSDOF 4
ENDMDL
MODEL 6
REMARK VINA RESULT:      -7.1      4.758      9.512
REMARK  4 active torsions:
REMARK  status: ('A' for Active; 'I' for Inactive)
REMARK    1  A    between atoms: O_2  and  C_3 
REMARK    2  A    between atoms: C_7  and  N_8 
REMARK       I    between atoms: N_8  and  C_9 
REMARK    3  A    between atoms: C_9  and  C_11 
REMARK    4  A    between atoms: C_12  and  C_13 
ROOT
HETATM    1  N   UNL     1     -21.952  -8.732  -1.777  1.00  0.00    -0.324 N 
HETATM    2  C   UNL     1     -22.055  -7.429  -1.327  1.00  0.00     0.245 C 
HETATM    3  O   UNL     1     -22.366  -7.075  -0.196  1.00  0.00    -0.268 OA
HETATM    4  H   UNL     1     -21.667  -8.886  -2.735  1.00  0.00     0.169 HD
ENDROOT
BRANCH   2   5
HETATM    5  C   UNL     1     -21.742  -6.401  -2.362  1.00  0.00     0.075 C 
HETATM    6  C   UNL     1     -21.543  -6.839  -3.618  1.00  0.00     0.017 C 
BRANCH   6   7
HETATM    7  C   UNL     1     -21.201  -6.033  -4.795  1.00  0.00    -0.036 A 
HETATM    8  C   UNL     1     -20.143  -5.117  -4.804  1.00  0.00     0.013 A 
HETATM    9  C   UNL     1     -19.809  -4.432  -5.976  1.00  0.00     0.024 A 
HETATM   10  C   UNL     1     -20.526  -4.666  -7.149  1.00  0.00     0.034 A 
HETATM   11 CL   UNL     1     -20.101  -3.833  -8.593  1.00  0.00    -0.084 Cl
HETATM   12  C   UNL     1     -21.575  -5.580  -7.160  1.00  0.00     0.024 A 
HETATM   13  C   UNL     1     -21.908  -6.263  -5.988  1.00  0.00     0.013 A 
ENDBRANCH   6   7
ENDBRANCH   2   5
BRANCH   1  14
HETATM   14  C   UNL     1     -22.163  -9.894  -0.994  1.00  0.00     0.037 A 
HETATM   15  C   UNL     1     -23.431 -10.323  -0.590  1.00  0.00     0.029 A 
HETATM   16  C   UNL     1     -23.589 -11.445   0.219  1.00  0.00     0.005 A 
HETATM   17  C   UNL     1     -22.479 -12.169   0.638  1.00  0.00     0.037 A 
HETATM   18  C   UNL     1     -21.202 -11.776   0.235  1.00  0.00     0.070 A 
HETATM   19  C   UNL     1     -21.051 -10.646  -0.586  1.00  0.00     0.066 A 
BRANCH  18  20
HETATM   20  O   UNL     1     -20.039 -12.411   0.585  1.00  0.00    -0.356 OA
HETATM   21  C   UNL     1     -19.602 -13.453  -0.285  1.00  0.00     0.210 C 
ENDBRANCH  18  20
ENDBRANCH   1  14
TORSDOF 4
ENDMDL
MODEL 7
REMARK VINA RESULT:      -7.1      3.170      3.931
REMARK  4 active torsions:
REMARK  status: ('A' for Active; 'I' for Inactive)
REMARK    1  A    between atoms: O_2  and  C_3 
REMARK    2  A    between atoms: C_7  and  N_8 
REMARK       I    between atoms: N_8  and  C_9 
REMARK    3  A    between atoms: C_9  and  C_11 
REMARK    4  A    between atoms: C_12  and  C_13 
ROOT
HETATM    1  N   UNL     1     -20.071  -6.385  -5.665  1.00  0.00    -0.324 N 
HETATM    2  C   UNL     1     -20.452  -7.693  -5.433  1.00  0.00     0.245 C 
HETATM    3  O   UNL     1     -21.197  -8.367  -6.135  1.00  0.00    -0.268 OA
HETATM    4  H   UNL     1     -19.434  -5.949  -5.012  1.00  0.00     0.169 HD
ENDROOT
BRANCH   2   5
HETATM    5  C   UNL     1     -19.867  -8.287  -4.196  1.00  0.00     0.075 C 
HETATM    6  C   UNL     1     -18.798  -9.088  -4.350  1.00  0.00     0.017 C 
BRANCH   6   7
HETATM    7  C   UNL     1     -18.066  -9.803  -3.299  1.00  0.00    -0.036 A 
HETATM    8  C   UNL     1     -18.684 -10.707  -2.427  1.00  0.00     0.013 A 
HETATM    9  C   UNL     1     -17.927 -11.422  -1.494  1.00  0.00     0.024 A 
HETATM   10  C   UNL     1     -16.546 -11.245  -1.435  1.00  0.00     0.034 A 
HETATM   11 CL   UNL     1     -15.616 -12.140  -0.297  1.00  0.00    -0.084 Cl
HETATM   12  C   UNL     1     -15.913 -10.358  -2.300  1.00  0.00     0.024 A 
HETATM   13  C   UNL     1     -16.672  -9.643  -3.230  1.00  0.00     0.013 A 
ENDBRANCH   6   7
ENDBRANCH   2   5
BRANCH   1  14
HETATM   14  C   UNL     1     -20.456  -5.600  -6.781  1.00  0.00     0.037 A 
HETATM   15  C   UNL     1     -19.549  -5.138  -7.739  1.00  0.00     0.029 A 
HETATM   16  C   UNL     1     -19.963  -4.329  -8.794  1.00  0.00     0.005 A 
HETATM   17  C   UNL     1     -21.301  -3.971  -8.919  1.00  0.00     0.037 A 
HETATM   18  C   UNL     1     -22.233  -4.434  -7.990  1.00  0.00     0.070 A 
HETATM   19  C   UNL     1     -21.808  -5.253  -6.930  1.00  0.00     0.066 A 
BRANCH  18  20
HETATM   20  O   UNL     1     -23.573  -4.147  -8.012  1.00  0.00    -0.356 OA
HETATM   21  C   UNL     1     -24.082  -3.605  -9.229  1.00  0.00     0.210 C 
ENDBRANCH  18  20
ENDBRANCH   1  14
TORSDOF 4
ENDMDL
MODEL 8
REMARK VINA RESULT:      -6.9      4.250      5.174
REMARK  4 active torsions:
REMARK  status: ('A' for Active; 'I' for Inactive)
REMARK    1  A    between atoms: O_2  and  C_3 
REMARK    2  A    between atoms: C_7  and  N_8 
REMARK       I    between atoms: N_8  and  C_9 
REMARK    3  A    between atoms: C_9  and  C_11 
REMARK    4  A    between atoms: C_12  and  C_13 
ROOT
HETATM    1  N   UNL     1     -19.893  -6.658  -6.107  1.00  0.00    -0.324 N 
HETATM    2  C   UNL     1     -20.298  -7.916  -5.706  1.00  0.00     0.245 C 
HETATM    3  O   UNL     1     -21.378  -8.442  -5.949  1.00  0.00    -0.268 OA
HETATM    4  H   UNL     1     -18.964  -6.351  -5.852  1.00  0.00     0.169 HD
ENDROOT
BRANCH   2   5
HETATM    5  C   UNL     1     -19.281  -8.658  -4.907  1.00  0.00     0.075 C 
HETATM    6  C   UNL     1     -18.220  -9.150  -5.574  1.00  0.00     0.017 C 
BRANCH   6   7
HETATM    7  C   UNL     1     -17.108  -9.930  -5.019  1.00  0.00    -0.036 A 
HETATM    8  C   UNL     1     -16.792  -9.934  -3.656  1.00  0.00     0.013 A 
HETATM    9  C   UNL     1     -15.772 -10.757  -3.169  1.00  0.00     0.024 A 
HETATM   10  C   UNL     1     -15.069 -11.588  -4.040  1.00  0.00     0.034 A 
HETATM   11 CL   UNL     1     -13.827 -12.611  -3.433  1.00  0.00    -0.084 Cl
HETATM   12  C   UNL     1     -15.377 -11.603  -5.397  1.00  0.00     0.024 A 
HETATM   13  C   UNL     1     -16.395 -10.779  -5.883  1.00  0.00     0.013 A 
ENDBRANCH   6   7
ENDBRANCH   2   5
BRANCH   1  14
HETATM   14  C   UNL     1     -20.652  -5.761  -6.900  1.00  0.00     0.037 A 
HETATM   15  C   UNL     1     -21.876  -5.226  -6.489  1.00  0.00     0.029 A 
HETATM   16  C   UNL     1     -22.612  -4.385  -7.320  1.00  0.00     0.005 A 
HETATM   17  C   UNL     1     -22.132  -4.052  -8.582  1.00  0.00     0.037 A 
HETATM   18  C   UNL     1     -20.904  -4.554  -9.012  1.00  0.00     0.070 A 
HETATM   19  C   UNL     1     -20.165  -5.399  -8.166  1.00  0.00     0.066 A 
BRANCH  18  20
HETATM   20  O   UNL     1     -20.333  -4.295 -10.231  1.00  0.00    -0.356 OA
HETATM   21  C   UNL     1     -21.233  -4.095 -11.319  1.00  0.00     0.210 C 
ENDBRANCH  18  20
ENDBRANCH   1  14
TORSDOF 4
ENDMDL
