MODEL 1
REMARK VINA RESULT:      -8.5      0.000      0.000
REMARK  10 active torsions:
REMARK  status: ('A' for Active; 'I' for Inactive)
REMARK    1  A    between atoms: O_2  and  C_3 
REMARK    2  A    between atoms: C_5  and  C_6 
REMARK    3  A    between atoms: C_6  and  N_7 
REMARK       I    between atoms: N_7  and  C_8 
REMARK    4  A    between atoms: C_8  and  C_10 
REMARK    5  A    between atoms: C_10  and  C_11 
REMARK    6  A    between atoms: C_11  and  C_12 
REMARK    7  A    between atoms: C_12  and  C_13 
REMARK    8  A    between atoms: C_13  and  C_14 
REMARK    9  A    between atoms: C_15  and  C_16 
REMARK   10  A    between atoms: C_21  and  O_22 
ROOT
HETATM    1  N   UNL     1     -20.703  -4.370  -7.584  1.00  0.00    -0.357 N 
HETATM    2  C   UNL     1     -20.292  -5.463  -6.863  1.00  0.00     0.217 C 
HETATM    3  O   UNL     1     -19.783  -6.452  -7.371  1.00  0.00    -0.274 OA
HETATM    4  H   UNL     1     -21.133  -3.592  -7.109  1.00  0.00     0.162 HD
ENDROOT
BRANCH   1   5
HETATM    5  C   UNL     1     -20.549  -4.318  -9.023  1.00  0.00     0.161 C 
BRANCH   5   6
HETATM    6  C   UNL     1     -21.823  -3.955  -9.753  1.00  0.00    -0.038 A 
HETATM    7  C   UNL     1     -21.777  -3.251 -10.970  1.00  0.00     0.048 A 
HETATM    8  C   UNL     1     -22.946  -2.934 -11.677  1.00  0.00     0.101 A 
HETATM    9  C   UNL     1     -24.182  -3.323 -11.144  1.00  0.00     0.099 A 
HETATM   10  C   UNL     1     -24.249  -4.022  -9.937  1.00  0.00     0.040 A 
HETATM   11  C   UNL     1     -23.073  -4.333  -9.246  1.00  0.00     0.012 A 
BRANCH   8  12
HETATM   12  O   UNL     1     -22.974  -2.265 -12.874  1.00  0.00    -0.353 OA
HETATM   13  C   UNL     1     -22.815  -3.049 -14.049  1.00  0.00     0.210 C 
ENDBRANCH   8  12
BRANCH   9  14
HETATM   14  O   UNL     1     -25.332  -3.012 -11.817  1.00  0.00    -0.358 OA
HETATM   15  H   UNL     1     -25.228  -2.154 -12.256  1.00  0.00     0.217 HD
ENDBRANCH   9  14
ENDBRANCH   5   6
ENDBRANCH   1   5
BRANCH   2  16
HETATM   16  C   UNL     1     -20.570  -5.356  -5.370  1.00  0.00     0.103 C 
BRANCH  16  17
HETATM   17  C   UNL     1     -21.706  -6.293  -4.982  1.00  0.00     0.010 C 
BRANCH  17  18
HETATM   18  C   UNL     1     -21.488  -6.934  -3.615  1.00  0.00     0.004 C 
BRANCH  18  19
HETATM   19  C   UNL     1     -21.830  -5.935  -2.509  1.00  0.00     0.027 C 
BRANCH  19  20
HETATM   20  C   UNL     1     -22.263  -6.632  -1.255  1.00  0.00    -0.030 C 
HETATM   21  C   UNL     1     -21.962  -7.911  -0.980  1.00  0.00    -0.027 C 
BRANCH  21  22
HETATM   22  C   UNL     1     -22.424  -8.620   0.267  1.00  0.00    -0.001 C 
HETATM   23  C   UNL     1     -23.246  -9.858  -0.091  1.00  0.00     0.013 C 
HETATM   24  C   UNL     1     -21.230  -9.010   1.134  1.00  0.00     0.013 C 
ENDBRANCH  21  22
ENDBRANCH  19  20
ENDBRANCH  18  19
ENDBRANCH  17  18
ENDBRANCH  16  17
ENDBRANCH   2  16
TORSDOF 10
ENDMDL
MODEL 2
REMARK VINA RESULT:      -8.3      1.196      2.087
REMARK  10 active torsions:
REMARK  status: ('A' for Active; 'I' for Inactive)
REMARK    1  A    between atoms: O_2  and  C_3 
REMARK    2  A    between atoms: C_5  and  C_6 
REMARK    3  A    between atoms: C_6  and  N_7 
REMARK       I    between atoms: N_7  and  C_8 
REMARK    4  A    between atoms: C_8  and  C_10 
REMARK    5  A    between atoms: C_10  and  C_11 
REMARK    6  A    between atoms: C_11  and  C_12 
REMARK    7  A    between atoms: C_12  and  C_13 
REMARK    8  A    between atoms: C_13  and  C_14 
REMARK    9  A    between atoms: C_15  and  C_16 
REMARK   10  A    between atoms: C_21  and  O_22 
ROOT
HETATM    1  N   UNL     1     -21.233  -5.163  -6.628  1.00  0.00    -0.357 N 
HETATM    2  C   UNL     1     -20.675  -6.389  -6.367  1.00  0.00     0.217 C 
HETATM    3  O   UNL     1     -19.562  -6.719  -6.753  1.00  0.00    -0.274 OA
HETATM    4  H   UNL     1     -22.164  -4.958  -6.298  1.00  0.00     0.162 HD
ENDROOT
BRANCH   1   5
HETATM    5  C   UNL     1     -20.518  -4.158  -7.386  1.00  0.00     0.161 C 
BRANCH   5   6
HETATM    6  C   UNL     1     -20.933  -4.089  -8.838  1.00  0.00    -0.038 A 
HETATM    7  C   UNL     1     -22.268  -3.825  -9.192  1.00  0.00     0.048 A 
HETATM    8  C   UNL     1     -22.664  -3.726 -10.533  1.00  0.00     0.101 A 
HETATM    9  C   UNL     1     -21.703  -3.907 -11.535  1.00  0.00     0.099 A 
HETATM   10  C   UNL     1     -20.372  -4.171 -11.205  1.00  0.00     0.040 A 
HETATM   11  C   UNL     1     -19.992  -4.262  -9.862  1.00  0.00     0.012 A 
BRANCH   8  12
HETATM   12  O   UNL     1     -23.944  -3.457 -10.950  1.00  0.00    -0.353 OA
HETATM   13  C   UNL     1     -24.942  -3.378  -9.940  1.00  0.00     0.210 C 
ENDBRANCH   8  12
BRANCH   9  14
HETATM   14  O   UNL     1     -22.076  -3.823 -12.849  1.00  0.00    -0.358 OA
HETATM   15  H   UNL     1     -21.470  -4.350 -13.392  1.00  0.00     0.217 HD
ENDBRANCH   9  14
ENDBRANCH   5   6
ENDBRANCH   1   5
BRANCH   2  16
HETATM   16  C   UNL     1     -21.589  -7.329  -5.592  1.00  0.00     0.103 C 
BRANCH  16  17
HETATM   17  C   UNL     1     -22.204  -6.597  -4.405  1.00  0.00     0.010 C 
BRANCH  17  18
HETATM   18  C   UNL     1     -21.227  -6.455  -3.242  1.00  0.00     0.004 C 
BRANCH  18  19
HETATM   19  C   UNL     1     -21.982  -6.071  -1.969  1.00  0.00     0.027 C 
BRANCH  19  20
HETATM   20  C   UNL     1     -22.414  -7.284  -1.202  1.00  0.00    -0.030 C 
HETATM   21  C   UNL     1     -21.709  -7.805  -0.185  1.00  0.00    -0.027 C 
BRANCH  21  22
HETATM   22  C   UNL     1     -22.130  -9.043   0.564  1.00  0.00    -0.001 C 
HETATM   23  C   UNL     1     -23.245  -9.773  -0.184  1.00  0.00     0.013 C 
HETATM   24  C   UNL     1     -20.937  -9.972   0.774  1.00  0.00     0.013 C 
ENDBRANCH  21  22
ENDBRANCH  19  20
ENDBRANCH  18  19
ENDBRANCH  17  18
ENDBRANCH  16  17
ENDBRANCH   2  16
TORSDOF 10
ENDMDL
MODEL 3
REMARK VINA RESULT:      -7.8      3.134     10.128
REMARK  10 active torsions:
REMARK  status: ('A' for Active; 'I' for Inactive)
REMARK    1  A    between atoms: O_2  and  C_3 
REMARK    2  A    between atoms: C_5  and  C_6 
REMARK    3  A    between atoms: C_6  and  N_7 
REMARK       I    between atoms: N_7  and  C_8 
REMARK    4  A    between atoms: C_8  and  C_10 
REMARK    5  A    between atoms: C_10  and  C_11 
REMARK    6  A    between atoms: C_11  and  C_12 
REMARK    7  A    between atoms: C_12  and  C_13 
REMARK    8  A    between atoms: C_13  and  C_14 
REMARK    9  A    between atoms: C_15  and  C_16 
REMARK   10  A    between atoms: C_21  and  O_22 
ROOT
HETATM    1  N   UNL     1     -21.194  -6.213  -3.644  1.00  0.00    -0.357 N 
HETATM    2  C   UNL     1     -21.788  -6.168  -4.880  1.00  0.00     0.217 C 
HETATM    3  O   UNL     1     -22.998  -6.108  -5.044  1.00  0.00    -0.274 OA
HETATM    4  H   UNL     1     -20.190  -6.280  -3.575  1.00  0.00     0.162 HD
ENDROOT
BRANCH   1   5
HETATM    5  C   UNL     1     -21.982  -6.183  -2.430  1.00  0.00     0.161 C 
BRANCH   5   6
HETATM    6  C   UNL     1     -21.713  -7.350  -1.507  1.00  0.00    -0.038 A 
HETATM    7  C   UNL     1     -20.864  -8.399  -1.905  1.00  0.00     0.048 A 
HETATM    8  C   UNL     1     -20.578  -9.473  -1.050  1.00  0.00     0.101 A 
HETATM    9  C   UNL     1     -21.165  -9.498   0.221  1.00  0.00     0.099 A 
HETATM   10  C   UNL     1     -22.011  -8.467   0.635  1.00  0.00     0.040 A 
HETATM   11  C   UNL     1     -22.283  -7.400  -0.229  1.00  0.00     0.012 A 
BRANCH   8  12
HETATM   12  O   UNL     1     -19.749 -10.520  -1.366  1.00  0.00    -0.353 OA
HETATM   13  C   UNL     1     -20.260 -11.489  -2.272  1.00  0.00     0.210 C 
ENDBRANCH   8  12
BRANCH   9  14
HETATM   14  O   UNL     1     -20.903 -10.544   1.063  1.00  0.00    -0.358 OA
HETATM   15  H   UNL     1     -20.850 -11.366   0.551  1.00  0.00     0.217 HD
ENDBRANCH   9  14
ENDBRANCH   5   6
ENDBRANCH   1   5
BRANCH   2  16
HETATM   16  C   UNL     1     -20.804  -6.249  -6.039  1.00  0.00     0.103 C 
BRANCH  16  17
HETATM   17  C   UNL     1     -19.971  -4.975  -6.106  1.00  0.00     0.010 C 
BRANCH  17  18
HETATM   18  C   UNL     1     -20.095  -4.271  -7.454  1.00  0.00     0.004 C 
BRANCH  18  19
HETATM   19  C   UNL     1     -21.450  -3.569  -7.554  1.00  0.00     0.027 C 
BRANCH  19  20
HETATM   20  C   UNL     1     -22.120  -3.855  -8.864  1.00  0.00    -0.030 C 
HETATM   21  C   UNL     1     -21.459  -3.928 -10.030  1.00  0.00    -0.027 C 
BRANCH  21  22
HETATM   22  C   UNL     1     -22.139  -4.186 -11.351  1.00  0.00    -0.001 C 
HETATM   23  C   UNL     1     -23.481  -4.887 -11.138  1.00  0.00     0.013 C 
HETATM   24  C   UNL     1     -22.340  -2.879 -12.113  1.00  0.00     0.013 C 
ENDBRANCH  21  22
ENDBRANCH  19  20
ENDBRANCH  18  19
ENDBRANCH  17  18
ENDBRANCH  16  17
ENDBRANCH   2  16
TORSDOF 10
ENDMDL
MODEL 4
REMARK VINA RESULT:      -7.5      1.756      2.615
REMARK  10 active torsions:
REMARK  status: ('A' for Active; 'I' for Inactive)
REMARK    1  A    between atoms: O_2  and  C_3 
REMARK    2  A    between atoms: C_5  and  C_6 
REMARK    3  A    between atoms: C_6  and  N_7 
REMARK       I    between atoms: N_7  and  C_8 
REMARK    4  A    between atoms: C_8  and  C_10 
REMARK    5  A    between atoms: C_10  and  C_11 
REMARK    6  A    between atoms: C_11  and  C_12 
REMARK    7  A    between atoms: C_12  and  C_13 
REMARK    8  A    between atoms: C_13  and  C_14 
REMARK    9  A    between atoms: C_15  and  C_16 
REMARK   10  A    between atoms: C_21  and  O_22 
ROOT
HETATM    1  N   UNL     1     -21.654  -5.064  -6.560  1.00  0.00    -0.357 N 
HETATM    2  C   UNL     1     -21.998  -5.876  -5.509  1.00  0.00     0.217 C 
HETATM    3  O   UNL     1     -23.154  -6.089  -5.172  1.00  0.00    -0.274 OA
HETATM    4  H   UNL     1     -20.681  -4.913  -6.777  1.00  0.00     0.162 HD
ENDROOT
BRANCH   1   5
HETATM    5  C   UNL     1     -22.664  -4.401  -7.359  1.00  0.00     0.161 C 
BRANCH   5   6
HETATM    6  C   UNL     1     -22.296  -4.287  -8.822  1.00  0.00    -0.038 A 
HETATM    7  C   UNL     1     -23.288  -4.348  -9.818  1.00  0.00     0.048 A 
HETATM    8  C   UNL     1     -22.969  -4.212 -11.176  1.00  0.00     0.101 A 
HETATM    9  C   UNL     1     -21.630  -4.022 -11.539  1.00  0.00     0.099 A 
HETATM   10  C   UNL     1     -20.631  -3.959 -10.566  1.00  0.00     0.040 A 
HETATM   11  C   UNL     1     -20.966  -4.093  -9.214  1.00  0.00     0.012 A 
BRANCH   8  12
HETATM   12  O   UNL     1     -23.885  -4.246 -12.198  1.00  0.00    -0.353 OA
HETATM   13  C   UNL     1     -24.584  -3.039 -12.471  1.00  0.00     0.210 C 
ENDBRANCH   8  12
BRANCH   9  14
HETATM   14  O   UNL     1     -21.302  -3.897 -12.862  1.00  0.00    -0.358 OA
HETATM   15  H   UNL     1     -22.081  -4.088 -13.407  1.00  0.00     0.217 HD
ENDBRANCH   9  14
ENDBRANCH   5   6
ENDBRANCH   1   5
BRANCH   2  16
HETATM   16  C   UNL     1     -20.804  -6.454  -4.762  1.00  0.00     0.103 C 
BRANCH  16  17
HETATM   17  C   UNL     1     -21.202  -7.749  -4.065  1.00  0.00     0.010 C 
BRANCH  17  18
HETATM   18  C   UNL     1     -20.097  -8.800  -4.119  1.00  0.00     0.004 C 
BRANCH  18  19
HETATM   19  C   UNL     1     -20.505 -10.031  -3.309  1.00  0.00     0.027 C 
BRANCH  19  20
HETATM   20  C   UNL     1     -21.407  -9.662  -2.170  1.00  0.00    -0.030 C 
HETATM   21  C   UNL     1     -20.962  -9.149  -1.013  1.00  0.00    -0.027 C 
BRANCH  21  22
HETATM   22  C   UNL     1     -21.867  -8.808   0.143  1.00  0.00    -0.001 C 
HETATM   23  C   UNL     1     -21.066  -8.699   1.440  1.00  0.00     0.013 C 
HETATM   24  C   UNL     1     -22.613  -7.503  -0.129  1.00  0.00     0.013 C 
ENDBRANCH  21  22
ENDBRANCH  19  20
ENDBRANCH  18  19
ENDBRANCH  17  18
ENDBRANCH  16  17
ENDBRANCH   2  16
TORSDOF 10
ENDMDL
MODEL 5
REMARK VINA RESULT:      -7.4      2.618      3.701
REMARK  10 active torsions:
REMARK  status: ('A' for Active; 'I' for Inactive)
REMARK    1  A    between atoms: O_2  and  C_3 
REMARK    2  A    between atoms: C_5  and  C_6 
REMARK    3  A    between atoms: C_6  and  N_7 
REMARK       I    between atoms: N_7  and  C_8 
REMARK    4  A    between atoms: C_8  and  C_10 
REMARK    5  A    between atoms: C_10  and  C_11 
REMARK    6  A    between atoms: C_11  and  C_12 
REMARK    7  A    between atoms: C_12  and  C_13 
REMARK    8  A    between atoms: C_13  and  C_14 
REMARK    9  A    between atoms: C_15  and  C_16 
REMARK   10  A    between atoms: C_21  and  O_22 
ROOT
HETATM    1  N   UNL     1     -21.323  -5.334  -6.279  1.00  0.00    -0.357 N 
HETATM    2  C   UNL     1     -20.673  -6.542  -6.306  1.00  0.00     0.217 C 
HETATM    3  O   UNL     1     -19.629  -6.732  -6.915  1.00  0.00    -0.274 OA
HETATM    4  H   UNL     1     -22.191  -5.246  -5.774  1.00  0.00     0.162 HD
ENDROOT
BRANCH   1   5
HETATM    5  C   UNL     1     -20.796  -4.181  -6.979  1.00  0.00     0.161 C 
BRANCH   5   6
HETATM    6  C   UNL     1     -21.127  -4.167  -8.454  1.00  0.00    -0.038 A 
HETATM    7  C   UNL     1     -22.451  -3.978  -8.890  1.00  0.00     0.048 A 
HETATM    8  C   UNL     1     -22.772  -3.930 -10.255  1.00  0.00     0.101 A 
HETATM    9  C   UNL     1     -21.745  -4.086 -11.194  1.00  0.00     0.099 A 
HETATM   10  C   UNL     1     -20.425  -4.276 -10.782  1.00  0.00     0.040 A 
HETATM   11  C   UNL     1     -20.121  -4.317  -9.417  1.00  0.00     0.012 A 
BRANCH   8  12
HETATM   12  O   UNL     1     -24.036  -3.735 -10.751  1.00  0.00    -0.353 OA
HETATM   13  C   UNL     1     -25.015  -3.259  -9.836  1.00  0.00     0.210 C 
ENDBRANCH   8  12
BRANCH   9  14
HETATM   14  O   UNL     1     -22.044  -4.051 -12.529  1.00  0.00    -0.358 OA
HETATM   15  H   UNL     1     -21.975  -3.140 -12.853  1.00  0.00     0.217 HD
ENDBRANCH   9  14
ENDBRANCH   5   6
ENDBRANCH   1   5
BRANCH   2  16
HETATM   16  C   UNL     1     -21.395  -7.647  -5.547  1.00  0.00     0.103 C 
BRANCH  16  17
HETATM   17  C   UNL     1     -21.577  -7.245  -4.089  1.00  0.00     0.010 C 
BRANCH  17  18
HETATM   18  C   UNL     1     -21.487  -8.439  -3.143  1.00  0.00     0.004 C 
BRANCH  18  19
HETATM   19  C   UNL     1     -20.376  -8.210  -2.117  1.00  0.00     0.027 C 
BRANCH  19  20
HETATM   20  C   UNL     1     -19.196  -9.097  -2.381  1.00  0.00    -0.030 C 
HETATM   21  C   UNL     1     -18.503  -9.081  -3.531  1.00  0.00    -0.027 C 
BRANCH  21  22
HETATM   22  C   UNL     1     -17.336  -9.994  -3.805  1.00  0.00    -0.001 C 
HETATM   23  C   UNL     1     -16.971  -9.970  -5.289  1.00  0.00     0.013 C 
HETATM   24  C   UNL     1     -16.132  -9.592  -2.958  1.00  0.00     0.013 C 
ENDBRANCH  21  22
ENDBRANCH  19  20
ENDBRANCH  18  19
ENDBRANCH  17  18
ENDBRANCH  16  17
ENDBRANCH   2  16
TORSDOF 10
ENDMDL
MODEL 6
REMARK VINA RESULT:      -7.1     13.081     15.619
REMARK  10 active torsions:
REMARK  status: ('A' for Active; 'I' for Inactive)
REMARK    1  A    between atoms: O_2  and  C_3 
REMARK    2  A    between atoms: C_5  and  C_6 
REMARK    3  A    between atoms: C_6  and  N_7 
REMARK       I    between atoms: N_7  and  C_8 
REMARK    4  A    between atoms: C_8  and  C_10 
REMARK    5  A    between atoms: C_10  and  C_11 
REMARK    6  A    between atoms: C_11  and  C_12 
REMARK    7  A    between atoms: C_12  and  C_13 
REMARK    8  A    between atoms: C_13  and  C_14 
REMARK    9  A    between atoms: C_15  and  C_16 
REMARK   10  A    between atoms: C_21  and  O_22 
ROOT
HETATM    1  N   UNL     1     -33.107  -4.534 -15.410  1.00  0.00    -0.357 N 
HETATM    2  C   UNL     1     -32.640  -4.121 -16.631  1.00  0.00     0.217 C 
HETATM    3  O   UNL     1     -33.212  -3.292 -17.326  1.00  0.00    -0.274 OA
HETATM    4  H   UNL     1     -32.599  -5.236 -14.893  1.00  0.00     0.162 HD
ENDROOT
BRANCH   1   5
HETATM    5  C   UNL     1     -34.330  -3.997 -14.851  1.00  0.00     0.161 C 
BRANCH   5   6
HETATM    6  C   UNL     1     -34.146  -3.369 -13.488  1.00  0.00    -0.038 A 
HETATM    7  C   UNL     1     -34.787  -2.160 -13.162  1.00  0.00     0.048 A 
HETATM    8  C   UNL     1     -34.653  -1.580 -11.892  1.00  0.00     0.101 A 
HETATM    9  C   UNL     1     -33.852  -2.222 -10.939  1.00  0.00     0.099 A 
HETATM   10  C   UNL     1     -33.207  -3.422 -11.243  1.00  0.00     0.040 A 
HETATM   11  C   UNL     1     -33.354  -3.989 -12.514  1.00  0.00     0.012 A 
BRANCH   8  12
HETATM   12  O   UNL     1     -35.260  -0.413 -11.501  1.00  0.00    -0.353 OA
HETATM   13  C   UNL     1     -36.667  -0.331 -11.687  1.00  0.00     0.210 C 
ENDBRANCH   8  12
BRANCH   9  14
HETATM   14  O   UNL     1     -33.704  -1.663  -9.699  1.00  0.00    -0.358 OA
HETATM   15  H   UNL     1     -34.545  -1.712  -9.219  1.00  0.00     0.217 HD
ENDBRANCH   9  14
ENDBRANCH   5   6
ENDBRANCH   1   5
BRANCH   2  16
HETATM   16  C   UNL     1     -31.363  -4.823 -17.073  1.00  0.00     0.103 C 
BRANCH  16  17
HETATM   17  C   UNL     1     -31.624  -6.314 -17.253  1.00  0.00     0.010 C 
BRANCH  17  18
HETATM   18  C   UNL     1     -30.354  -7.087 -17.598  1.00  0.00     0.004 C 
BRANCH  18  19
HETATM   19  C   UNL     1     -29.272  -6.123 -18.087  1.00  0.00     0.027 C 
BRANCH  19  20
HETATM   20  C   UNL     1     -28.341  -6.790 -19.053  1.00  0.00    -0.030 C 
HETATM   21  C   UNL     1     -27.214  -6.219 -19.506  1.00  0.00    -0.027 C 
BRANCH  21  22
HETATM   22  C   UNL     1     -26.294  -6.878 -20.501  1.00  0.00    -0.001 C 
HETATM   23  C   UNL     1     -24.932  -7.163 -19.870  1.00  0.00     0.013 C 
HETATM   24  C   UNL     1     -26.914  -8.171 -21.027  1.00  0.00     0.013 C 
ENDBRANCH  21  22
ENDBRANCH  19  20
ENDBRANCH  18  19
ENDBRANCH  17  18
ENDBRANCH  16  17
ENDBRANCH   2  16
TORSDOF 10
ENDMDL
MODEL 7
REMARK VINA RESULT:      -7.0      1.686      2.277
REMARK  10 active torsions:
REMARK  status: ('A' for Active; 'I' for Inactive)
REMARK    1  A    between atoms: O_2  and  C_3 
REMARK    2  A    between atoms: C_5  and  C_6 
REMARK    3  A    between atoms: C_6  and  N_7 
REMARK       I    between atoms: N_7  and  C_8 
REMARK    4  A    between atoms: C_8  and  C_10 
REMARK    5  A    between atoms: C_10  and  C_11 
REMARK    6  A    between atoms: C_11  and  C_12 
REMARK    7  A    between atoms: C_12  and  C_13 
REMARK    8  A    between atoms: C_13  and  C_14 
REMARK    9  A    between atoms: C_15  and  C_16 
REMARK   10  A    between atoms: C_21  and  O_22 
ROOT
HETATM    1  N   UNL     1     -21.991  -5.211  -6.893  1.00  0.00    -0.357 N 
HETATM    2  C   UNL     1     -21.880  -5.974  -5.759  1.00  0.00     0.217 C 
HETATM    3  O   UNL     1     -22.775  -6.088  -4.933  1.00  0.00    -0.274 OA
HETATM    4  H   UNL     1     -21.210  -5.141  -7.527  1.00  0.00     0.162 HD
ENDROOT
BRANCH   1   5
HETATM    5  C   UNL     1     -23.207  -4.484  -7.194  1.00  0.00     0.161 C 
BRANCH   5   6
HETATM    6  C   UNL     1     -23.315  -4.063  -8.642  1.00  0.00    -0.038 A 
HETATM    7  C   UNL     1     -22.196  -4.117  -9.491  1.00  0.00     0.048 A 
HETATM    8  C   UNL     1     -22.286  -3.761 -10.845  1.00  0.00     0.101 A 
HETATM    9  C   UNL     1     -23.520  -3.332 -11.348  1.00  0.00     0.099 A 
HETATM   10  C   UNL     1     -24.643  -3.270 -10.521  1.00  0.00     0.040 A 
HETATM   11  C   UNL     1     -24.538  -3.633  -9.174  1.00  0.00     0.012 A 
BRANCH   8  12
HETATM   12  O   UNL     1     -21.240  -3.804 -11.733  1.00  0.00    -0.353 OA
HETATM   13  C   UNL     1     -19.968  -4.157 -11.205  1.00  0.00     0.210 C 
ENDBRANCH   8  12
BRANCH   9  14
HETATM   14  O   UNL     1     -23.621  -2.971 -12.665  1.00  0.00    -0.358 OA
HETATM   15  H   UNL     1     -23.252  -2.083 -12.786  1.00  0.00     0.217 HD
ENDBRANCH   9  14
ENDBRANCH   5   6
ENDBRANCH   1   5
BRANCH   2  16
HETATM   16  C   UNL     1     -20.517  -6.632  -5.590  1.00  0.00     0.103 C 
BRANCH  16  17
HETATM   17  C   UNL     1     -20.549  -7.607  -4.420  1.00  0.00     0.010 C 
BRANCH  17  18
HETATM   18  C   UNL     1     -20.982  -9.008  -4.843  1.00  0.00     0.004 C 
BRANCH  18  19
HETATM   19  C   UNL     1     -21.533  -9.771  -3.639  1.00  0.00     0.027 C 
BRANCH  19  20
HETATM   20  C   UNL     1     -21.293  -9.026  -2.361  1.00  0.00    -0.030 C 
HETATM   21  C   UNL     1     -22.054  -9.176  -1.265  1.00  0.00    -0.027 C 
BRANCH  21  22
HETATM   22  C   UNL     1     -21.830  -8.403   0.009  1.00  0.00    -0.001 C 
HETATM   23  C   UNL     1     -23.162  -7.959   0.611  1.00  0.00     0.013 C 
HETATM   24  C   UNL     1     -21.049  -9.245   1.015  1.00  0.00     0.013 C 
ENDBRANCH  21  22
ENDBRANCH  19  20
ENDBRANCH  18  19
ENDBRANCH  17  18
ENDBRANCH  16  17
ENDBRANCH   2  16
TORSDOF 10
ENDMDL
MODEL 8
REMARK VINA RESULT:      -6.9      3.328     10.138
REMARK  10 active torsions:
REMARK  status: ('A' for Active; 'I' for Inactive)
REMARK    1  A    between atoms: O_2  and  C_3 
REMARK    2  A    between atoms: C_5  and  C_6 
REMARK    3  A    between atoms: C_6  and  N_7 
REMARK       I    between atoms: N_7  and  C_8 
REMARK    4  A    between atoms: C_8  and  C_10 
REMARK    5  A    between atoms: C_10  and  C_11 
REMARK    6  A    between atoms: C_11  and  C_12 
REMARK    7  A    between atoms: C_12  and  C_13 
REMARK    8  A    between atoms: C_13  and  C_14 
REMARK    9  A    between atoms: C_15  and  C_16 
REMARK   10  A    between atoms: C_21  and  O_22 
ROOT
HETATM    1  N   UNL     1     -21.379  -7.716  -4.573  1.00  0.00    -0.357 N 
HETATM    2  C   UNL     1     -20.558  -6.997  -5.403  1.00  0.00     0.217 C 
HETATM    3  O   UNL     1     -19.673  -7.502  -6.079  1.00  0.00    -0.274 OA
HETATM    4  H   UNL     1     -22.078  -7.238  -4.026  1.00  0.00     0.162 HD
ENDROOT
BRANCH   1   5
HETATM    5  C   UNL     1     -21.250  -9.153  -4.448  1.00  0.00     0.161 C 
BRANCH   5   6
HETATM    6  C   UNL     1     -21.893  -9.710  -3.198  1.00  0.00    -0.038 A 
HETATM    7  C   UNL     1     -21.843  -8.998  -1.987  1.00  0.00     0.048 A 
HETATM    8  C   UNL     1     -22.461  -9.485  -0.826  1.00  0.00     0.101 A 
HETATM    9  C   UNL     1     -23.130 -10.714  -0.883  1.00  0.00     0.099 A 
HETATM   10  C   UNL     1     -23.189 -11.437  -2.076  1.00  0.00     0.040 A 
HETATM   11  C   UNL     1     -22.571 -10.936  -3.226  1.00  0.00     0.012 A 
BRANCH   8  12
HETATM   12  O   UNL     1     -22.466  -8.837   0.384  1.00  0.00    -0.353 OA
HETATM   13  C   UNL     1     -21.233  -8.794   1.091  1.00  0.00     0.210 C 
ENDBRANCH   8  12
BRANCH   9  14
HETATM   14  O   UNL     1     -23.729 -11.207   0.244  1.00  0.00    -0.358 OA
HETATM   15  H   UNL     1     -23.116 -11.140   0.992  1.00  0.00     0.217 HD
ENDBRANCH   9  14
ENDBRANCH   5   6
ENDBRANCH   1   5
BRANCH   2  16
HETATM   16  C   UNL     1     -20.814  -5.496  -5.374  1.00  0.00     0.103 C 
BRANCH  16  17
HETATM   17  C   UNL     1     -20.258  -4.847  -6.636  1.00  0.00     0.010 C 
BRANCH  17  18
HETATM   18  C   UNL     1     -21.113  -3.676  -7.110  1.00  0.00     0.004 C 
BRANCH  18  19
HETATM   19  C   UNL     1     -22.447  -4.190  -7.654  1.00  0.00     0.027 C 
BRANCH  19  20
HETATM   20  C   UNL     1     -22.403  -4.359  -9.143  1.00  0.00    -0.030 C 
HETATM   21  C   UNL     1     -23.315  -3.828  -9.973  1.00  0.00    -0.027 C 
BRANCH  21  22
HETATM   22  C   UNL     1     -23.286  -4.024 -11.467  1.00  0.00    -0.001 C 
HETATM   23  C   UNL     1     -24.305  -3.113 -12.150  1.00  0.00     0.013 C 
HETATM   24  C   UNL     1     -21.886  -3.755 -12.015  1.00  0.00     0.013 C 
ENDBRANCH  21  22
ENDBRANCH  19  20
ENDBRANCH  18  19
ENDBRANCH  17  18
ENDBRANCH  16  17
ENDBRANCH   2  16
TORSDOF 10
ENDMDL
MODEL 9
REMARK VINA RESULT:      -6.8      2.668      9.865
REMARK  10 active torsions:
REMARK  status: ('A' for Active; 'I' for Inactive)
REMARK    1  A    between atoms: O_2  and  C_3 
REMARK    2  A    between atoms: C_5  and  C_6 
REMARK    3  A    between atoms: C_6  and  N_7 
REMARK       I    between atoms: N_7  and  C_8 
REMARK    4  A    between atoms: C_8  and  C_10 
REMARK    5  A    between atoms: C_10  and  C_11 
REMARK    6  A    between atoms: C_11  and  C_12 
REMARK    7  A    between atoms: C_12  and  C_13 
REMARK    8  A    between atoms: C_13  and  C_14 
REMARK    9  A    between atoms: C_15  and  C_16 
REMARK   10  A    between atoms: C_21  and  O_22 
ROOT
HETATM    1  N   UNL     1     -20.963  -5.504  -5.974  1.00  0.00    -0.357 N 
HETATM    2  C   UNL     1     -22.125  -5.223  -6.647  1.00  0.00     0.217 C 
HETATM    3  O   UNL     1     -23.206  -5.078  -6.094  1.00  0.00    -0.274 OA
HETATM    4  H   UNL     1     -20.106  -5.631  -6.490  1.00  0.00     0.162 HD
ENDROOT
BRANCH   1   5
HETATM    5  C   UNL     1     -20.943  -5.639  -4.533  1.00  0.00     0.161 C 
BRANCH   5   6
HETATM    6  C   UNL     1     -21.132  -7.062  -4.057  1.00  0.00    -0.038 A 
HETATM    7  C   UNL     1     -21.522  -7.330  -2.733  1.00  0.00     0.048 A 
HETATM    8  C   UNL     1     -21.732  -8.642  -2.284  1.00  0.00     0.101 A 
HETATM    9  C   UNL     1     -21.536  -9.701  -3.179  1.00  0.00     0.099 A 
HETATM   10  C   UNL     1     -21.148  -9.455  -4.498  1.00  0.00     0.040 A 
HETATM   11  C   UNL     1     -20.946  -8.140  -4.931  1.00  0.00     0.012 A 
BRANCH   8  12
HETATM   12  O   UNL     1     -22.127  -8.975  -1.012  1.00  0.00    -0.353 OA
HETATM   13  C   UNL     1     -21.189  -8.744   0.030  1.00  0.00     0.210 C 
ENDBRANCH   8  12
BRANCH   9  14
HETATM   14  O   UNL     1     -21.728 -10.987  -2.753  1.00  0.00    -0.358 OA
HETATM   15  H   UNL     1     -20.869 -11.408  -2.599  1.00  0.00     0.217 HD
ENDBRANCH   9  14
ENDBRANCH   5   6
ENDBRANCH   1   5
BRANCH   2  16
HETATM   16  C   UNL     1     -21.960  -5.157  -8.160  1.00  0.00     0.103 C 
BRANCH  16  17
HETATM   17  C   UNL     1     -20.482  -5.085  -8.521  1.00  0.00     0.010 C 
BRANCH  17  18
HETATM   18  C   UNL     1     -20.174  -3.935  -9.476  1.00  0.00     0.004 C 
BRANCH  18  19
HETATM   19  C   UNL     1     -20.133  -4.448 -10.916  1.00  0.00     0.027 C 
BRANCH  19  20
HETATM   20  C   UNL     1     -21.386  -4.094 -11.659  1.00  0.00    -0.030 C 
HETATM   21  C   UNL     1     -21.902  -2.855 -11.686  1.00  0.00    -0.027 C 
BRANCH  21  22
HETATM   22  C   UNL     1     -23.178  -2.507 -12.408  1.00  0.00    -0.001 C 
HETATM   23  C   UNL     1     -23.052  -2.811 -13.901  1.00  0.00     0.013 C 
HETATM   24  C   UNL     1     -24.357  -3.271 -11.811  1.00  0.00     0.013 C 
ENDBRANCH  21  22
ENDBRANCH  19  20
ENDBRANCH  18  19
ENDBRANCH  17  18
ENDBRANCH  16  17
ENDBRANCH   2  16
TORSDOF 10
ENDMDL
