MODEL 1
REMARK VINA RESULT:      -8.3      0.000      0.000
REMARK  10 active torsions:
REMARK  status: ('A' for Active; 'I' for Inactive)
REMARK    1  A    between atoms: O_2  and  C_3 
REMARK    2  A    between atoms: C_5  and  C_6 
REMARK    3  A    between atoms: C_6  and  N_7 
REMARK       I    between atoms: N_7  and  C_8 
REMARK    4  A    between atoms: C_8  and  C_10 
REMARK    5  A    between atoms: C_10  and  C_11 
REMARK    6  A    between atoms: C_11  and  C_12 
REMARK    7  A    between atoms: C_12  and  C_13 
REMARK    8  A    between atoms: C_13  and  C_14 
REMARK    9  A    between atoms: C_15  and  C_16 
REMARK   10  A    between atoms: C_21  and  O_22 
ROOT
HETATM    1  N   UNL     1     -21.180  -5.130  -6.380  1.00  0.00    -0.357 N 
HETATM    2  C   UNL     1     -20.648  -6.393  -6.345  1.00  0.00     0.217 C 
HETATM    3  O   UNL     1     -19.633  -6.726  -6.963  1.00  0.00    -0.274 OA
HETATM    4  H   UNL     1     -22.016  -4.937  -5.844  1.00  0.00     0.162 HD
ENDROOT
BRANCH   1   5
HETATM    5  C   UNL     1     -20.571  -4.091  -7.182  1.00  0.00     0.161 C 
BRANCH   5   6
HETATM    6  C   UNL     1     -21.014  -4.078  -8.628  1.00  0.00    -0.038 A 
HETATM    7  C   UNL     1     -22.300  -3.648  -9.003  1.00  0.00     0.048 A 
HETATM    8  C   UNL     1     -22.693  -3.606 -10.350  1.00  0.00     0.101 A 
HETATM    9  C   UNL     1     -21.785  -4.001 -11.332  1.00  0.00     0.099 A 
HETATM   10  C   UNL     1     -20.498  -4.419 -10.987  1.00  0.00     0.040 A 
HETATM   11  C   UNL     1     -20.121  -4.447  -9.640  1.00  0.00     0.012 A 
BRANCH   8  12
HETATM   12  O   UNL     1     -23.938  -3.203 -10.776  1.00  0.00    -0.353 OA
HETATM   13  C   UNL     1     -25.015  -3.380  -9.862  1.00  0.00     0.210 C 
ENDBRANCH   8  12
BRANCH   9  14
HETATM   14  O   UNL     1     -22.161  -3.978 -12.654  1.00  0.00    -0.358 OA
HETATM   15  H   UNL     1     -21.397  -4.143 -13.208  1.00  0.00     0.217 HD
ENDBRANCH   9  14
ENDBRANCH   5   6
ENDBRANCH   1   5
BRANCH   2  16
HETATM   16  C   UNL     1     -21.427  -7.348  -5.462  1.00  0.00     0.103 C 
BRANCH  16  17
HETATM   17  C   UNL     1     -22.177  -6.595  -4.368  1.00  0.00     0.010 C 
BRANCH  17  18
HETATM   18  C   UNL     1     -21.329  -6.416  -3.107  1.00  0.00     0.004 C 
BRANCH  18  19
HETATM   19  C   UNL     1     -22.225  -6.102  -1.910  1.00  0.00     0.027 C 
BRANCH  19  20
HETATM   20  C   UNL     1     -22.110  -7.162  -0.858  1.00  0.00    -0.030 C 
HETATM   21  C   UNL     1     -21.346  -8.259  -1.002  1.00  0.00    -0.027 C 
BRANCH  21  22
HETATM   22  C   UNL     1     -21.258  -9.343   0.039  1.00  0.00    -0.001 C 
HETATM   23  C   UNL     1     -21.141  -8.746   1.443  1.00  0.00     0.013 C 
HETATM   24  C   UNL     1     -22.473 -10.265  -0.038  1.00  0.00     0.013 C 
ENDBRANCH  21  22
ENDBRANCH  19  20
ENDBRANCH  18  19
ENDBRANCH  17  18
ENDBRANCH  16  17
ENDBRANCH   2  16
TORSDOF 10
ENDMDL
MODEL 2
REMARK VINA RESULT:      -8.2      1.594      2.547
REMARK  10 active torsions:
REMARK  status: ('A' for Active; 'I' for Inactive)
REMARK    1  A    between atoms: O_2  and  C_3 
REMARK    2  A    between atoms: C_5  and  C_6 
REMARK    3  A    between atoms: C_6  and  N_7 
REMARK       I    between atoms: N_7  and  C_8 
REMARK    4  A    between atoms: C_8  and  C_10 
REMARK    5  A    between atoms: C_10  and  C_11 
REMARK    6  A    between atoms: C_11  and  C_12 
REMARK    7  A    between atoms: C_12  and  C_13 
REMARK    8  A    between atoms: C_13  and  C_14 
REMARK    9  A    between atoms: C_15  and  C_16 
REMARK   10  A    between atoms: C_21  and  O_22 
ROOT
HETATM    1  N   UNL     1     -20.781  -4.742  -8.104  1.00  0.00    -0.357 N 
HETATM    2  C   UNL     1     -19.749  -4.667  -7.205  1.00  0.00     0.217 C 
HETATM    3  O   UNL     1     -18.613  -4.282  -7.498  1.00  0.00    -0.274 OA
HETATM    4  H   UNL     1     -21.684  -5.069  -7.784  1.00  0.00     0.162 HD
ENDROOT
BRANCH   1   5
HETATM    5  C   UNL     1     -20.585  -4.380  -9.490  1.00  0.00     0.161 C 
BRANCH   5   6
HETATM    6  C   UNL     1     -21.850  -3.968 -10.213  1.00  0.00    -0.038 A 
HETATM    7  C   UNL     1     -21.810  -3.226 -11.406  1.00  0.00     0.048 A 
HETATM    8  C   UNL     1     -22.986  -2.876 -12.090  1.00  0.00     0.101 A 
HETATM    9  C   UNL     1     -24.215  -3.276 -11.566  1.00  0.00     0.099 A 
HETATM   10  C   UNL     1     -24.282  -4.025 -10.391  1.00  0.00     0.040 A 
HETATM   11  C   UNL     1     -23.098  -4.371  -9.728  1.00  0.00     0.012 A 
BRANCH   8  12
HETATM   12  O   UNL     1     -23.010  -2.146 -13.256  1.00  0.00    -0.353 OA
HETATM   13  C   UNL     1     -22.858  -2.874 -14.469  1.00  0.00     0.210 C 
ENDBRANCH   8  12
BRANCH   9  14
HETATM   14  O   UNL     1     -25.376  -2.929 -12.218  1.00  0.00    -0.358 OA
HETATM   15  H   UNL     1     -26.091  -2.860 -11.584  1.00  0.00     0.217 HD
ENDBRANCH   9  14
ENDBRANCH   5   6
ENDBRANCH   1   5
BRANCH   2  16
HETATM   16  C   UNL     1     -20.140  -5.097  -5.805  1.00  0.00     0.103 C 
BRANCH  16  17
HETATM   17  C   UNL     1     -21.425  -5.917  -5.822  1.00  0.00     0.010 C 
BRANCH  17  18
HETATM   18  C   UNL     1     -21.492  -6.908  -4.659  1.00  0.00     0.004 C 
BRANCH  18  19
HETATM   19  C   UNL     1     -21.628  -6.159  -3.335  1.00  0.00     0.027 C 
BRANCH  19  20
HETATM   20  C   UNL     1     -21.582  -7.104  -2.174  1.00  0.00    -0.030 C 
HETATM   21  C   UNL     1     -22.158  -6.838  -0.989  1.00  0.00    -0.027 C 
BRANCH  21  22
HETATM   22  C   UNL     1     -22.082  -7.771   0.191  1.00  0.00    -0.001 C 
HETATM   23  C   UNL     1     -23.463  -8.338   0.530  1.00  0.00     0.013 C 
HETATM   24  C   UNL     1     -21.102  -8.910  -0.084  1.00  0.00     0.013 C 
ENDBRANCH  21  22
ENDBRANCH  19  20
ENDBRANCH  18  19
ENDBRANCH  17  18
ENDBRANCH  16  17
ENDBRANCH   2  16
TORSDOF 10
ENDMDL
MODEL 3
REMARK VINA RESULT:      -7.6      2.839      9.866
REMARK  10 active torsions:
REMARK  status: ('A' for Active; 'I' for Inactive)
REMARK    1  A    between atoms: O_2  and  C_3 
REMARK    2  A    between atoms: C_5  and  C_6 
REMARK    3  A    between atoms: C_6  and  N_7 
REMARK       I    between atoms: N_7  and  C_8 
REMARK    4  A    between atoms: C_8  and  C_10 
REMARK    5  A    between atoms: C_10  and  C_11 
REMARK    6  A    between atoms: C_11  and  C_12 
REMARK    7  A    between atoms: C_12  and  C_13 
REMARK    8  A    between atoms: C_13  and  C_14 
REMARK    9  A    between atoms: C_15  and  C_16 
REMARK   10  A    between atoms: C_21  and  O_22 
ROOT
HETATM    1  N   UNL     1     -20.841  -6.162  -4.783  1.00  0.00    -0.357 N 
HETATM    2  C   UNL     1     -20.560  -5.902  -6.099  1.00  0.00     0.217 C 
HETATM    3  O   UNL     1     -20.289  -6.776  -6.928  1.00  0.00    -0.274 OA
HETATM    4  H   UNL     1     -21.054  -5.389  -4.167  1.00  0.00     0.162 HD
ENDROOT
BRANCH   1   5
HETATM    5  C   UNL     1     -20.819  -7.516  -4.274  1.00  0.00     0.161 C 
BRANCH   5   6
HETATM    6  C   UNL     1     -21.445  -7.680  -2.906  1.00  0.00    -0.038 A 
HETATM    7  C   UNL     1     -21.606  -8.945  -2.314  1.00  0.00     0.048 A 
HETATM    8  C   UNL     1     -22.157  -9.087  -1.030  1.00  0.00     0.101 A 
HETATM    9  C   UNL     1     -22.551  -7.944  -0.334  1.00  0.00     0.099 A 
HETATM   10  C   UNL     1     -22.389  -6.676  -0.894  1.00  0.00     0.040 A 
HETATM   11  C   UNL     1     -21.831  -6.554  -2.172  1.00  0.00     0.012 A 
BRANCH   8  12
HETATM   12  O   UNL     1     -22.345 -10.297  -0.403  1.00  0.00    -0.353 OA
HETATM   13  C   UNL     1     -23.413 -11.106  -0.883  1.00  0.00     0.210 C 
ENDBRANCH   8  12
BRANCH   9  14
HETATM   14  O   UNL     1     -23.104  -8.069   0.918  1.00  0.00    -0.358 OA
HETATM   15  H   UNL     1     -23.591  -8.891   0.973  1.00  0.00     0.217 HD
ENDBRANCH   9  14
ENDBRANCH   5   6
ENDBRANCH   1   5
BRANCH   2  16
HETATM   16  C   UNL     1     -20.621  -4.427  -6.445  1.00  0.00     0.103 C 
BRANCH  16  17
HETATM   17  C   UNL     1     -21.098  -4.219  -7.879  1.00  0.00     0.010 C 
BRANCH  17  18
HETATM   18  C   UNL     1     -19.934  -4.009  -8.848  1.00  0.00     0.004 C 
BRANCH  18  19
HETATM   19  C   UNL     1     -20.334  -4.449 -10.255  1.00  0.00     0.027 C 
BRANCH  19  20
HETATM   20  C   UNL     1     -21.603  -3.782 -10.689  1.00  0.00    -0.030 C 
HETATM   21  C   UNL     1     -21.806  -3.337 -11.940  1.00  0.00    -0.027 C 
BRANCH  21  22
HETATM   22  C   UNL     1     -23.068  -2.634 -12.369  1.00  0.00    -0.001 C 
HETATM   23  C   UNL     1     -23.249  -2.712 -13.886  1.00  0.00     0.013 C 
HETATM   24  C   UNL     1     -24.283  -3.232 -11.664  1.00  0.00     0.013 C 
ENDBRANCH  21  22
ENDBRANCH  19  20
ENDBRANCH  18  19
ENDBRANCH  17  18
ENDBRANCH  16  17
ENDBRANCH   2  16
TORSDOF 10
ENDMDL
MODEL 4
REMARK VINA RESULT:      -7.2      1.719      2.061
REMARK  10 active torsions:
REMARK  status: ('A' for Active; 'I' for Inactive)
REMARK    1  A    between atoms: O_2  and  C_3 
REMARK    2  A    between atoms: C_5  and  C_6 
REMARK    3  A    between atoms: C_6  and  N_7 
REMARK       I    between atoms: N_7  and  C_8 
REMARK    4  A    between atoms: C_8  and  C_10 
REMARK    5  A    between atoms: C_10  and  C_11 
REMARK    6  A    between atoms: C_11  and  C_12 
REMARK    7  A    between atoms: C_12  and  C_13 
REMARK    8  A    between atoms: C_13  and  C_14 
REMARK    9  A    between atoms: C_15  and  C_16 
REMARK   10  A    between atoms: C_21  and  O_22 
ROOT
HETATM    1  N   UNL     1     -21.275  -5.843  -6.763  1.00  0.00    -0.357 N 
HETATM    2  C   UNL     1     -21.562  -6.412  -5.550  1.00  0.00     0.217 C 
HETATM    3  O   UNL     1     -22.547  -6.111  -4.868  1.00  0.00    -0.274 OA
HETATM    4  H   UNL     1     -20.447  -6.145  -7.260  1.00  0.00     0.162 HD
ENDROOT
BRANCH   1   5
HETATM    5  C   UNL     1     -22.127  -4.815  -7.321  1.00  0.00     0.161 C 
BRANCH   5   6
HETATM    6  C   UNL     1     -21.938  -4.585  -8.804  1.00  0.00    -0.038 A 
HETATM    7  C   UNL     1     -23.030  -4.542  -9.690  1.00  0.00     0.048 A 
HETATM    8  C   UNL     1     -22.850  -4.294 -11.060  1.00  0.00     0.101 A 
HETATM    9  C   UNL     1     -21.559  -4.088 -11.546  1.00  0.00     0.099 A 
HETATM   10  C   UNL     1     -20.460  -4.112 -10.686  1.00  0.00     0.040 A 
HETATM   11  C   UNL     1     -20.659  -4.353  -9.322  1.00  0.00     0.012 A 
BRANCH   8  12
HETATM   12  O   UNL     1     -23.877  -4.247 -11.974  1.00  0.00    -0.353 OA
HETATM   13  C   UNL     1     -24.531  -2.994 -12.139  1.00  0.00     0.210 C 
ENDBRANCH   8  12
BRANCH   9  14
HETATM   14  O   UNL     1     -21.367  -3.858 -12.888  1.00  0.00    -0.358 OA
HETATM   15  H   UNL     1     -20.906  -3.027 -13.008  1.00  0.00     0.217 HD
ENDBRANCH   9  14
ENDBRANCH   5   6
ENDBRANCH   1   5
BRANCH   2  16
HETATM   16  C   UNL     1     -20.553  -7.460  -5.124  1.00  0.00     0.103 C 
BRANCH  16  17
HETATM   17  C   UNL     1     -21.177  -8.851  -5.116  1.00  0.00     0.010 C 
BRANCH  17  18
HETATM   18  C   UNL     1     -20.505  -9.778  -4.101  1.00  0.00     0.004 C 
BRANCH  18  19
HETATM   19  C   UNL     1     -19.875  -8.959  -2.976  1.00  0.00     0.027 C 
BRANCH  19  20
HETATM   20  C   UNL     1     -20.388  -9.396  -1.639  1.00  0.00    -0.030 C 
HETATM   21  C   UNL     1     -21.696  -9.533  -1.364  1.00  0.00    -0.027 C 
BRANCH  21  22
HETATM   22  C   UNL     1     -22.215  -9.938  -0.009  1.00  0.00    -0.001 C 
HETATM   23  C   UNL     1     -23.507 -10.747  -0.136  1.00  0.00     0.013 C 
HETATM   24  C   UNL     1     -21.164 -10.745   0.751  1.00  0.00     0.013 C 
ENDBRANCH  21  22
ENDBRANCH  19  20
ENDBRANCH  18  19
ENDBRANCH  17  18
ENDBRANCH  16  17
ENDBRANCH   2  16
TORSDOF 10
ENDMDL
MODEL 5
REMARK VINA RESULT:      -7.1      2.765      3.486
REMARK  10 active torsions:
REMARK  status: ('A' for Active; 'I' for Inactive)
REMARK    1  A    between atoms: O_2  and  C_3 
REMARK    2  A    between atoms: C_5  and  C_6 
REMARK    3  A    between atoms: C_6  and  N_7 
REMARK       I    between atoms: N_7  and  C_8 
REMARK    4  A    between atoms: C_8  and  C_10 
REMARK    5  A    between atoms: C_10  and  C_11 
REMARK    6  A    between atoms: C_11  and  C_12 
REMARK    7  A    between atoms: C_12  and  C_13 
REMARK    8  A    between atoms: C_13  and  C_14 
REMARK    9  A    between atoms: C_15  and  C_16 
REMARK   10  A    between atoms: C_21  and  O_22 
ROOT
HETATM    1  N   UNL     1     -20.563  -5.519  -6.527  1.00  0.00    -0.357 N 
HETATM    2  C   UNL     1     -21.548  -6.168  -5.830  1.00  0.00     0.217 C 
HETATM    3  O   UNL     1     -22.661  -5.683  -5.604  1.00  0.00    -0.274 OA
HETATM    4  H   UNL     1     -19.677  -5.986  -6.670  1.00  0.00     0.162 HD
ENDROOT
BRANCH   1   5
HETATM    5  C   UNL     1     -20.773  -4.181  -7.036  1.00  0.00     0.161 C 
BRANCH   5   6
HETATM    6  C   UNL     1     -21.081  -4.118  -8.516  1.00  0.00    -0.038 A 
HETATM    7  C   UNL     1     -22.351  -3.743  -8.991  1.00  0.00     0.048 A 
HETATM    8  C   UNL     1     -22.620  -3.653 -10.366  1.00  0.00     0.101 A 
HETATM    9  C   UNL     1     -21.603  -3.945 -11.274  1.00  0.00     0.099 A 
HETATM   10  C   UNL     1     -20.330  -4.306 -10.829  1.00  0.00     0.040 A 
HETATM   11  C   UNL     1     -20.078  -4.382  -9.454  1.00  0.00     0.012 A 
BRANCH   8  12
HETATM   12  O   UNL     1     -23.843  -3.299 -10.889  1.00  0.00    -0.353 OA
HETATM   13  C   UNL     1     -24.955  -3.343 -10.002  1.00  0.00     0.210 C 
ENDBRANCH   8  12
BRANCH   9  14
HETATM   14  O   UNL     1     -21.856  -3.875 -12.624  1.00  0.00    -0.358 OA
HETATM   15  H   UNL     1     -21.338  -4.537 -13.082  1.00  0.00     0.217 HD
ENDBRANCH   9  14
ENDBRANCH   5   6
ENDBRANCH   1   5
BRANCH   2  16
HETATM   16  C   UNL     1     -21.143  -7.553  -5.367  1.00  0.00     0.103 C 
BRANCH  16  17
HETATM   17  C   UNL     1     -21.284  -7.689  -3.854  1.00  0.00     0.010 C 
BRANCH  17  18
HETATM   18  C   UNL     1     -20.944  -9.098  -3.368  1.00  0.00     0.004 C 
BRANCH  18  19
HETATM   19  C   UNL     1     -20.529  -9.977  -4.547  1.00  0.00     0.027 C 
BRANCH  19  20
HETATM   20  C   UNL     1     -19.124 -10.467  -4.385  1.00  0.00    -0.030 C 
HETATM   21  C   UNL     1     -18.084  -9.649  -4.151  1.00  0.00    -0.027 C 
BRANCH  21  22
HETATM   22  C   UNL     1     -16.664 -10.137  -4.024  1.00  0.00    -0.001 C 
HETATM   23  C   UNL     1     -15.881  -9.885  -5.313  1.00  0.00     0.013 C 
HETATM   24  C   UNL     1     -15.966  -9.462  -2.846  1.00  0.00     0.013 C 
ENDBRANCH  21  22
ENDBRANCH  19  20
ENDBRANCH  18  19
ENDBRANCH  17  18
ENDBRANCH  16  17
ENDBRANCH   2  16
TORSDOF 10
ENDMDL
MODEL 6
REMARK VINA RESULT:      -7.0      1.636      2.531
REMARK  10 active torsions:
REMARK  status: ('A' for Active; 'I' for Inactive)
REMARK    1  A    between atoms: O_2  and  C_3 
REMARK    2  A    between atoms: C_5  and  C_6 
REMARK    3  A    between atoms: C_6  and  N_7 
REMARK       I    between atoms: N_7  and  C_8 
REMARK    4  A    between atoms: C_8  and  C_10 
REMARK    5  A    between atoms: C_10  and  C_11 
REMARK    6  A    between atoms: C_11  and  C_12 
REMARK    7  A    between atoms: C_12  and  C_13 
REMARK    8  A    between atoms: C_13  and  C_14 
REMARK    9  A    between atoms: C_15  and  C_16 
REMARK   10  A    between atoms: C_21  and  O_22 
ROOT
HETATM    1  N   UNL     1     -20.800  -6.314  -7.302  1.00  0.00    -0.357 N 
HETATM    2  C   UNL     1     -20.842  -6.244  -5.934  1.00  0.00     0.217 C 
HETATM    3  O   UNL     1     -20.685  -5.198  -5.297  1.00  0.00    -0.274 OA
HETATM    4  H   UNL     1     -20.939  -7.211  -7.750  1.00  0.00     0.162 HD
ENDROOT
BRANCH   1   5
HETATM    5  C   UNL     1     -20.545  -5.134  -8.098  1.00  0.00     0.161 C 
BRANCH   5   6
HETATM    6  C   UNL     1     -21.755  -4.605  -8.837  1.00  0.00    -0.038 A 
HETATM    7  C   UNL     1     -21.811  -4.583 -10.242  1.00  0.00     0.048 A 
HETATM    8  C   UNL     1     -22.950  -4.122 -10.921  1.00  0.00     0.101 A 
HETATM    9  C   UNL     1     -24.045  -3.679 -10.180  1.00  0.00     0.099 A 
HETATM   10  C   UNL     1     -24.021  -3.704  -8.785  1.00  0.00     0.040 A 
HETATM   11  C   UNL     1     -22.879  -4.173  -8.126  1.00  0.00     0.012 A 
BRANCH   8  12
HETATM   12  O   UNL     1     -23.060  -4.070 -12.292  1.00  0.00    -0.353 OA
HETATM   13  C   UNL     1     -22.614  -2.875 -12.924  1.00  0.00     0.210 C 
ENDBRANCH   8  12
BRANCH   9  14
HETATM   14  O   UNL     1     -25.162  -3.213 -10.832  1.00  0.00    -0.358 OA
HETATM   15  H   UNL     1     -25.949  -3.540 -10.395  1.00  0.00     0.217 HD
ENDBRANCH   9  14
ENDBRANCH   5   6
ENDBRANCH   1   5
BRANCH   2  16
HETATM   16  C   UNL     1     -21.110  -7.581  -5.272  1.00  0.00     0.103 C 
BRANCH  16  17
HETATM   17  C   UNL     1     -19.811  -8.346  -5.037  1.00  0.00     0.010 C 
BRANCH  17  18
HETATM   18  C   UNL     1     -19.600  -8.681  -3.559  1.00  0.00     0.004 C 
BRANCH  18  19
HETATM   19  C   UNL     1     -19.958 -10.141  -3.293  1.00  0.00     0.027 C 
BRANCH  19  20
HETATM   20  C   UNL     1     -20.640 -10.296  -1.969  1.00  0.00    -0.030 C 
HETATM   21  C   UNL     1     -21.400  -9.335  -1.417  1.00  0.00    -0.027 C 
BRANCH  21  22
HETATM   22  C   UNL     1     -22.056  -9.475  -0.069  1.00  0.00    -0.001 C 
HETATM   23  C   UNL     1     -22.282  -8.106   0.575  1.00  0.00     0.013 C 
HETATM   24  C   UNL     1     -23.382 -10.222  -0.191  1.00  0.00     0.013 C 
ENDBRANCH  21  22
ENDBRANCH  19  20
ENDBRANCH  18  19
ENDBRANCH  17  18
ENDBRANCH  16  17
ENDBRANCH   2  16
TORSDOF 10
ENDMDL
MODEL 7
REMARK VINA RESULT:      -7.0      2.043      2.659
REMARK  10 active torsions:
REMARK  status: ('A' for Active; 'I' for Inactive)
REMARK    1  A    between atoms: O_2  and  C_3 
REMARK    2  A    between atoms: C_5  and  C_6 
REMARK    3  A    between atoms: C_6  and  N_7 
REMARK       I    between atoms: N_7  and  C_8 
REMARK    4  A    between atoms: C_8  and  C_10 
REMARK    5  A    between atoms: C_10  and  C_11 
REMARK    6  A    between atoms: C_11  and  C_12 
REMARK    7  A    between atoms: C_12  and  C_13 
REMARK    8  A    between atoms: C_13  and  C_14 
REMARK    9  A    between atoms: C_15  and  C_16 
REMARK   10  A    between atoms: C_21  and  O_22 
ROOT
HETATM    1  N   UNL     1     -20.315  -5.405  -6.056  1.00  0.00    -0.357 N 
HETATM    2  C   UNL     1     -21.127  -6.337  -5.463  1.00  0.00     0.217 C 
HETATM    3  O   UNL     1     -22.354  -6.226  -5.385  1.00  0.00    -0.274 OA
HETATM    4  H   UNL     1     -19.318  -5.571  -6.079  1.00  0.00     0.162 HD
ENDROOT
BRANCH   1   5
HETATM    5  C   UNL     1     -20.867  -4.195  -6.624  1.00  0.00     0.161 C 
BRANCH   5   6
HETATM    6  C   UNL     1     -21.153  -4.275  -8.107  1.00  0.00    -0.038 A 
HETATM    7  C   UNL     1     -22.448  -4.089  -8.621  1.00  0.00     0.048 A 
HETATM    8  C   UNL     1     -22.700  -4.131 -10.002  1.00  0.00     0.101 A 
HETATM    9  C   UNL     1     -21.638  -4.364 -10.876  1.00  0.00     0.099 A 
HETATM   10  C   UNL     1     -20.341  -4.537 -10.392  1.00  0.00     0.040 A 
HETATM   11  C   UNL     1     -20.108  -4.484  -9.013  1.00  0.00     0.012 A 
BRANCH   8  12
HETATM   12  O   UNL     1     -23.946  -3.964 -10.562  1.00  0.00    -0.353 OA
HETATM   13  C   UNL     1     -24.911  -3.271  -9.780  1.00  0.00     0.210 C 
ENDBRANCH   8  12
BRANCH   9  14
HETATM   14  O   UNL     1     -21.873  -4.421 -12.229  1.00  0.00    -0.358 OA
HETATM   15  H   UNL     1     -22.394  -3.664 -12.497  1.00  0.00     0.217 HD
ENDBRANCH   9  14
ENDBRANCH   5   6
ENDBRANCH   1   5
BRANCH   2  16
HETATM   16  C   UNL     1     -20.370  -7.532  -4.916  1.00  0.00     0.103 C 
BRANCH  16  17
HETATM   17  C   UNL     1     -21.076  -8.837  -5.270  1.00  0.00     0.010 C 
BRANCH  17  18
HETATM   18  C   UNL     1     -21.249  -9.746  -4.052  1.00  0.00     0.004 C 
BRANCH  18  19
HETATM   19  C   UNL     1     -21.795 -11.106  -4.482  1.00  0.00     0.027 C 
BRANCH  19  20
HETATM   20  C   UNL     1     -22.707 -11.675  -3.441  1.00  0.00    -0.030 C 
HETATM   21  C   UNL     1     -23.122 -10.978  -2.369  1.00  0.00    -0.027 C 
BRANCH  21  22
HETATM   22  C   UNL     1     -24.011 -11.560  -1.301  1.00  0.00    -0.001 C 
HETATM   23  C   UNL     1     -23.683 -13.035  -1.059  1.00  0.00     0.013 C 
HETATM   24  C   UNL     1     -23.876 -10.773   0.000  1.00  0.00     0.013 C 
ENDBRANCH  21  22
ENDBRANCH  19  20
ENDBRANCH  18  19
ENDBRANCH  17  18
ENDBRANCH  16  17
ENDBRANCH   2  16
TORSDOF 10
ENDMDL
MODEL 8
REMARK VINA RESULT:      -6.8      2.065      3.558
REMARK  10 active torsions:
REMARK  status: ('A' for Active; 'I' for Inactive)
REMARK    1  A    between atoms: O_2  and  C_3 
REMARK    2  A    between atoms: C_5  and  C_6 
REMARK    3  A    between atoms: C_6  and  N_7 
REMARK       I    between atoms: N_7  and  C_8 
REMARK    4  A    between atoms: C_8  and  C_10 
REMARK    5  A    between atoms: C_10  and  C_11 
REMARK    6  A    between atoms: C_11  and  C_12 
REMARK    7  A    between atoms: C_12  and  C_13 
REMARK    8  A    between atoms: C_13  and  C_14 
REMARK    9  A    between atoms: C_15  and  C_16 
REMARK   10  A    between atoms: C_21  and  O_22 
ROOT
HETATM    1  N   UNL     1     -22.043  -6.387  -3.767  1.00  0.00    -0.357 N 
HETATM    2  C   UNL     1     -21.535  -7.545  -3.238  1.00  0.00     0.217 C 
HETATM    3  O   UNL     1     -21.499  -8.618  -3.847  1.00  0.00    -0.274 OA
HETATM    4  H   UNL     1     -22.036  -5.548  -3.203  1.00  0.00     0.162 HD
ENDROOT
BRANCH   1   5
HETATM    5  C   UNL     1     -22.596  -6.362  -5.104  1.00  0.00     0.161 C 
BRANCH   5   6
HETATM    6  C   UNL     1     -21.780  -5.572  -6.103  1.00  0.00    -0.038 A 
HETATM    7  C   UNL     1     -22.385  -4.876  -7.165  1.00  0.00     0.048 A 
HETATM    8  C   UNL     1     -21.624  -4.117  -8.069  1.00  0.00     0.101 A 
HETATM    9  C   UNL     1     -20.240  -4.057  -7.904  1.00  0.00     0.099 A 
HETATM   10  C   UNL     1     -19.617  -4.728  -6.850  1.00  0.00     0.040 A 
HETATM   11  C   UNL     1     -20.393  -5.473  -5.955  1.00  0.00     0.012 A 
BRANCH   8  12
HETATM   12  O   UNL     1     -22.158  -3.422  -9.129  1.00  0.00    -0.353 OA
HETATM   13  C   UNL     1     -23.232  -4.043  -9.825  1.00  0.00     0.210 C 
ENDBRANCH   8  12
BRANCH   9  14
HETATM   14  O   UNL     1     -19.482  -3.329  -8.789  1.00  0.00    -0.358 OA
HETATM   15  H   UNL     1     -18.887  -3.914  -9.259  1.00  0.00     0.217 HD
ENDBRANCH   9  14
ENDBRANCH   5   6
ENDBRANCH   1   5
BRANCH   2  16
HETATM   16  C   UNL     1     -21.012  -7.380  -1.825  1.00  0.00     0.103 C 
BRANCH  16  17
HETATM   17  C   UNL     1     -22.153  -7.143  -0.841  1.00  0.00     0.010 C 
BRANCH  17  18
HETATM   18  C   UNL     1     -21.840  -7.699   0.549  1.00  0.00     0.004 C 
BRANCH  18  19
HETATM   19  C   UNL     1     -22.987  -8.584   1.033  1.00  0.00     0.027 C 
BRANCH  19  20
HETATM   20  C   UNL     1     -23.512  -9.441  -0.077  1.00  0.00    -0.030 C 
HETATM   21  C   UNL     1     -23.475 -10.784  -0.048  1.00  0.00    -0.027 C 
BRANCH  21  22
HETATM   22  C   UNL     1     -23.970 -11.647  -1.179  1.00  0.00    -0.001 C 
HETATM   23  C   UNL     1     -23.120 -11.445  -2.434  1.00  0.00     0.013 C 
HETATM   24  C   UNL     1     -23.966 -13.120  -0.774  1.00  0.00     0.013 C 
ENDBRANCH  21  22
ENDBRANCH  19  20
ENDBRANCH  18  19
ENDBRANCH  17  18
ENDBRANCH  16  17
ENDBRANCH   2  16
TORSDOF 10
ENDMDL
MODEL 9
REMARK VINA RESULT:      -6.7      4.631     10.397
REMARK  10 active torsions:
REMARK  status: ('A' for Active; 'I' for Inactive)
REMARK    1  A    between atoms: O_2  and  C_3 
REMARK    2  A    between atoms: C_5  and  C_6 
REMARK    3  A    between atoms: C_6  and  N_7 
REMARK       I    between atoms: N_7  and  C_8 
REMARK    4  A    between atoms: C_8  and  C_10 
REMARK    5  A    between atoms: C_10  and  C_11 
REMARK    6  A    between atoms: C_11  and  C_12 
REMARK    7  A    between atoms: C_12  and  C_13 
REMARK    8  A    between atoms: C_13  and  C_14 
REMARK    9  A    between atoms: C_15  and  C_16 
REMARK   10  A    between atoms: C_21  and  O_22 
ROOT
HETATM    1  N   UNL     1     -21.447  -8.341  -0.619  1.00  0.00    -0.357 N 
HETATM    2  C   UNL     1     -22.403  -7.358  -0.615  1.00  0.00     0.217 C 
HETATM    3  O   UNL     1     -23.295  -7.273   0.234  1.00  0.00    -0.274 OA
HETATM    4  H   UNL     1     -20.749  -8.341  -1.350  1.00  0.00     0.162 HD
ENDROOT
BRANCH   1   5
HETATM    5  C   UNL     1     -21.443  -9.374   0.395  1.00  0.00     0.161 C 
BRANCH   5   6
HETATM    6  C   UNL     1     -22.222 -10.617   0.024  1.00  0.00    -0.038 A 
HETATM    7  C   UNL     1     -21.924 -11.871   0.586  1.00  0.00     0.048 A 
HETATM    8  C   UNL     1     -22.674 -13.013   0.262  1.00  0.00     0.101 A 
HETATM    9  C   UNL     1     -23.733 -12.894  -0.636  1.00  0.00     0.099 A 
HETATM   10  C   UNL     1     -24.059 -11.658  -1.197  1.00  0.00     0.040 A 
HETATM   11  C   UNL     1     -23.305 -10.529  -0.857  1.00  0.00     0.012 A 
BRANCH   8  12
HETATM   12  O   UNL     1     -22.425 -14.266   0.774  1.00  0.00    -0.353 OA
HETATM   13  C   UNL     1     -22.253 -14.360   2.183  1.00  0.00     0.210 C 
ENDBRANCH   8  12
BRANCH   9  14
HETATM   14  O   UNL     1     -24.467 -14.007  -0.972  1.00  0.00    -0.358 OA
HETATM   15  H   UNL     1     -25.398 -13.836  -0.823  1.00  0.00     0.217 HD
ENDBRANCH   9  14
ENDBRANCH   5   6
ENDBRANCH   1   5
BRANCH   2  16
HETATM   16  C   UNL     1     -22.254  -6.373  -1.758  1.00  0.00     0.103 C 
BRANCH  16  17
HETATM   17  C   UNL     1     -21.377  -6.947  -2.866  1.00  0.00     0.010 C 
BRANCH  17  18
HETATM   18  C   UNL     1     -21.996  -6.751  -4.251  1.00  0.00     0.004 C 
BRANCH  18  19
HETATM   19  C   UNL     1     -21.069  -7.313  -5.327  1.00  0.00     0.027 C 
BRANCH  19  20
HETATM   20  C   UNL     1     -20.763  -6.281  -6.367  1.00  0.00    -0.030 C 
HETATM   21  C   UNL     1     -21.054  -4.978  -6.216  1.00  0.00    -0.027 C 
BRANCH  21  22
HETATM   22  C   UNL     1     -20.779  -3.944  -7.276  1.00  0.00    -0.001 C 
HETATM   23  C   UNL     1     -19.493  -4.270  -8.038  1.00  0.00     0.013 C 
HETATM   24  C   UNL     1     -21.953  -3.844  -8.248  1.00  0.00     0.013 C 
ENDBRANCH  21  22
ENDBRANCH  19  20
ENDBRANCH  18  19
ENDBRANCH  17  18
ENDBRANCH  16  17
ENDBRANCH   2  16
TORSDOF 10
ENDMDL
