REMARK  10 active torsions:
REMARK  status: ('A' for Active; 'I' for Inactive)
REMARK    1  A    between atoms: O_2  and  C_3 
REMARK    2  A    between atoms: C_5  and  C_6 
REMARK    3  A    between atoms: C_6  and  N_7 
REMARK       I    between atoms: N_7  and  C_8 
REMARK    4  A    between atoms: C_8  and  C_10 
REMARK    5  A    between atoms: C_10  and  C_11 
REMARK    6  A    between atoms: C_11  and  C_12 
REMARK    7  A    between atoms: C_12  and  C_13 
REMARK    8  A    between atoms: C_13  and  C_14 
REMARK    9  A    between atoms: C_15  and  C_16 
REMARK   10  A    between atoms: C_21  and  O_22 
ROOT
HETATM    1  N   UNL     1       0.959   4.967  -0.686  1.00  0.00    -0.357 N 
HETATM    2  C   UNL     1       0.253   5.953  -0.045  1.00  0.00     0.217 C 
HETATM    3  O   UNL     1       0.778   6.925   0.480  1.00  0.00    -0.274 OA
HETATM    4  H   UNL     1       0.469   4.180  -1.083  1.00  0.00     0.162 HD
ENDROOT
BRANCH   1   5
HETATM    5  C   UNL     1       2.402   5.022  -0.790  1.00  0.00     0.161 C 
BRANCH   5   6
HETATM    6  C   UNL     1       2.891   5.700  -2.050  1.00  0.00    -0.038 A 
HETATM    7  C   UNL     1       3.140   7.084  -2.070  1.00  0.00     0.048 A 
HETATM    8  C   UNL     1       3.624   7.724  -3.220  1.00  0.00     0.101 A 
HETATM    9  C   UNL     1       3.850   6.960  -4.372  1.00  0.00     0.099 A 
HETATM   10  C   UNL     1       3.608   5.585  -4.373  1.00  0.00     0.040 A 
HETATM   11  C   UNL     1       3.129   4.961  -3.216  1.00  0.00     0.012 A 
BRANCH   8  12
HETATM   12  O   UNL     1       3.903   9.065  -3.306  1.00  0.00    -0.353 OA
HETATM   13  C   UNL     1       3.673   9.842  -2.138  1.00  0.00     0.210 C 
ENDBRANCH   8  12
BRANCH   9  14
HETATM   14  O   UNL     1       4.313   7.572  -5.505  1.00  0.00    -0.358 OA
HETATM   15  H   UNL     1       4.384   6.920  -6.219  1.00  0.00     0.217 HD
ENDBRANCH   9  14
ENDBRANCH   5   6
ENDBRANCH   1   5
BRANCH   2  16
HETATM   16  C   UNL     1      -1.249   5.706  -0.001  1.00  0.00     0.103 C 
BRANCH  16  17
HETATM   17  C   UNL     1      -1.996   7.034   0.018  1.00  0.00     0.010 C 
BRANCH  17  18
HETATM   18  C   UNL     1      -3.510   6.847   0.055  1.00  0.00     0.004 C 
BRANCH  18  19
HETATM   19  C   UNL     1      -4.205   8.209   0.056  1.00  0.00     0.027 C 
BRANCH  19  20
HETATM   20  C   UNL     1      -5.696   8.063   0.098  1.00  0.00    -0.030 C 
HETATM   21  C   UNL     1      -6.511   8.536  -0.858  1.00  0.00    -0.027 C 
BRANCH  21  22
HETATM   22  C   UNL     1      -8.012   8.415  -0.799  1.00  0.00    -0.001 C 
HETATM   23  C   UNL     1      -8.665   9.797  -0.817  1.00  0.00     0.013 C 
HETATM   24  C   UNL     1      -8.527   7.572  -1.963  1.00  0.00     0.013 C 
ENDBRANCH  21  22
ENDBRANCH  19  20
ENDBRANCH  18  19
ENDBRANCH  17  18
ENDBRANCH  16  17
ENDBRANCH   2  16
TORSDOF 10
