REMARK  10 active torsions:
REMARK  status: ('A' for Active; 'I' for Inactive)
REMARK    1  A    between atoms: O_2  and  C_3 
REMARK    2  A    between atoms: C_5  and  C_6 
REMARK    3  A    between atoms: C_6  and  N_7 
REMARK       I    between atoms: N_7  and  C_8 
REMARK    4  A    between atoms: C_8  and  C_10 
REMARK    5  A    between atoms: C_10  and  C_11 
REMARK    6  A    between atoms: C_11  and  C_12 
REMARK    7  A    between atoms: C_12  and  C_13 
REMARK    8  A    between atoms: C_13  and  C_14 
REMARK    9  A    between atoms: C_15  and  C_16 
REMARK   10  A    between atoms: C_21  and  O_22 
ROOT
HETATM    1  N   UNL     1       0.896   4.981  -0.614  1.00  0.00    -0.357 N 
HETATM    2  C   UNL     1       0.203   5.967   0.039  1.00  0.00     0.217 C 
HETATM    3  O   UNL     1       0.737   6.956   0.550  1.00  0.00    -0.274 OA
HETATM    4  H   UNL     1       0.384   4.202  -1.006  1.00  0.00     0.162 HD
ENDROOT
BRANCH   1   5
HETATM    5  C   UNL     1       2.337   5.039  -0.729  1.00  0.00     0.161 C 
BRANCH   5   6
HETATM    6  C   UNL     1       2.851   5.020  -2.152  1.00  0.00    -0.038 A 
HETATM    7  C   UNL     1       2.524   6.035  -3.069  1.00  0.00     0.048 A 
HETATM    8  C   UNL     1       3.032   6.029  -4.378  1.00  0.00     0.101 A 
HETATM    9  C   UNL     1       3.877   4.991  -4.770  1.00  0.00     0.099 A 
HETATM   10  C   UNL     1       4.228   3.979  -3.875  1.00  0.00     0.040 A 
HETATM   11  C   UNL     1       3.718   4.006  -2.572  1.00  0.00     0.012 A 
BRANCH   8  12
HETATM   12  O   UNL     1       2.742   6.989  -5.320  1.00  0.00    -0.353 OA
HETATM   13  C   UNL     1       1.881   8.046  -4.912  1.00  0.00     0.210 C 
ENDBRANCH   8  12
BRANCH   9  14
HETATM   14  O   UNL     1       4.371   4.965  -6.053  1.00  0.00    -0.358 OA
HETATM   15  H   UNL     1       4.906   4.180  -6.175  1.00  0.00     0.217 HD
ENDBRANCH   9  14
ENDBRANCH   5   6
ENDBRANCH   1   5
BRANCH   2  16
HETATM   16  C   UNL     1      -1.294   5.730   0.068  1.00  0.00     0.103 C 
BRANCH  16  17
HETATM   17  C   UNL     1      -2.058   7.050   0.084  1.00  0.00     0.010 C 
BRANCH  17  18
HETATM   18  C   UNL     1      -1.763   7.901  -1.152  1.00  0.00     0.004 C 
BRANCH  18  19
HETATM   19  C   UNL     1      -2.544   9.212  -1.088  1.00  0.00     0.027 C 
BRANCH  19  20
HETATM   20  C   UNL     1      -2.270  10.062  -2.290  1.00  0.00    -0.030 C 
HETATM   21  C   UNL     1      -3.230  10.456  -3.144  1.00  0.00    -0.027 C 
BRANCH  21  22
HETATM   22  C   UNL     1      -2.951  11.281  -4.373  1.00  0.00    -0.001 C 
HETATM   23  C   UNL     1      -3.379  10.538  -5.640  1.00  0.00     0.013 C 
HETATM   24  C   UNL     1      -3.664  12.629  -4.290  1.00  0.00     0.013 C 
ENDBRANCH  21  22
ENDBRANCH  19  20
ENDBRANCH  18  19
ENDBRANCH  17  18
ENDBRANCH  16  17
ENDBRANCH   2  16
TORSDOF 10
