REMARK  16 active torsions:
REMARK  status: ('A' for Active; 'I' for Inactive)
REMARK    1  A    between atoms: C_2  and  C_3 
REMARK    2  A    between atoms: C_3  and  C_4 
REMARK    3  A    between atoms: C_4  and  C_5 
REMARK    4  A    between atoms: C_5  and  C_6 
REMARK    5  A    between atoms: C_7  and  C_8 
REMARK    6  A    between atoms: C_8  and  C_9 
REMARK    7  A    between atoms: C_10  and  C_11 
REMARK    8  A    between atoms: C_11  and  C_12 
REMARK    9  A    between atoms: C_13  and  C_14 
REMARK   10  A    between atoms: C_15  and  C_16 
REMARK   11  A    between atoms: C_16  and  O_17 
REMARK   12  A    between atoms: C_16  and  C_18 
REMARK   13  A    between atoms: C_18  and  C_19 
REMARK   14  A    between atoms: C_19  and  C_20 
REMARK   15  A    between atoms: C_20  and  C_21 
REMARK   16  A    between atoms: C_21  and  O_23 
ROOT
HETATM    1  C   UNL     1      12.728   2.072   6.811  1.00  0.00    -0.023 C 
HETATM    2  C   UNL     1      13.445   1.322   7.658  1.00  0.00    -0.004 C 
ENDROOT
BRANCH   2   3
HETATM    3  C   UNL     1      14.885   1.354   7.700  1.00  0.00    -0.002 C 
HETATM    4  C   UNL     1      15.607   0.606   8.548  1.00  0.00     0.004 C 
BRANCH   4   5
HETATM    5  C   UNL     1      17.108   0.602   8.553  1.00  0.00     0.141 C 
BRANCH   5   6
HETATM    6  O   UNL     1      17.551   0.992   9.847  1.00  0.00    -0.392 OA
HETATM    7  H   UNL     1      17.177   0.370  10.492  1.00  0.00     0.210 HD
ENDBRANCH   5   6
BRANCH   5   8
HETATM    8  C   UNL     1      17.693  -0.776   8.215  1.00  0.00     0.036 C 
BRANCH   8   9
HETATM    9  C   UNL     1      17.279  -1.247   6.819  1.00  0.00     0.013 C 
BRANCH   9  10
HETATM   10  C   UNL     1      17.858  -2.615   6.462  1.00  0.00     0.110 C 
BRANCH  10  11
HETATM   11  C   UNL     1      17.412  -3.038   5.076  1.00  0.00     0.139 C 
HETATM   12  O   UNL     1      16.694  -2.384   4.339  1.00  0.00    -0.650 OA
BRANCH  11  13
HETATM   13  O   UNL     1      17.903  -4.245   4.726  1.00  0.00    -0.776 OA
HETATM   14  H   UNL     1      18.467  -4.659   5.407  1.00  0.00     0.167 HD
ENDBRANCH  11  13
ENDBRANCH  10  11
ENDBRANCH   9  10
ENDBRANCH   8   9
ENDBRANCH   5   8
ENDBRANCH   4   5
ENDBRANCH   2   3
BRANCH   1  15
HETATM   15  C   UNL     1      11.230   2.069   6.784  1.00  0.00     0.054 C 
BRANCH  15  16
HETATM   16  C   UNL     1      10.700   1.661   5.444  1.00  0.00    -0.027 C 
HETATM   17  C   UNL     1       9.906   2.438   4.691  1.00  0.00    -0.027 C 
BRANCH  17  18
HETATM   18  C   UNL     1       9.351   2.009   3.368  1.00  0.00     0.053 C 
BRANCH  18  19
HETATM   19  C   UNL     1       9.790   2.930   2.271  1.00  0.00    -0.027 C 
HETATM   20  C   UNL     1       8.934   3.617   1.498  1.00  0.00    -0.030 C 
BRANCH  20  21
HETATM   21  C   UNL     1       9.379   4.523   0.393  1.00  0.00     0.027 C 
BRANCH  21  22
HETATM   22  C   UNL     1       8.908   5.955   0.637  1.00  0.00     0.004 C 
BRANCH  22  23
HETATM   23  C   UNL     1       9.370   6.872  -0.494  1.00  0.00    -0.000 C 
BRANCH  23  24
HETATM   24  C   UNL     1       8.904   8.306  -0.263  1.00  0.00    -0.005 C 
HETATM   25  C   UNL     1       9.363   9.217  -1.388  1.00  0.00     0.005 C 
ENDBRANCH  23  24
ENDBRANCH  22  23
ENDBRANCH  21  22
ENDBRANCH  20  21
ENDBRANCH  18  19
ENDBRANCH  17  18
ENDBRANCH  15  16
ENDBRANCH   1  15
TORSDOF 16
