MODEL 1
REMARK VINA RESULT:      -7.0      0.000      0.000
REMARK  16 active torsions:
REMARK  status: ('A' for Active; 'I' for Inactive)
REMARK    1  A    between atoms: C_2  and  C_3 
REMARK    2  A    between atoms: C_3  and  C_4 
REMARK    3  A    between atoms: C_4  and  C_5 
REMARK    4  A    between atoms: C_5  and  C_6 
REMARK    5  A    between atoms: C_7  and  C_8 
REMARK    6  A    between atoms: C_8  and  C_9 
REMARK    7  A    between atoms: C_10  and  C_11 
REMARK    8  A    between atoms: C_11  and  C_12 
REMARK    9  A    between atoms: C_13  and  C_14 
REMARK   10  A    between atoms: C_15  and  C_16 
REMARK   11  A    between atoms: C_16  and  O_17 
REMARK   12  A    between atoms: C_16  and  C_18 
REMARK   13  A    between atoms: C_18  and  C_19 
REMARK   14  A    between atoms: C_19  and  C_20 
REMARK   15  A    between atoms: C_20  and  C_21 
REMARK   16  A    between atoms: C_21  and  O_23 
ROOT
HETATM    1  C   UNL     1     -21.576  -6.218  -2.822  1.00  0.00    -0.023 C 
HETATM    2  C   UNL     1     -21.880  -6.735  -4.020  1.00  0.00    -0.004 C 
ENDROOT
BRANCH   2   3
HETATM    3  C   UNL     1     -21.171  -6.383  -5.224  1.00  0.00    -0.002 C 
HETATM    4  C   UNL     1     -21.392  -5.242  -5.893  1.00  0.00     0.004 C 
BRANCH   4   5
HETATM    5  C   UNL     1     -20.615  -4.853  -7.117  1.00  0.00     0.141 C 
BRANCH   5   6
HETATM    6  O   UNL     1     -20.498  -5.997  -7.953  1.00  0.00    -0.392 OA
HETATM    7  H   UNL     1     -19.636  -5.956  -8.399  1.00  0.00     0.210 HD
ENDBRANCH   5   6
BRANCH   5   8
HETATM    8  C   UNL     1     -21.288  -3.721  -7.905  1.00  0.00     0.036 C 
BRANCH   8   9
HETATM    9  C   UNL     1     -22.726  -4.070  -8.294  1.00  0.00     0.013 C 
BRANCH   9  10
HETATM   10  C   UNL     1     -22.980  -3.938  -9.794  1.00  0.00     0.110 C 
BRANCH  10  11
HETATM   11  C   UNL     1     -24.360  -3.364 -10.054  1.00  0.00     0.139 C 
HETATM   12  O   UNL     1     -24.923  -3.350 -11.135  1.00  0.00    -0.650 OA
BRANCH  11  13
HETATM   13  O   UNL     1     -24.921  -2.856  -8.937  1.00  0.00    -0.776 OA
HETATM   14  H   UNL     1     -25.551  -3.459  -8.498  1.00  0.00     0.167 HD
ENDBRANCH  11  13
ENDBRANCH  10  11
ENDBRANCH   9  10
ENDBRANCH   8   9
ENDBRANCH   5   8
ENDBRANCH   4   5
ENDBRANCH   2   3
BRANCH   1  15
HETATM   15  C   UNL     1     -22.287  -6.604  -1.561  1.00  0.00     0.054 C 
BRANCH  15  16
HETATM   16  C   UNL     1     -21.499  -7.596  -0.762  1.00  0.00    -0.027 C 
HETATM   17  C   UNL     1     -21.891  -8.067   0.432  1.00  0.00    -0.027 C 
BRANCH  17  18
HETATM   18  C   UNL     1     -21.081  -9.033   1.241  1.00  0.00     0.053 C 
BRANCH  18  19
HETATM   19  C   UNL     1     -21.236 -10.432   0.730  1.00  0.00    -0.027 C 
HETATM   20  C   UNL     1     -22.382 -10.908   0.217  1.00  0.00    -0.030 C 
BRANCH  20  21
HETATM   21  C   UNL     1     -22.535 -12.312  -0.276  1.00  0.00     0.027 C 
BRANCH  21  22
HETATM   22  C   UNL     1     -23.137 -12.337  -1.679  1.00  0.00     0.004 C 
BRANCH  22  23
HETATM   23  C   UNL     1     -23.234 -10.921  -2.246  1.00  0.00    -0.000 C 
BRANCH  23  24
HETATM   24  C   UNL     1     -22.425 -10.788  -3.533  1.00  0.00    -0.005 C 
HETATM   25  C   UNL     1     -21.036 -10.243  -3.250  1.00  0.00     0.005 C 
ENDBRANCH  23  24
ENDBRANCH  22  23
ENDBRANCH  21  22
ENDBRANCH  20  21
ENDBRANCH  18  19
ENDBRANCH  17  18
ENDBRANCH  15  16
ENDBRANCH   1  15
TORSDOF 16
ENDMDL
MODEL 2
REMARK VINA RESULT:      -6.9      2.038      3.197
REMARK  16 active torsions:
REMARK  status: ('A' for Active; 'I' for Inactive)
REMARK    1  A    between atoms: C_2  and  C_3 
REMARK    2  A    between atoms: C_3  and  C_4 
REMARK    3  A    between atoms: C_4  and  C_5 
REMARK    4  A    between atoms: C_5  and  C_6 
REMARK    5  A    between atoms: C_7  and  C_8 
REMARK    6  A    between atoms: C_8  and  C_9 
REMARK    7  A    between atoms: C_10  and  C_11 
REMARK    8  A    between atoms: C_11  and  C_12 
REMARK    9  A    between atoms: C_13  and  C_14 
REMARK   10  A    between atoms: C_15  and  C_16 
REMARK   11  A    between atoms: C_16  and  O_17 
REMARK   12  A    between atoms: C_16  and  C_18 
REMARK   13  A    between atoms: C_18  and  C_19 
REMARK   14  A    between atoms: C_19  and  C_20 
REMARK   15  A    between atoms: C_20  and  C_21 
REMARK   16  A    between atoms: C_21  and  O_23 
ROOT
HETATM    1  C   UNL     1     -21.267  -6.968  -3.542  1.00  0.00    -0.023 C 
HETATM    2  C   UNL     1     -20.854  -5.936  -4.290  1.00  0.00    -0.004 C 
ENDROOT
BRANCH   2   3
HETATM    3  C   UNL     1     -21.373  -5.672  -5.608  1.00  0.00    -0.002 C 
HETATM    4  C   UNL     1     -20.826  -4.772  -6.440  1.00  0.00     0.004 C 
BRANCH   4   5
HETATM    5  C   UNL     1     -21.337  -4.537  -7.832  1.00  0.00     0.141 C 
BRANCH   5   6
HETATM    6  O   UNL     1     -22.419  -3.617  -7.761  1.00  0.00    -0.392 OA
HETATM    7  H   UNL     1     -23.157  -3.981  -8.275  1.00  0.00     0.210 HD
ENDBRANCH   5   6
BRANCH   5   8
HETATM    8  C   UNL     1     -20.258  -3.973  -8.766  1.00  0.00     0.036 C 
BRANCH   8   9
HETATM    9  C   UNL     1     -20.329  -4.594 -10.163  1.00  0.00     0.013 C 
BRANCH   9  10
HETATM   10  C   UNL     1     -20.906  -3.638 -11.205  1.00  0.00     0.110 C 
BRANCH  10  11
HETATM   11  C   UNL     1     -22.401  -3.843 -11.348  1.00  0.00     0.139 C 
HETATM   12  O   UNL     1     -23.252  -3.325 -10.644  1.00  0.00    -0.650 OA
BRANCH  11  13
HETATM   13  O   UNL     1     -22.709  -4.679 -12.361  1.00  0.00    -0.776 OA
HETATM   14  H   UNL     1     -22.814  -5.611 -12.091  1.00  0.00     0.167 HD
ENDBRANCH  11  13
ENDBRANCH  10  11
ENDBRANCH   9  10
ENDBRANCH   8   9
ENDBRANCH   5   8
ENDBRANCH   4   5
ENDBRANCH   2   3
BRANCH   1  15
HETATM   15  C   UNL     1     -20.757  -7.230  -2.158  1.00  0.00     0.054 C 
BRANCH  15  16
HETATM   16  C   UNL     1     -21.719  -8.054  -1.359  1.00  0.00    -0.027 C 
HETATM   17  C   UNL     1     -22.529  -7.544  -0.418  1.00  0.00    -0.027 C 
BRANCH  17  18
HETATM   18  C   UNL     1     -23.463  -8.379   0.402  1.00  0.00     0.053 C 
BRANCH  18  19
HETATM   19  C   UNL     1     -23.181  -9.840   0.228  1.00  0.00    -0.027 C 
HETATM   20  C   UNL     1     -24.045 -10.696  -0.340  1.00  0.00    -0.030 C 
BRANCH  20  21
HETATM   21  C   UNL     1     -23.763 -12.157  -0.496  1.00  0.00     0.027 C 
BRANCH  21  22
HETATM   22  C   UNL     1     -22.891 -12.671   0.648  1.00  0.00     0.004 C 
BRANCH  22  23
HETATM   23  C   UNL     1     -23.407 -14.017   1.154  1.00  0.00    -0.000 C 
BRANCH  23  24
HETATM   24  C   UNL     1     -23.108 -14.196   2.639  1.00  0.00    -0.005 C 
HETATM   25  C   UNL     1     -24.235 -14.937   3.337  1.00  0.00     0.005 C 
ENDBRANCH  23  24
ENDBRANCH  22  23
ENDBRANCH  21  22
ENDBRANCH  20  21
ENDBRANCH  18  19
ENDBRANCH  17  18
ENDBRANCH  15  16
ENDBRANCH   1  15
TORSDOF 16
ENDMDL
MODEL 3
REMARK VINA RESULT:      -6.7      1.233      3.061
REMARK  16 active torsions:
REMARK  status: ('A' for Active; 'I' for Inactive)
REMARK    1  A    between atoms: C_2  and  C_3 
REMARK    2  A    between atoms: C_3  and  C_4 
REMARK    3  A    between atoms: C_4  and  C_5 
REMARK    4  A    between atoms: C_5  and  C_6 
REMARK    5  A    between atoms: C_7  and  C_8 
REMARK    6  A    between atoms: C_8  and  C_9 
REMARK    7  A    between atoms: C_10  and  C_11 
REMARK    8  A    between atoms: C_11  and  C_12 
REMARK    9  A    between atoms: C_13  and  C_14 
REMARK   10  A    between atoms: C_15  and  C_16 
REMARK   11  A    between atoms: C_16  and  O_17 
REMARK   12  A    between atoms: C_16  and  C_18 
REMARK   13  A    between atoms: C_18  and  C_19 
REMARK   14  A    between atoms: C_19  and  C_20 
REMARK   15  A    between atoms: C_20  and  C_21 
REMARK   16  A    between atoms: C_21  and  O_23 
ROOT
HETATM    1  C   UNL     1     -20.486  -8.004  -5.493  1.00  0.00    -0.023 C 
HETATM    2  C   UNL     1     -20.719  -6.714  -5.218  1.00  0.00    -0.004 C 
ENDROOT
BRANCH   2   3
HETATM    3  C   UNL     1     -21.493  -5.861  -6.083  1.00  0.00    -0.002 C 
HETATM    4  C   UNL     1     -20.938  -5.064  -7.009  1.00  0.00     0.004 C 
BRANCH   4   5
HETATM    5  C   UNL     1     -21.750  -4.216  -7.944  1.00  0.00     0.141 C 
BRANCH   5   6
HETATM    6  O   UNL     1     -21.846  -2.909  -7.392  1.00  0.00    -0.392 OA
HETATM    7  H   UNL     1     -21.472  -2.934  -6.496  1.00  0.00     0.210 HD
ENDBRANCH   5   6
BRANCH   5   8
HETATM    8  C   UNL     1     -21.129  -4.127  -9.345  1.00  0.00     0.036 C 
BRANCH   8   9
HETATM    9  C   UNL     1     -22.195  -4.002 -10.436  1.00  0.00     0.013 C 
BRANCH   9  10
HETATM   10  C   UNL     1     -23.550  -4.558 -10.004  1.00  0.00     0.110 C 
BRANCH  10  11
HETATM   11  C   UNL     1     -24.631  -3.506 -10.157  1.00  0.00     0.139 C 
HETATM   12  O   UNL     1     -25.198  -3.227 -11.200  1.00  0.00    -0.650 OA
BRANCH  11  13
HETATM   13  O   UNL     1     -24.916  -2.890  -8.991  1.00  0.00    -0.776 OA
HETATM   14  H   UNL     1     -24.988  -3.494  -8.227  1.00  0.00     0.167 HD
ENDBRANCH  11  13
ENDBRANCH  10  11
ENDBRANCH   9  10
ENDBRANCH   8   9
ENDBRANCH   5   8
ENDBRANCH   4   5
ENDBRANCH   2   3
BRANCH   1  15
HETATM   15  C   UNL     1     -19.710  -8.907  -4.582  1.00  0.00     0.054 C 
BRANCH  15  16
HETATM   16  C   UNL     1     -20.606  -9.849  -3.839  1.00  0.00    -0.027 C 
HETATM   17  C   UNL     1     -21.597 -10.544  -4.419  1.00  0.00    -0.027 C 
BRANCH  17  18
HETATM   18  C   UNL     1     -22.512 -11.458  -3.664  1.00  0.00     0.053 C 
BRANCH  18  19
HETATM   19  C   UNL     1     -22.830 -10.907  -2.307  1.00  0.00    -0.027 C 
HETATM   20  C   UNL     1     -22.100 -11.175  -1.213  1.00  0.00    -0.030 C 
BRANCH  20  21
HETATM   21  C   UNL     1     -22.434 -10.634   0.142  1.00  0.00     0.027 C 
BRANCH  21  22
HETATM   22  C   UNL     1     -23.417  -9.471   0.040  1.00  0.00     0.004 C 
BRANCH  22  23
HETATM   23  C   UNL     1     -22.746  -8.162   0.452  1.00  0.00    -0.000 C 
BRANCH  23  24
HETATM   24  C   UNL     1     -21.653  -7.771  -0.538  1.00  0.00    -0.005 C 
HETATM   25  C   UNL     1     -22.176  -6.781  -1.565  1.00  0.00     0.005 C 
ENDBRANCH  23  24
ENDBRANCH  22  23
ENDBRANCH  21  22
ENDBRANCH  20  21
ENDBRANCH  18  19
ENDBRANCH  17  18
ENDBRANCH  15  16
ENDBRANCH   1  15
TORSDOF 16
ENDMDL
MODEL 4
REMARK VINA RESULT:      -6.7      1.457      2.653
REMARK  16 active torsions:
REMARK  status: ('A' for Active; 'I' for Inactive)
REMARK    1  A    between atoms: C_2  and  C_3 
REMARK    2  A    between atoms: C_3  and  C_4 
REMARK    3  A    between atoms: C_4  and  C_5 
REMARK    4  A    between atoms: C_5  and  C_6 
REMARK    5  A    between atoms: C_7  and  C_8 
REMARK    6  A    between atoms: C_8  and  C_9 
REMARK    7  A    between atoms: C_10  and  C_11 
REMARK    8  A    between atoms: C_11  and  C_12 
REMARK    9  A    between atoms: C_13  and  C_14 
REMARK   10  A    between atoms: C_15  and  C_16 
REMARK   11  A    between atoms: C_16  and  O_17 
REMARK   12  A    between atoms: C_16  and  C_18 
REMARK   13  A    between atoms: C_18  and  C_19 
REMARK   14  A    between atoms: C_19  and  C_20 
REMARK   15  A    between atoms: C_20  and  C_21 
REMARK   16  A    between atoms: C_21  and  O_23 
ROOT
HETATM    1  C   UNL     1     -22.307  -7.064  -0.918  1.00  0.00    -0.023 C 
HETATM    2  C   UNL     1     -21.494  -7.132  -1.981  1.00  0.00    -0.004 C 
ENDROOT
BRANCH   2   3
HETATM    3  C   UNL     1     -21.748  -6.412  -3.203  1.00  0.00    -0.002 C 
HETATM    4  C   UNL     1     -21.280  -6.811  -4.395  1.00  0.00     0.004 C 
BRANCH   4   5
HETATM    5  C   UNL     1     -21.590  -6.088  -5.674  1.00  0.00     0.141 C 
BRANCH   5   6
HETATM    6  O   UNL     1     -22.919  -5.587  -5.592  1.00  0.00    -0.392 OA
HETATM    7  H   UNL     1     -23.477  -6.280  -5.203  1.00  0.00     0.210 HD
ENDBRANCH   5   6
BRANCH   5   8
HETATM    8  C   UNL     1     -20.628  -4.922  -5.938  1.00  0.00     0.036 C 
BRANCH   8   9
HETATM    9  C   UNL     1     -21.240  -3.875  -6.871  1.00  0.00     0.013 C 
BRANCH   9  10
HETATM   10  C   UNL     1     -21.457  -4.403  -8.288  1.00  0.00     0.110 C 
BRANCH  10  11
HETATM   11  C   UNL     1     -22.795  -3.942  -8.831  1.00  0.00     0.139 C 
HETATM   12  O   UNL     1     -22.983  -3.490  -9.947  1.00  0.00    -0.650 OA
BRANCH  11  13
HETATM   13  O   UNL     1     -23.790  -4.086  -7.930  1.00  0.00    -0.776 OA
HETATM   14  H   UNL     1     -23.590  -4.717  -7.213  1.00  0.00     0.167 HD
ENDBRANCH  11  13
ENDBRANCH  10  11
ENDBRANCH   9  10
ENDBRANCH   8   9
ENDBRANCH   5   8
ENDBRANCH   4   5
ENDBRANCH   2   3
BRANCH   1  15
HETATM   15  C   UNL     1     -22.032  -7.784   0.367  1.00  0.00     0.054 C 
BRANCH  15  16
HETATM   16  C   UNL     1     -22.320  -9.249   0.256  1.00  0.00    -0.027 C 
HETATM   17  C   UNL     1     -23.514  -9.746  -0.105  1.00  0.00    -0.027 C 
BRANCH  17  18
HETATM   18  C   UNL     1     -23.805 -11.213  -0.180  1.00  0.00     0.053 C 
BRANCH  18  19
HETATM   19  C   UNL     1     -23.481 -11.762  -1.536  1.00  0.00    -0.027 C 
HETATM   20  C   UNL     1     -22.947 -11.024  -2.522  1.00  0.00    -0.030 C 
BRANCH  20  21
HETATM   21  C   UNL     1     -22.642 -11.574  -3.880  1.00  0.00     0.027 C 
BRANCH  21  22
HETATM   22  C   UNL     1     -21.139 -11.778  -4.061  1.00  0.00     0.004 C 
BRANCH  22  23
HETATM   23  C   UNL     1     -20.357 -10.921  -3.068  1.00  0.00    -0.000 C 
BRANCH  23  24
HETATM   24  C   UNL     1     -19.439  -9.942  -3.792  1.00  0.00    -0.005 C 
HETATM   25  C   UNL     1     -18.491  -9.261  -2.820  1.00  0.00     0.005 C 
ENDBRANCH  23  24
ENDBRANCH  22  23
ENDBRANCH  21  22
ENDBRANCH  20  21
ENDBRANCH  18  19
ENDBRANCH  17  18
ENDBRANCH  15  16
ENDBRANCH   1  15
TORSDOF 16
ENDMDL
MODEL 5
REMARK VINA RESULT:      -6.7      1.773      2.442
REMARK  16 active torsions:
REMARK  status: ('A' for Active; 'I' for Inactive)
REMARK    1  A    between atoms: C_2  and  C_3 
REMARK    2  A    between atoms: C_3  and  C_4 
REMARK    3  A    between atoms: C_4  and  C_5 
REMARK    4  A    between atoms: C_5  and  C_6 
REMARK    5  A    between atoms: C_7  and  C_8 
REMARK    6  A    between atoms: C_8  and  C_9 
REMARK    7  A    between atoms: C_10  and  C_11 
REMARK    8  A    between atoms: C_11  and  C_12 
REMARK    9  A    between atoms: C_13  and  C_14 
REMARK   10  A    between atoms: C_15  and  C_16 
REMARK   11  A    between atoms: C_16  and  O_17 
REMARK   12  A    between atoms: C_16  and  C_18 
REMARK   13  A    between atoms: C_18  and  C_19 
REMARK   14  A    between atoms: C_19  and  C_20 
REMARK   15  A    between atoms: C_20  and  C_21 
REMARK   16  A    between atoms: C_21  and  O_23 
ROOT
HETATM    1  C   UNL     1     -21.589  -6.175  -4.079  1.00  0.00    -0.023 C 
HETATM    2  C   UNL     1     -20.756  -5.971  -5.108  1.00  0.00    -0.004 C 
ENDROOT
BRANCH   2   3
HETATM    3  C   UNL     1     -21.218  -5.794  -6.461  1.00  0.00    -0.002 C 
HETATM    4  C   UNL     1     -21.800  -4.665  -6.891  1.00  0.00     0.004 C 
BRANCH   4   5
HETATM    5  C   UNL     1     -22.232  -4.464  -8.315  1.00  0.00     0.141 C 
BRANCH   5   6
HETATM    6  O   UNL     1     -23.259  -3.479  -8.335  1.00  0.00    -0.392 OA
HETATM    7  H   UNL     1     -23.745  -3.570  -9.171  1.00  0.00     0.210 HD
ENDBRANCH   5   6
BRANCH   5   8
HETATM    8  C   UNL     1     -21.080  -4.008  -9.220  1.00  0.00     0.036 C 
BRANCH   8   9
HETATM    9  C   UNL     1     -21.585  -3.447 -10.551  1.00  0.00     0.013 C 
BRANCH   9  10
HETATM   10  C   UNL     1     -21.850  -4.538 -11.588  1.00  0.00     0.110 C 
BRANCH  10  11
HETATM   11  C   UNL     1     -23.335  -4.829 -11.688  1.00  0.00     0.139 C 
HETATM   12  O   UNL     1     -24.090  -4.961 -10.740  1.00  0.00    -0.650 OA
BRANCH  11  13
HETATM   13  O   UNL     1     -23.752  -4.931 -12.967  1.00  0.00    -0.776 OA
HETATM   14  H   UNL     1     -23.263  -4.363 -13.592  1.00  0.00     0.167 HD
ENDBRANCH  11  13
ENDBRANCH  10  11
ENDBRANCH   9  10
ENDBRANCH   8   9
ENDBRANCH   5   8
ENDBRANCH   4   5
ENDBRANCH   2   3
BRANCH   1  15
HETATM   15  C   UNL     1     -21.118  -6.327  -2.664  1.00  0.00     0.054 C 
BRANCH  15  16
HETATM   16  C   UNL     1     -22.231  -6.739  -1.750  1.00  0.00    -0.027 C 
HETATM   17  C   UNL     1     -22.038  -7.374  -0.584  1.00  0.00    -0.027 C 
BRANCH  17  18
HETATM   18  C   UNL     1     -23.158  -7.814   0.308  1.00  0.00     0.053 C 
BRANCH  18  19
HETATM   19  C   UNL     1     -23.105  -9.290   0.556  1.00  0.00    -0.027 C 
HETATM   20  C   UNL     1     -23.727 -10.191  -0.220  1.00  0.00    -0.030 C 
BRANCH  20  21
HETATM   21  C   UNL     1     -23.684 -11.664   0.043  1.00  0.00     0.027 C 
BRANCH  21  22
HETATM   22  C   UNL     1     -22.386 -12.275  -0.479  1.00  0.00     0.004 C 
BRANCH  22  23
HETATM   23  C   UNL     1     -21.369 -12.422   0.652  1.00  0.00    -0.000 C 
BRANCH  23  24
HETATM   24  C   UNL     1     -20.021 -11.828   0.258  1.00  0.00    -0.005 C 
HETATM   25  C   UNL     1     -20.146 -10.964  -0.985  1.00  0.00     0.005 C 
ENDBRANCH  23  24
ENDBRANCH  22  23
ENDBRANCH  21  22
ENDBRANCH  20  21
ENDBRANCH  18  19
ENDBRANCH  17  18
ENDBRANCH  15  16
ENDBRANCH   1  15
TORSDOF 16
ENDMDL
MODEL 6
REMARK VINA RESULT:      -6.7      1.433      2.534
REMARK  16 active torsions:
REMARK  status: ('A' for Active; 'I' for Inactive)
REMARK    1  A    between atoms: C_2  and  C_3 
REMARK    2  A    between atoms: C_3  and  C_4 
REMARK    3  A    between atoms: C_4  and  C_5 
REMARK    4  A    between atoms: C_5  and  C_6 
REMARK    5  A    between atoms: C_7  and  C_8 
REMARK    6  A    between atoms: C_8  and  C_9 
REMARK    7  A    between atoms: C_10  and  C_11 
REMARK    8  A    between atoms: C_11  and  C_12 
REMARK    9  A    between atoms: C_13  and  C_14 
REMARK   10  A    between atoms: C_15  and  C_16 
REMARK   11  A    between atoms: C_16  and  O_17 
REMARK   12  A    between atoms: C_16  and  C_18 
REMARK   13  A    between atoms: C_18  and  C_19 
REMARK   14  A    between atoms: C_19  and  C_20 
REMARK   15  A    between atoms: C_20  and  C_21 
REMARK   16  A    between atoms: C_21  and  O_23 
ROOT
HETATM    1  C   UNL     1     -20.485  -7.937  -4.865  1.00  0.00    -0.023 C 
HETATM    2  C   UNL     1     -21.266  -6.865  -5.050  1.00  0.00    -0.004 C 
ENDROOT
BRANCH   2   3
HETATM    3  C   UNL     1     -21.250  -6.089  -6.263  1.00  0.00    -0.002 C 
HETATM    4  C   UNL     1     -20.834  -4.814  -6.309  1.00  0.00     0.004 C 
BRANCH   4   5
HETATM    5  C   UNL     1     -20.768  -4.025  -7.584  1.00  0.00     0.141 C 
BRANCH   5   6
HETATM    6  O   UNL     1     -20.037  -4.782  -8.540  1.00  0.00    -0.392 OA
HETATM    7  H   UNL     1     -20.314  -5.709  -8.463  1.00  0.00     0.210 HD
ENDBRANCH   5   6
BRANCH   5   8
HETATM    8  C   UNL     1     -22.159  -3.707  -8.151  1.00  0.00     0.036 C 
BRANCH   8   9
HETATM    9  C   UNL     1     -22.497  -4.581  -9.361  1.00  0.00     0.013 C 
BRANCH   9  10
HETATM   10  C   UNL     1     -24.000  -4.794  -9.534  1.00  0.00     0.110 C 
BRANCH  10  11
HETATM   11  C   UNL     1     -24.660  -3.535 -10.062  1.00  0.00     0.139 C 
HETATM   12  O   UNL     1     -24.145  -2.742 -10.832  1.00  0.00    -0.650 OA
BRANCH  11  13
HETATM   13  O   UNL     1     -25.911  -3.373  -9.583  1.00  0.00    -0.776 OA
HETATM   14  H   UNL     1     -26.551  -3.045 -10.243  1.00  0.00     0.167 HD
ENDBRANCH  11  13
ENDBRANCH  10  11
ENDBRANCH   9  10
ENDBRANCH   8   9
ENDBRANCH   5   8
ENDBRANCH   4   5
ENDBRANCH   2   3
BRANCH   1  15
HETATM   15  C   UNL     1     -20.520  -8.769  -3.619  1.00  0.00     0.054 C 
BRANCH  15  16
HETATM   16  C   UNL     1     -21.469  -8.209  -2.605  1.00  0.00    -0.027 C 
HETATM   17  C   UNL     1     -21.130  -7.956  -1.331  1.00  0.00    -0.027 C 
BRANCH  17  18
HETATM   18  C   UNL     1     -22.094  -7.429  -0.313  1.00  0.00     0.053 C 
BRANCH  18  19
HETATM   19  C   UNL     1     -23.096  -8.473   0.076  1.00  0.00    -0.027 C 
HETATM   20  C   UNL     1     -22.973  -9.770  -0.246  1.00  0.00    -0.030 C 
BRANCH  20  21
HETATM   21  C   UNL     1     -23.986 -10.805   0.132  1.00  0.00     0.027 C 
BRANCH  21  22
HETATM   22  C   UNL     1     -24.053 -11.913  -0.917  1.00  0.00     0.004 C 
BRANCH  22  23
HETATM   23  C   UNL     1     -23.698 -13.262  -0.295  1.00  0.00    -0.000 C 
BRANCH  23  24
HETATM   24  C   UNL     1     -22.969 -13.080   1.033  1.00  0.00    -0.005 C 
HETATM   25  C   UNL     1     -23.530 -14.010   2.095  1.00  0.00     0.005 C 
ENDBRANCH  23  24
ENDBRANCH  22  23
ENDBRANCH  21  22
ENDBRANCH  20  21
ENDBRANCH  18  19
ENDBRANCH  17  18
ENDBRANCH  15  16
ENDBRANCH   1  15
TORSDOF 16
ENDMDL
MODEL 7
REMARK VINA RESULT:      -6.6      1.533      2.135
REMARK  16 active torsions:
REMARK  status: ('A' for Active; 'I' for Inactive)
REMARK    1  A    between atoms: C_2  and  C_3 
REMARK    2  A    between atoms: C_3  and  C_4 
REMARK    3  A    between atoms: C_4  and  C_5 
REMARK    4  A    between atoms: C_5  and  C_6 
REMARK    5  A    between atoms: C_7  and  C_8 
REMARK    6  A    between atoms: C_8  and  C_9 
REMARK    7  A    between atoms: C_10  and  C_11 
REMARK    8  A    between atoms: C_11  and  C_12 
REMARK    9  A    between atoms: C_13  and  C_14 
REMARK   10  A    between atoms: C_15  and  C_16 
REMARK   11  A    between atoms: C_16  and  O_17 
REMARK   12  A    between atoms: C_16  and  C_18 
REMARK   13  A    between atoms: C_18  and  C_19 
REMARK   14  A    between atoms: C_19  and  C_20 
REMARK   15  A    between atoms: C_20  and  C_21 
REMARK   16  A    between atoms: C_21  and  O_23 
ROOT
HETATM    1  C   UNL     1     -21.755  -6.209  -2.600  1.00  0.00    -0.023 C 
HETATM    2  C   UNL     1     -21.726  -7.042  -3.648  1.00  0.00    -0.004 C 
ENDROOT
BRANCH   2   3
HETATM    3  C   UNL     1     -21.219  -6.651  -4.940  1.00  0.00    -0.002 C 
HETATM    4  C   UNL     1     -20.730  -5.428  -5.192  1.00  0.00     0.004 C 
BRANCH   4   5
HETATM    5  C   UNL     1     -20.153  -5.041  -6.523  1.00  0.00     0.141 C 
BRANCH   5   6
HETATM    6  O   UNL     1     -20.206  -6.176  -7.379  1.00  0.00    -0.392 OA
HETATM    7  H   UNL     1     -20.586  -6.914  -6.875  1.00  0.00     0.210 HD
ENDBRANCH   5   6
BRANCH   5   8
HETATM    8  C   UNL     1     -20.916  -3.882  -7.179  1.00  0.00     0.036 C 
BRANCH   8   9
HETATM    9  C   UNL     1     -22.219  -4.349  -7.831  1.00  0.00     0.013 C 
BRANCH   9  10
HETATM   10  C   UNL     1     -22.259  -4.073  -9.333  1.00  0.00     0.110 C 
BRANCH  10  11
HETATM   11  C   UNL     1     -23.635  -3.595  -9.751  1.00  0.00     0.139 C 
HETATM   12  O   UNL     1     -23.973  -3.340 -10.895  1.00  0.00    -0.650 OA
BRANCH  11  13
HETATM   13  O   UNL     1     -24.477  -3.476  -8.703  1.00  0.00    -0.776 OA
HETATM   14  H   UNL     1     -24.099  -2.998  -7.940  1.00  0.00     0.167 HD
ENDBRANCH  11  13
ENDBRANCH  10  11
ENDBRANCH   9  10
ENDBRANCH   8   9
ENDBRANCH   5   8
ENDBRANCH   4   5
ENDBRANCH   2   3
BRANCH   1  15
HETATM   15  C   UNL     1     -22.249  -6.617  -1.246  1.00  0.00     0.054 C 
BRANCH  15  16
HETATM   16  C   UNL     1     -21.952  -8.056  -0.957  1.00  0.00    -0.027 C 
HETATM   17  C   UNL     1     -22.689  -8.816  -0.132  1.00  0.00    -0.027 C 
BRANCH  17  18
HETATM   18  C   UNL     1     -22.365 -10.245   0.179  1.00  0.00     0.053 C 
BRANCH  18  19
HETATM   19  C   UNL     1     -21.098 -10.673  -0.496  1.00  0.00    -0.027 C 
HETATM   20  C   UNL     1     -20.109 -11.326   0.136  1.00  0.00    -0.030 C 
BRANCH  20  21
HETATM   21  C   UNL     1     -18.839 -11.737  -0.541  1.00  0.00     0.027 C 
BRANCH  21  22
HETATM   22  C   UNL     1     -18.907 -11.464  -2.042  1.00  0.00     0.004 C 
BRANCH  22  23
HETATM   23  C   UNL     1     -17.994 -10.297  -2.417  1.00  0.00    -0.000 C 
BRANCH  23  24
HETATM   24  C   UNL     1     -18.766  -9.216  -3.167  1.00  0.00    -0.005 C 
HETATM   25  C   UNL     1     -18.694  -9.436  -4.668  1.00  0.00     0.005 C 
ENDBRANCH  23  24
ENDBRANCH  22  23
ENDBRANCH  21  22
ENDBRANCH  20  21
ENDBRANCH  18  19
ENDBRANCH  17  18
ENDBRANCH  15  16
ENDBRANCH   1  15
TORSDOF 16
ENDMDL
MODEL 8
REMARK VINA RESULT:      -6.6      1.652      2.137
REMARK  16 active torsions:
REMARK  status: ('A' for Active; 'I' for Inactive)
REMARK    1  A    between atoms: C_2  and  C_3 
REMARK    2  A    between atoms: C_3  and  C_4 
REMARK    3  A    between atoms: C_4  and  C_5 
REMARK    4  A    between atoms: C_5  and  C_6 
REMARK    5  A    between atoms: C_7  and  C_8 
REMARK    6  A    between atoms: C_8  and  C_9 
REMARK    7  A    between atoms: C_10  and  C_11 
REMARK    8  A    between atoms: C_11  and  C_12 
REMARK    9  A    between atoms: C_13  and  C_14 
REMARK   10  A    between atoms: C_15  and  C_16 
REMARK   11  A    between atoms: C_16  and  O_17 
REMARK   12  A    between atoms: C_16  and  C_18 
REMARK   13  A    between atoms: C_18  and  C_19 
REMARK   14  A    between atoms: C_19  and  C_20 
REMARK   15  A    between atoms: C_20  and  C_21 
REMARK   16  A    between atoms: C_21  and  O_23 
ROOT
HETATM    1  C   UNL     1     -20.404  -7.566  -4.446  1.00  0.00    -0.023 C 
HETATM    2  C   UNL     1     -21.382  -6.667  -4.618  1.00  0.00    -0.004 C 
ENDROOT
BRANCH   2   3
HETATM    3  C   UNL     1     -21.498  -5.860  -5.806  1.00  0.00    -0.002 C 
HETATM    4  C   UNL     1     -20.587  -4.939  -6.154  1.00  0.00     0.004 C 
BRANCH   4   5
HETATM    5  C   UNL     1     -20.684  -4.137  -7.419  1.00  0.00     0.141 C 
BRANCH   5   6
HETATM    6  O   UNL     1     -19.371  -3.958  -7.936  1.00  0.00    -0.392 OA
HETATM    7  H   UNL     1     -19.441  -3.459  -8.766  1.00  0.00     0.210 HD
ENDBRANCH   5   6
BRANCH   5   8
HETATM    8  C   UNL     1     -21.554  -4.819  -8.482  1.00  0.00     0.036 C 
BRANCH   8   9
HETATM    9  C   UNL     1     -22.134  -3.814  -9.480  1.00  0.00     0.013 C 
BRANCH   9  10
HETATM   10  C   UNL     1     -21.329  -3.736 -10.775  1.00  0.00     0.110 C 
BRANCH  10  11
HETATM   11  C   UNL     1     -22.193  -4.107 -11.964  1.00  0.00     0.139 C 
HETATM   12  O   UNL     1     -23.223  -4.758 -11.908  1.00  0.00    -0.650 OA
BRANCH  11  13
HETATM   13  O   UNL     1     -21.699  -3.631 -13.126  1.00  0.00    -0.776 OA
HETATM   14  H   UNL     1     -21.288  -4.311 -13.693  1.00  0.00     0.167 HD
ENDBRANCH  11  13
ENDBRANCH  10  11
ENDBRANCH   9  10
ENDBRANCH   8   9
ENDBRANCH   5   8
ENDBRANCH   4   5
ENDBRANCH   2   3
BRANCH   1  15
HETATM   15  C   UNL     1     -20.295  -8.433  -3.229  1.00  0.00     0.054 C 
BRANCH  15  16
HETATM   16  C   UNL     1     -21.276  -8.029  -2.171  1.00  0.00    -0.027 C 
HETATM   17  C   UNL     1     -20.997  -8.036  -0.858  1.00  0.00    -0.027 C 
BRANCH  17  18
HETATM   18  C   UNL     1     -21.994  -7.665   0.196  1.00  0.00     0.053 C 
BRANCH  18  19
HETATM   19  C   UNL     1     -23.127  -8.644   0.240  1.00  0.00    -0.027 C 
HETATM   20  C   UNL     1     -22.986  -9.948  -0.047  1.00  0.00    -0.030 C 
BRANCH  20  21
HETATM   21  C   UNL     1     -24.125 -10.918  -0.016  1.00  0.00     0.027 C 
BRANCH  21  22
HETATM   22  C   UNL     1     -24.082 -11.850  -1.225  1.00  0.00     0.004 C 
BRANCH  22  23
HETATM   23  C   UNL     1     -22.731 -11.752  -1.931  1.00  0.00    -0.000 C 
BRANCH  23  24
HETATM   24  C   UNL     1     -22.876 -11.113  -3.308  1.00  0.00    -0.005 C 
HETATM   25  C   UNL     1     -22.470 -12.082  -4.405  1.00  0.00     0.005 C 
ENDBRANCH  23  24
ENDBRANCH  22  23
ENDBRANCH  21  22
ENDBRANCH  20  21
ENDBRANCH  18  19
ENDBRANCH  17  18
ENDBRANCH  15  16
ENDBRANCH   1  15
TORSDOF 16
ENDMDL
MODEL 9
REMARK VINA RESULT:      -6.5      4.456      9.948
REMARK  16 active torsions:
REMARK  status: ('A' for Active; 'I' for Inactive)
REMARK    1  A    between atoms: C_2  and  C_3 
REMARK    2  A    between atoms: C_3  and  C_4 
REMARK    3  A    between atoms: C_4  and  C_5 
REMARK    4  A    between atoms: C_5  and  C_6 
REMARK    5  A    between atoms: C_7  and  C_8 
REMARK    6  A    between atoms: C_8  and  C_9 
REMARK    7  A    between atoms: C_10  and  C_11 
REMARK    8  A    between atoms: C_11  and  C_12 
REMARK    9  A    between atoms: C_13  and  C_14 
REMARK   10  A    between atoms: C_15  and  C_16 
REMARK   11  A    between atoms: C_16  and  O_17 
REMARK   12  A    between atoms: C_16  and  C_18 
REMARK   13  A    between atoms: C_18  and  C_19 
REMARK   14  A    between atoms: C_19  and  C_20 
REMARK   15  A    between atoms: C_20  and  C_21 
REMARK   16  A    between atoms: C_21  and  O_23 
ROOT
HETATM    1  C   UNL     1     -21.216  -7.015  -3.769  1.00  0.00    -0.023 C 
HETATM    2  C   UNL     1     -21.967  -6.447  -2.816  1.00  0.00    -0.004 C 
ENDROOT
BRANCH   2   3
HETATM    3  C   UNL     1     -21.742  -6.671  -1.411  1.00  0.00    -0.002 C 
HETATM    4  C   UNL     1     -22.491  -7.508  -0.677  1.00  0.00     0.004 C 
BRANCH   4   5
HETATM    5  C   UNL     1     -22.221  -7.780   0.775  1.00  0.00     0.141 C 
BRANCH   5   6
HETATM    6  O   UNL     1     -23.464  -8.032   1.420  1.00  0.00    -0.392 OA
HETATM    7  H   UNL     1     -23.479  -8.965   1.687  1.00  0.00     0.210 HD
ENDBRANCH   5   6
BRANCH   5   8
HETATM    8  C   UNL     1     -21.293  -8.984   0.985  1.00  0.00     0.036 C 
BRANCH   8   9
HETATM    9  C   UNL     1     -21.511 -10.067  -0.074  1.00  0.00     0.013 C 
BRANCH   9  10
HETATM   10  C   UNL     1     -22.053 -11.368   0.516  1.00  0.00     0.110 C 
BRANCH  10  11
HETATM   11  C   UNL     1     -23.427 -11.677  -0.047  1.00  0.00     0.139 C 
HETATM   12  O   UNL     1     -23.781 -12.760  -0.480  1.00  0.00    -0.650 OA
BRANCH  11  13
HETATM   13  O   UNL     1     -24.245 -10.605  -0.019  1.00  0.00    -0.776 OA
HETATM   14  H   UNL     1     -24.576 -10.378   0.872  1.00  0.00     0.167 HD
ENDBRANCH  11  13
ENDBRANCH  10  11
ENDBRANCH   9  10
ENDBRANCH   8   9
ENDBRANCH   5   8
ENDBRANCH   4   5
ENDBRANCH   2   3
BRANCH   1  15
HETATM   15  C   UNL     1     -21.422  -6.761  -5.232  1.00  0.00     0.054 C 
BRANCH  15  16
HETATM   16  C   UNL     1     -20.416  -5.792  -5.773  1.00  0.00    -0.027 C 
HETATM   17  C   UNL     1     -20.299  -5.494  -7.077  1.00  0.00    -0.027 C 
BRANCH  17  18
HETATM   18  C   UNL     1     -19.267  -4.551  -7.615  1.00  0.00     0.053 C 
BRANCH  18  19
HETATM   19  C   UNL     1     -19.737  -3.897  -8.878  1.00  0.00    -0.027 C 
HETATM   20  C   UNL     1     -20.056  -4.581  -9.989  1.00  0.00    -0.030 C 
BRANCH  20  21
HETATM   21  C   UNL     1     -20.508  -3.920 -11.253  1.00  0.00     0.027 C 
BRANCH  21  22
HETATM   22  C   UNL     1     -21.900  -3.313 -11.084  1.00  0.00     0.004 C 
BRANCH  22  23
HETATM   23  C   UNL     1     -22.881  -4.359 -10.558  1.00  0.00    -0.000 C 
BRANCH  23  24
HETATM   24  C   UNL     1     -23.574  -3.871  -9.289  1.00  0.00    -0.005 C 
HETATM   25  C   UNL     1     -24.951  -3.312  -9.600  1.00  0.00     0.005 C 
ENDBRANCH  23  24
ENDBRANCH  22  23
ENDBRANCH  21  22
ENDBRANCH  20  21
ENDBRANCH  18  19
ENDBRANCH  17  18
ENDBRANCH  15  16
ENDBRANCH   1  15
TORSDOF 16
ENDMDL
