REMARK  3 active torsions:
REMARK  status: ('A' for Active; 'I' for Inactive)
REMARK    1  A    between atoms: C_2  and  C_5 
REMARK    2  A    between atoms: C_13  and  N_14 
REMARK       I    between atoms: N_14  and  C_15 
REMARK       I    between atoms: C_15  and  N_17 
REMARK    3  A    between atoms: N_17  and  C_18 
ROOT
HETATM    1  N   UNL     1       5.240   5.507  -2.657  1.00  0.00    -0.334 N 
HETATM    2  C   UNL     1       5.612   6.527  -3.507  1.00  0.00     0.321 C 
HETATM    3  O   UNL     1       4.817   6.978  -4.326  1.00  0.00    -0.247 OA
HETATM    4  N   UNL     1       6.928   6.904  -3.357  1.00  0.00    -0.308 N 
HETATM    5  H   UNL     1       5.749   5.363  -1.799  1.00  0.00     0.165 HD
HETATM    6  H   UNL     1       7.497   6.280  -2.809  1.00  0.00     0.170 HD
ENDROOT
BRANCH   1   7
HETATM    7  C   UNL     1       3.873   5.028  -2.730  1.00  0.00     0.120 C 
HETATM    8  C   UNL     1       3.686   3.676  -2.111  1.00  0.00    -0.029 A 
HETATM    9  C   UNL     1       3.997   2.440  -2.645  1.00  0.00     0.010 A 
HETATM   10  C   UNL     1       3.034   3.773  -0.882  1.00  0.00    -0.049 A 
HETATM   11  C   UNL     1       3.617   1.292  -1.937  1.00  0.00     0.008 A 
HETATM   12  C   UNL     1       2.942   1.367  -0.690  1.00  0.00    -0.050 A 
HETATM   13  C   UNL     1       2.676   2.644  -0.163  1.00  0.00     0.015 A 
HETATM   14  C   UNL     1       2.783   5.202  -0.519  1.00  0.00     0.041 C 
HETATM   15  C   UNL     1       2.884   5.873  -1.895  1.00  0.00     0.035 C 
BRANCH  12  16
HETATM   16  C   UNL     1       2.495   0.082   0.033  1.00  0.00    -0.024 C 
HETATM   17  C   UNL     1       3.718  -0.809   0.329  1.00  0.00     0.019 C 
HETATM   18  C   UNL     1       1.498  -0.701  -0.849  1.00  0.00     0.019 C 
HETATM   19  C   UNL     1       1.787   0.352   1.382  1.00  0.00     0.019 C 
ENDBRANCH  12  16
ENDBRANCH   1   7
BRANCH   4  20
HETATM   20  C   UNL     1       7.599   7.908  -4.122  1.00  0.00     0.047 A 
HETATM   21  C   UNL     1       6.863   8.843  -4.867  1.00  0.00     0.030 A 
HETATM   22  C   UNL     1       7.486   9.798  -5.666  1.00  0.00     0.003 A 
HETATM   23  C   UNL     1       8.870   9.855  -5.720  1.00  0.00     0.014 A 
HETATM   24  C   UNL     1       9.640   8.962  -4.968  1.00  0.00    -0.008 A 
HETATM   25  C   UNL     1      11.035   9.022  -5.021  1.00  0.00     0.100 A 
HETATM   26  C   UNL     1       9.028   7.974  -4.151  1.00  0.00     0.004 A 
HETATM   27  N   UNL     1      11.866   8.201  -4.349  1.00  0.00    -0.374 N 
HETATM   28  C   UNL     1      11.280   7.267  -3.579  1.00  0.00     0.088 A 
ATOM     29  HN  UNL     1      12.880   8.283  -4.420  1.00  0.00     0.164 HD
HETATM   30  C   UNL     1       9.905   7.117  -3.447  1.00  0.00     0.031 A 
ENDBRANCH   4  20
TORSDOF 3
