MODEL 1
REMARK VINA RESULT:     -11.7      0.000      0.000
REMARK  3 active torsions:
REMARK  status: ('A' for Active; 'I' for Inactive)
REMARK    1  A    between atoms: C_2  and  C_5 
REMARK    2  A    between atoms: C_13  and  N_14 
REMARK       I    between atoms: N_14  and  C_15 
REMARK       I    between atoms: C_15  and  N_17 
REMARK    3  A    between atoms: N_17  and  C_18 
ROOT
HETATM    1  N   UNL     1     -21.405  -6.161  -5.869  1.00  0.00    -0.334 N 
HETATM    2  C   UNL     1     -20.904  -5.659  -7.051  1.00  0.00     0.321 C 
HETATM    3  O   UNL     1     -19.693  -5.579  -7.232  1.00  0.00    -0.247 OA
HETATM    4  N   UNL     1     -21.886  -5.235  -7.918  1.00  0.00    -0.308 N 
HETATM    5  H   UNL     1     -22.345  -6.525  -5.840  1.00  0.00     0.165 HD
HETATM    6  H   UNL     1     -22.809  -5.157  -7.523  1.00  0.00     0.170 HD
ENDROOT
BRANCH   1   7
HETATM    7  C   UNL     1     -20.458  -6.636  -4.878  1.00  0.00     0.120 C 
HETATM    8  C   UNL     1     -21.107  -7.075  -3.601  1.00  0.00    -0.029 A 
HETATM    9  C   UNL     1     -21.578  -6.289  -2.566  1.00  0.00     0.010 A 
HETATM   10  C   UNL     1     -21.117  -8.465  -3.495  1.00  0.00    -0.049 A 
HETATM   11  C   UNL     1     -22.037  -6.921  -1.403  1.00  0.00     0.008 A 
HETATM   12  C   UNL     1     -22.045  -8.335  -1.269  1.00  0.00    -0.050 A 
HETATM   13  C   UNL     1     -21.592  -9.100  -2.359  1.00  0.00     0.015 A 
HETATM   14  C   UNL     1     -20.542  -9.100  -4.721  1.00  0.00     0.041 C 
HETATM   15  C   UNL     1     -19.732  -7.933  -5.300  1.00  0.00     0.035 C 
BRANCH  12  16
HETATM   16  C   UNL     1     -22.509  -8.991   0.046  1.00  0.00    -0.024 C 
HETATM   17  C   UNL     1     -23.201  -7.944   0.941  1.00  0.00     0.019 C 
HETATM   18  C   UNL     1     -21.297  -9.581   0.798  1.00  0.00     0.019 C 
HETATM   19  C   UNL     1     -23.514 -10.148  -0.168  1.00  0.00     0.019 C 
ENDBRANCH  12  16
ENDBRANCH   1   7
BRANCH   4  20
HETATM   20  C   UNL     1     -21.666  -4.641  -9.200  1.00  0.00     0.047 A 
HETATM   21  C   UNL     1     -20.367  -4.541  -9.722  1.00  0.00     0.030 A 
HETATM   22  C   UNL     1     -20.112  -3.919 -10.941  1.00  0.00     0.003 A 
HETATM   23  C   UNL     1     -21.162  -3.399 -11.682  1.00  0.00     0.014 A 
HETATM   24  C   UNL     1     -22.475  -3.507 -11.213  1.00  0.00    -0.008 A 
HETATM   25  C   UNL     1     -23.532  -2.985 -11.962  1.00  0.00     0.100 A 
HETATM   26  C   UNL     1     -22.759  -4.131  -9.969  1.00  0.00     0.004 A 
HETATM   27  N   UNL     1     -24.828  -3.023 -11.593  1.00  0.00    -0.374 N 
HETATM   28  C   UNL     1     -25.090  -3.614 -10.414  1.00  0.00     0.088 A 
ATOM     29  HN  UNL     1     -25.567  -2.628 -12.174  1.00  0.00     0.164 HD
HETATM   30  C   UNL     1     -24.121  -4.169  -9.588  1.00  0.00     0.031 A 
ENDBRANCH   4  20
TORSDOF 3
ENDMDL
MODEL 2
REMARK VINA RESULT:     -10.3      2.091      3.352
REMARK  3 active torsions:
REMARK  status: ('A' for Active; 'I' for Inactive)
REMARK    1  A    between atoms: C_2  and  C_5 
REMARK    2  A    between atoms: C_13  and  N_14 
REMARK       I    between atoms: N_14  and  C_15 
REMARK       I    between atoms: C_15  and  N_17 
REMARK    3  A    between atoms: N_17  and  C_18 
ROOT
HETATM    1  N   UNL     1     -21.482  -5.948  -5.179  1.00  0.00    -0.334 N 
HETATM    2  C   UNL     1     -21.541  -5.985  -6.556  1.00  0.00     0.321 C 
HETATM    3  O   UNL     1     -21.779  -7.036  -7.142  1.00  0.00    -0.247 OA
HETATM    4  N   UNL     1     -21.258  -4.771  -7.142  1.00  0.00    -0.308 N 
HETATM    5  H   UNL     1     -21.613  -5.071  -4.698  1.00  0.00     0.165 HD
HETATM    6  H   UNL     1     -20.859  -4.078  -6.531  1.00  0.00     0.170 HD
ENDROOT
BRANCH   1   7
HETATM    7  C   UNL     1     -21.762  -7.173  -4.455  1.00  0.00     0.120 C 
HETATM    8  C   UNL     1     -20.547  -8.025  -4.244  1.00  0.00    -0.029 A 
HETATM    9  C   UNL     1     -19.925  -8.868  -5.146  1.00  0.00     0.010 A 
HETATM   10  C   UNL     1     -20.112  -7.959  -2.920  1.00  0.00    -0.049 A 
HETATM   11  C   UNL     1     -18.870  -9.671  -4.692  1.00  0.00     0.008 A 
HETATM   12  C   UNL     1     -18.419  -9.628  -3.346  1.00  0.00    -0.050 A 
HETATM   13  C   UNL     1     -19.054  -8.731  -2.468  1.00  0.00     0.015 A 
HETATM   14  C   UNL     1     -20.945  -7.002  -2.129  1.00  0.00     0.041 C 
HETATM   15  C   UNL     1     -22.209  -6.932  -2.995  1.00  0.00     0.035 C 
BRANCH  12  16
HETATM   16  C   UNL     1     -17.290 -10.564  -2.873  1.00  0.00    -0.024 C 
HETATM   17  C   UNL     1     -16.014  -9.747  -2.585  1.00  0.00     0.019 C 
HETATM   18  C   UNL     1     -16.984 -11.616  -3.962  1.00  0.00     0.019 C 
HETATM   19  C   UNL     1     -17.638 -11.341  -1.581  1.00  0.00     0.019 C 
ENDBRANCH  12  16
ENDBRANCH   1   7
BRANCH   4  20
HETATM   20  C   UNL     1     -21.210  -4.517  -8.548  1.00  0.00     0.047 A 
HETATM   21  C   UNL     1     -19.997  -4.623  -9.248  1.00  0.00     0.030 A 
HETATM   22  C   UNL     1     -19.906  -4.328 -10.606  1.00  0.00     0.003 A 
HETATM   23  C   UNL     1     -21.039  -3.941 -11.305  1.00  0.00     0.014 A 
HETATM   24  C   UNL     1     -22.272  -3.854 -10.652  1.00  0.00    -0.008 A 
HETATM   25  C   UNL     1     -23.414  -3.467 -11.358  1.00  0.00     0.100 A 
HETATM   26  C   UNL     1     -22.390  -4.143  -9.266  1.00  0.00     0.004 A 
HETATM   27  N   UNL     1     -24.643  -3.338 -10.821  1.00  0.00    -0.374 N 
HETATM   28  C   UNL     1     -24.747  -3.611  -9.509  1.00  0.00     0.088 A 
ATOM     29  HN  UNL     1     -25.448  -3.051 -11.378  1.00  0.00     0.164 HD
HETATM   30  C   UNL     1     -23.683  -4.008  -8.709  1.00  0.00     0.031 A 
ENDBRANCH   4  20
TORSDOF 3
ENDMDL
MODEL 3
REMARK VINA RESULT:      -9.7      1.973      9.475
REMARK  3 active torsions:
REMARK  status: ('A' for Active; 'I' for Inactive)
REMARK    1  A    between atoms: C_2  and  C_5 
REMARK    2  A    between atoms: C_13  and  N_14 
REMARK       I    between atoms: N_14  and  C_15 
REMARK       I    between atoms: C_15  and  N_17 
REMARK    3  A    between atoms: N_17  and  C_18 
ROOT
HETATM    1  N   UNL     1     -20.777  -5.984  -7.656  1.00  0.00    -0.334 N 
HETATM    2  C   UNL     1     -20.380  -6.203  -6.354  1.00  0.00     0.321 C 
HETATM    3  O   UNL     1     -20.074  -5.261  -5.628  1.00  0.00    -0.247 OA
HETATM    4  N   UNL     1     -20.323  -7.538  -6.022  1.00  0.00    -0.308 N 
HETATM    5  H   UNL     1     -21.323  -6.683  -8.134  1.00  0.00     0.165 HD
HETATM    6  H   UNL     1     -20.380  -8.179  -6.797  1.00  0.00     0.170 HD
ENDROOT
BRANCH   1   7
HETATM    7  C   UNL     1     -20.870  -4.611  -8.115  1.00  0.00     0.120 C 
HETATM    8  C   UNL     1     -21.465  -4.484  -9.484  1.00  0.00    -0.029 A 
HETATM    9  C   UNL     1     -20.856  -4.701 -10.705  1.00  0.00     0.010 A 
HETATM   10  C   UNL     1     -22.772  -4.001  -9.420  1.00  0.00    -0.049 A 
HETATM   11  C   UNL     1     -21.571  -4.398 -11.872  1.00  0.00     0.008 A 
HETATM   12  C   UNL     1     -22.898  -3.894 -11.830  1.00  0.00    -0.050 A 
HETATM   13  C   UNL     1     -23.496  -3.722 -10.568  1.00  0.00     0.015 A 
HETATM   14  C   UNL     1     -23.210  -3.824  -8.001  1.00  0.00     0.041 C 
HETATM   15  C   UNL     1     -21.855  -3.755  -7.286  1.00  0.00     0.035 C 
BRANCH  12  16
HETATM   16  C   UNL     1     -23.633  -3.524 -13.133  1.00  0.00    -0.024 C 
HETATM   17  C   UNL     1     -24.794  -2.557 -12.827  1.00  0.00     0.019 C 
HETATM   18  C   UNL     1     -24.196  -4.797 -13.802  1.00  0.00     0.019 C 
HETATM   19  C   UNL     1     -22.722  -2.833 -14.175  1.00  0.00     0.019 C 
ENDBRANCH  12  16
ENDBRANCH   1   7
BRANCH   4  20
HETATM   20  C   UNL     1     -19.913  -8.066  -4.759  1.00  0.00     0.047 A 
HETATM   21  C   UNL     1     -18.824  -8.948  -4.677  1.00  0.00     0.030 A 
HETATM   22  C   UNL     1     -18.435  -9.523  -3.470  1.00  0.00     0.003 A 
HETATM   23  C   UNL     1     -19.116  -9.207  -2.305  1.00  0.00     0.014 A 
HETATM   24  C   UNL     1     -20.187  -8.308  -2.338  1.00  0.00    -0.008 A 
HETATM   25  C   UNL     1     -20.871  -7.989  -1.162  1.00  0.00     0.100 A 
HETATM   26  C   UNL     1     -20.608  -7.714  -3.558  1.00  0.00     0.004 A 
HETATM   27  N   UNL     1     -21.922  -7.148  -1.089  1.00  0.00    -0.374 N 
HETATM   28  C   UNL     1     -22.316  -6.591  -2.247  1.00  0.00     0.088 A 
ATOM     29  HN  UNL     1     -22.391  -6.946  -0.206  1.00  0.00     0.164 HD
HETATM   30  C   UNL     1     -21.709  -6.832  -3.474  1.00  0.00     0.031 A 
ENDBRANCH   4  20
TORSDOF 3
ENDMDL
MODEL 4
REMARK VINA RESULT:      -9.6      2.347      9.770
REMARK  3 active torsions:
REMARK  status: ('A' for Active; 'I' for Inactive)
REMARK    1  A    between atoms: C_2  and  C_5 
REMARK    2  A    between atoms: C_13  and  N_14 
REMARK       I    between atoms: N_14  and  C_15 
REMARK       I    between atoms: C_15  and  N_17 
REMARK    3  A    between atoms: N_17  and  C_18 
ROOT
HETATM    1  N   UNL     1     -20.548  -6.009  -7.672  1.00  0.00    -0.334 N 
HETATM    2  C   UNL     1     -20.356  -6.303  -6.338  1.00  0.00     0.321 C 
HETATM    3  O   UNL     1     -20.390  -5.414  -5.493  1.00  0.00    -0.247 OA
HETATM    4  N   UNL     1     -20.083  -7.633  -6.110  1.00  0.00    -0.308 N 
HETATM    5  H   UNL     1     -20.840  -6.737  -8.305  1.00  0.00     0.165 HD
HETATM    6  H   UNL     1     -19.865  -8.177  -6.929  1.00  0.00     0.170 HD
ENDROOT
BRANCH   1   7
HETATM    7  C   UNL     1     -20.840  -4.634  -8.029  1.00  0.00     0.120 C 
HETATM    8  C   UNL     1     -21.430  -4.491  -9.399  1.00  0.00    -0.029 A 
HETATM    9  C   UNL     1     -20.780  -4.519 -10.618  1.00  0.00     0.010 A 
HETATM   10  C   UNL     1     -22.795  -4.214  -9.330  1.00  0.00    -0.049 A 
HETATM   11  C   UNL     1     -21.518  -4.236 -11.775  1.00  0.00     0.008 A 
HETATM   12  C   UNL     1     -22.905  -3.940 -11.727  1.00  0.00    -0.050 A 
HETATM   13  C   UNL     1     -23.538  -3.957 -10.471  1.00  0.00     0.015 A 
HETATM   14  C   UNL     1     -23.272  -4.216  -7.913  1.00  0.00     0.041 C 
HETATM   15  C   UNL     1     -21.952  -4.001  -7.162  1.00  0.00     0.035 C 
BRANCH  12  16
HETATM   16  C   UNL     1     -23.671  -3.583 -13.016  1.00  0.00    -0.024 C 
HETATM   17  C   UNL     1     -24.880  -2.688 -12.680  1.00  0.00     0.019 C 
HETATM   18  C   UNL     1     -24.169  -4.871 -13.709  1.00  0.00     0.019 C 
HETATM   19  C   UNL     1     -22.809  -2.821 -14.050  1.00  0.00     0.019 C 
ENDBRANCH  12  16
ENDBRANCH   1   7
BRANCH   4  20
HETATM   20  C   UNL     1     -19.809  -8.221  -4.836  1.00  0.00     0.047 A 
HETATM   21  C   UNL     1     -20.593  -7.892  -3.719  1.00  0.00     0.030 A 
HETATM   22  C   UNL     1     -20.318  -8.404  -2.454  1.00  0.00     0.003 A 
HETATM   23  C   UNL     1     -19.258  -9.280  -2.280  1.00  0.00     0.014 A 
HETATM   24  C   UNL     1     -18.471  -9.657  -3.373  1.00  0.00    -0.008 A 
HETATM   25  C   UNL     1     -17.405 -10.543  -3.198  1.00  0.00     0.100 A 
HETATM   26  C   UNL     1     -18.728  -9.144  -4.673  1.00  0.00     0.004 A 
HETATM   27  N   UNL     1     -16.580 -10.957  -4.179  1.00  0.00    -0.374 N 
HETATM   28  C   UNL     1     -16.827 -10.466  -5.407  1.00  0.00     0.088 A 
ATOM     29  HN  UNL     1     -15.813 -11.605  -4.002  1.00  0.00     0.164 HD
HETATM   30  C   UNL     1     -17.860  -9.583  -5.699  1.00  0.00     0.031 A 
ENDBRANCH   4  20
TORSDOF 3
ENDMDL
MODEL 5
REMARK VINA RESULT:      -9.4      4.896     11.557
REMARK  3 active torsions:
REMARK  status: ('A' for Active; 'I' for Inactive)
REMARK    1  A    between atoms: C_2  and  C_5 
REMARK    2  A    between atoms: C_13  and  N_14 
REMARK       I    between atoms: N_14  and  C_15 
REMARK       I    between atoms: C_15  and  N_17 
REMARK    3  A    between atoms: N_17  and  C_18 
ROOT
HETATM    1  N   UNL     1     -21.679 -10.263  -0.891  1.00  0.00    -0.334 N 
HETATM    2  C   UNL     1     -21.557 -11.105   0.193  1.00  0.00     0.321 C 
HETATM    3  O   UNL     1     -20.776 -10.843   1.103  1.00  0.00    -0.247 OA
HETATM    4  N   UNL     1     -22.339 -12.234   0.093  1.00  0.00    -0.308 N 
HETATM    5  H   UNL     1     -22.515 -10.293  -1.454  1.00  0.00     0.165 HD
HETATM    6  H   UNL     1     -22.738 -12.404  -0.815  1.00  0.00     0.170 HD
ENDROOT
BRANCH   1   7
HETATM    7  C   UNL     1     -20.897  -9.042  -0.893  1.00  0.00     0.120 C 
HETATM    8  C   UNL     1     -20.826  -8.386  -2.239  1.00  0.00    -0.029 A 
HETATM    9  C   UNL     1     -20.032  -8.727  -3.316  1.00  0.00     0.010 A 
HETATM   10  C   UNL     1     -21.634  -7.250  -2.286  1.00  0.00    -0.049 A 
HETATM   11  C   UNL     1     -20.037  -7.892  -4.441  1.00  0.00     0.008 A 
HETATM   12  C   UNL     1     -20.843  -6.724  -4.507  1.00  0.00    -0.050 A 
HETATM   13  C   UNL     1     -21.665  -6.431  -3.403  1.00  0.00     0.015 A 
HETATM   14  C   UNL     1     -22.383  -7.070  -1.004  1.00  0.00     0.041 C 
HETATM   15  C   UNL     1     -21.527  -7.911  -0.048  1.00  0.00     0.035 C 
BRANCH  12  16
HETATM   16  C   UNL     1     -20.783  -5.803  -5.740  1.00  0.00    -0.024 C 
HETATM   17  C   UNL     1     -20.073  -4.483  -5.378  1.00  0.00     0.019 C 
HETATM   18  C   UNL     1     -22.211  -5.493  -6.238  1.00  0.00     0.019 C 
HETATM   19  C   UNL     1     -20.016  -6.424  -6.932  1.00  0.00     0.019 C 
ENDBRANCH  12  16
ENDBRANCH   1   7
BRANCH   4  20
HETATM   20  C   UNL     1     -22.393 -13.297   1.047  1.00  0.00     0.047 A 
HETATM   21  C   UNL     1     -23.525 -13.463   1.862  1.00  0.00     0.030 A 
HETATM   22  C   UNL     1     -23.587 -14.453   2.838  1.00  0.00     0.003 A 
HETATM   23  C   UNL     1     -22.520 -15.322   3.008  1.00  0.00     0.014 A 
HETATM   24  C   UNL     1     -21.387 -15.211   2.195  1.00  0.00    -0.008 A 
HETATM   25  C   UNL     1     -20.313 -16.088   2.365  1.00  0.00     0.100 A 
HETATM   26  C   UNL     1     -21.297 -14.204   1.197  1.00  0.00     0.004 A 
HETATM   27  N   UNL     1     -19.173 -16.057   1.647  1.00  0.00    -0.374 N 
HETATM   28  C   UNL     1     -19.094 -15.100   0.705  1.00  0.00     0.088 A 
ATOM     29  HN  UNL     1     -18.415 -16.719   1.808  1.00  0.00     0.164 HD
HETATM   30  C   UNL     1     -20.099 -14.177   0.445  1.00  0.00     0.031 A 
ENDBRANCH   4  20
TORSDOF 3
ENDMDL
MODEL 6
REMARK VINA RESULT:      -9.4      4.781     10.951
REMARK  3 active torsions:
REMARK  status: ('A' for Active; 'I' for Inactive)
REMARK    1  A    between atoms: C_2  and  C_5 
REMARK    2  A    between atoms: C_13  and  N_14 
REMARK       I    between atoms: N_14  and  C_15 
REMARK       I    between atoms: C_15  and  N_17 
REMARK    3  A    between atoms: N_17  and  C_18 
ROOT
HETATM    1  N   UNL     1     -22.556 -10.074  -0.871  1.00  0.00    -0.334 N 
HETATM    2  C   UNL     1     -22.391 -11.230  -0.139  1.00  0.00     0.321 C 
HETATM    3  O   UNL     1     -21.329 -11.462   0.431  1.00  0.00    -0.247 OA
HETATM    4  N   UNL     1     -23.490 -12.058  -0.179  1.00  0.00    -0.308 N 
HETATM    5  H   UNL     1     -23.485  -9.730  -1.057  1.00  0.00     0.165 HD
HETATM    6  H   UNL     1     -24.180 -11.827  -0.875  1.00  0.00     0.170 HD
ENDROOT
BRANCH   1   7
HETATM    7  C   UNL     1     -21.458  -9.127  -0.901  1.00  0.00     0.120 C 
HETATM    8  C   UNL     1     -21.295  -8.451  -2.229  1.00  0.00    -0.029 A 
HETATM    9  C   UNL     1     -20.708  -8.949  -3.376  1.00  0.00     0.010 A 
HETATM   10  C   UNL     1     -21.743  -7.131  -2.178  1.00  0.00    -0.049 A 
HETATM   11  C   UNL     1     -20.551  -8.091  -4.473  1.00  0.00     0.008 A 
HETATM   12  C   UNL     1     -20.990  -6.741  -4.439  1.00  0.00    -0.050 A 
HETATM   13  C   UNL     1     -21.614  -6.282  -3.265  1.00  0.00     0.015 A 
HETATM   14  C   UNL     1     -22.318  -6.811  -0.835  1.00  0.00     0.041 C 
HETATM   15  C   UNL     1     -21.677  -7.908   0.024  1.00  0.00     0.035 C 
BRANCH  12  16
HETATM   16  C   UNL     1     -20.752  -5.814  -5.647  1.00  0.00    -0.024 C 
HETATM   17  C   UNL     1     -20.003  -4.544  -5.197  1.00  0.00     0.019 C 
HETATM   18  C   UNL     1     -22.103  -5.411  -6.277  1.00  0.00     0.019 C 
HETATM   19  C   UNL     1     -19.911  -6.470  -6.768  1.00  0.00     0.019 C 
ENDBRANCH  12  16
ENDBRANCH   1   7
BRANCH   4  20
HETATM   20  C   UNL     1     -23.595 -13.335   0.456  1.00  0.00     0.047 A 
HETATM   21  C   UNL     1     -23.395 -13.458   1.840  1.00  0.00     0.030 A 
HETATM   22  C   UNL     1     -23.435 -14.694   2.479  1.00  0.00     0.003 A 
HETATM   23  C   UNL     1     -23.701 -15.841   1.747  1.00  0.00     0.014 A 
HETATM   24  C   UNL     1     -23.937 -15.757   0.371  1.00  0.00    -0.008 A 
HETATM   25  C   UNL     1     -24.207 -16.913  -0.365  1.00  0.00     0.100 A 
HETATM   26  C   UNL     1     -23.895 -14.509  -0.305  1.00  0.00     0.004 A 
HETATM   27  N   UNL     1     -24.434 -16.944  -1.693  1.00  0.00    -0.374 N 
HETATM   28  C   UNL     1     -24.390 -15.759  -2.328  1.00  0.00     0.088 A 
ATOM     29  HN  UNL     1     -24.627 -17.814  -2.188  1.00  0.00     0.164 HD
HETATM   30  C   UNL     1     -24.135 -14.547  -1.698  1.00  0.00     0.031 A 
ENDBRANCH   4  20
TORSDOF 3
ENDMDL
MODEL 7
REMARK VINA RESULT:      -9.3      4.068      6.112
REMARK  3 active torsions:
REMARK  status: ('A' for Active; 'I' for Inactive)
REMARK    1  A    between atoms: C_2  and  C_5 
REMARK    2  A    between atoms: C_13  and  N_14 
REMARK       I    between atoms: N_14  and  C_15 
REMARK       I    between atoms: C_15  and  N_17 
REMARK    3  A    between atoms: N_17  and  C_18 
ROOT
HETATM    1  N   UNL     1     -18.921  -8.164  -5.720  1.00  0.00    -0.334 N 
HETATM    2  C   UNL     1     -20.128  -7.588  -6.056  1.00  0.00     0.321 C 
HETATM    3  O   UNL     1     -21.184  -8.157  -5.800  1.00  0.00    -0.247 OA
HETATM    4  N   UNL     1     -19.989  -6.391  -6.723  1.00  0.00    -0.308 N 
HETATM    5  H   UNL     1     -18.101  -7.586  -5.627  1.00  0.00     0.165 HD
HETATM    6  H   UNL     1     -19.061  -6.185  -7.054  1.00  0.00     0.170 HD
ENDROOT
BRANCH   1   7
HETATM    7  C   UNL     1     -18.948  -9.431  -5.014  1.00  0.00     0.120 C 
HETATM    8  C   UNL     1     -17.748 -10.286  -5.289  1.00  0.00    -0.029 A 
HETATM    9  C   UNL     1     -17.493 -11.072  -6.396  1.00  0.00     0.010 A 
HETATM   10  C   UNL     1     -16.878 -10.294  -4.199  1.00  0.00    -0.049 A 
HETATM   11  C   UNL     1     -16.357 -11.893  -6.385  1.00  0.00     0.008 A 
HETATM   12  C   UNL     1     -15.464 -11.925  -5.282  1.00  0.00    -0.050 A 
HETATM   13  C   UNL     1     -15.740 -11.084  -4.189  1.00  0.00     0.015 A 
HETATM   14  C   UNL     1     -17.369  -9.388  -3.114  1.00  0.00     0.041 C 
HETATM   15  C   UNL     1     -18.855  -9.277  -3.479  1.00  0.00     0.035 C 
BRANCH  12  16
HETATM   16  C   UNL     1     -14.254 -12.879  -5.286  1.00  0.00    -0.024 C 
HETATM   17  C   UNL     1     -14.737 -14.342  -5.348  1.00  0.00     0.019 C 
HETATM   18  C   UNL     1     -13.417 -12.676  -4.004  1.00  0.00     0.019 C 
HETATM   19  C   UNL     1     -13.303 -12.659  -6.486  1.00  0.00     0.019 C 
ENDBRANCH  12  16
ENDBRANCH   1   7
BRANCH   4  20
HETATM   20  C   UNL     1     -21.061  -5.587  -7.222  1.00  0.00     0.047 A 
HETATM   21  C   UNL     1     -22.205  -5.365  -6.441  1.00  0.00     0.030 A 
HETATM   22  C   UNL     1     -23.289  -4.633  -6.919  1.00  0.00     0.003 A 
HETATM   23  C   UNL     1     -23.243  -4.083  -8.190  1.00  0.00     0.014 A 
HETATM   24  C   UNL     1     -22.108  -4.254  -8.989  1.00  0.00    -0.008 A 
HETATM   25  C   UNL     1     -22.060  -3.697 -10.270  1.00  0.00     0.100 A 
HETATM   26  C   UNL     1     -20.992  -5.003  -8.527  1.00  0.00     0.004 A 
HETATM   27  N   UNL     1     -21.023  -3.816 -11.122  1.00  0.00    -0.374 N 
HETATM   28  C   UNL     1     -19.971  -4.527 -10.679  1.00  0.00     0.088 A 
ATOM     29  HN  UNL     1     -21.035  -3.391 -12.049  1.00  0.00     0.164 HD
HETATM   30  C   UNL     1     -19.906  -5.122  -9.425  1.00  0.00     0.031 A 
ENDBRANCH   4  20
TORSDOF 3
ENDMDL
MODEL 8
REMARK VINA RESULT:      -9.2      4.849     11.079
REMARK  3 active torsions:
REMARK  status: ('A' for Active; 'I' for Inactive)
REMARK    1  A    between atoms: C_2  and  C_5 
REMARK    2  A    between atoms: C_13  and  N_14 
REMARK       I    between atoms: N_14  and  C_15 
REMARK       I    between atoms: C_15  and  N_17 
REMARK    3  A    between atoms: N_17  and  C_18 
ROOT
HETATM    1  N   UNL     1     -22.766 -10.036  -0.736  1.00  0.00    -0.334 N 
HETATM    2  C   UNL     1     -22.537 -11.395  -0.697  1.00  0.00     0.321 C 
HETATM    3  O   UNL     1     -21.393 -11.837  -0.750  1.00  0.00    -0.247 OA
HETATM    4  N   UNL     1     -23.695 -12.138  -0.651  1.00  0.00    -0.308 N 
HETATM    5  H   UNL     1     -23.631  -9.666  -0.375  1.00  0.00     0.165 HD
HETATM    6  H   UNL     1     -24.543 -11.632  -0.848  1.00  0.00     0.170 HD
ENDROOT
BRANCH   1   7
HETATM    7  C   UNL     1     -21.615  -9.155  -0.788  1.00  0.00     0.120 C 
HETATM    8  C   UNL     1     -21.436  -8.493  -2.120  1.00  0.00    -0.029 A 
HETATM    9  C   UNL     1     -20.901  -9.028  -3.276  1.00  0.00     0.010 A 
HETATM   10  C   UNL     1     -21.806  -7.149  -2.066  1.00  0.00    -0.049 A 
HETATM   11  C   UNL     1     -20.713  -8.182  -4.378  1.00  0.00     0.008 A 
HETATM   12  C   UNL     1     -21.071  -6.809  -4.341  1.00  0.00    -0.050 A 
HETATM   13  C   UNL     1     -21.646  -6.312  -3.158  1.00  0.00     0.015 A 
HETATM   14  C   UNL     1     -22.337  -6.793  -0.714  1.00  0.00     0.041 C 
HETATM   15  C   UNL     1     -21.745  -7.924   0.138  1.00  0.00     0.035 C 
BRANCH  12  16
HETATM   16  C   UNL     1     -20.801  -5.900  -5.556  1.00  0.00    -0.024 C 
HETATM   17  C   UNL     1     -22.132  -5.508  -6.227  1.00  0.00     0.019 C 
HETATM   18  C   UNL     1     -19.913  -6.639  -6.582  1.00  0.00     0.019 C 
HETATM   19  C   UNL     1     -20.068  -4.588  -5.189  1.00  0.00     0.019 C 
ENDBRANCH  12  16
ENDBRANCH   1   7
BRANCH   4  20
HETATM   20  C   UNL     1     -23.769 -13.566  -0.638  1.00  0.00     0.047 A 
HETATM   21  C   UNL     1     -23.974 -14.277  -1.831  1.00  0.00     0.030 A 
HETATM   22  C   UNL     1     -24.105 -15.663  -1.845  1.00  0.00     0.003 A 
HETATM   23  C   UNL     1     -24.011 -16.377  -0.660  1.00  0.00     0.014 A 
HETATM   24  C   UNL     1     -23.775 -15.709   0.545  1.00  0.00    -0.008 A 
HETATM   25  C   UNL     1     -23.677 -16.429   1.739  1.00  0.00     0.100 A 
HETATM   26  C   UNL     1     -23.644 -14.295   0.587  1.00  0.00     0.004 A 
HETATM   27  N   UNL     1     -23.467 -15.882   2.952  1.00  0.00    -0.374 N 
HETATM   28  C   UNL     1     -23.346 -14.543   2.984  1.00  0.00     0.088 A 
ATOM     29  HN  UNL     1     -23.403 -16.450   3.797  1.00  0.00     0.164 HD
HETATM   30  C   UNL     1     -23.422 -13.727   1.862  1.00  0.00     0.031 A 
ENDBRANCH   4  20
TORSDOF 3
ENDMDL
MODEL 9
REMARK VINA RESULT:      -8.9      5.830      8.656
REMARK  3 active torsions:
REMARK  status: ('A' for Active; 'I' for Inactive)
REMARK    1  A    between atoms: C_2  and  C_5 
REMARK    2  A    between atoms: C_13  and  N_14 
REMARK       I    between atoms: N_14  and  C_15 
REMARK       I    between atoms: C_15  and  N_17 
REMARK    3  A    between atoms: N_17  and  C_18 
ROOT
HETATM    1  N   UNL     1     -17.301 -11.233  -2.516  1.00  0.00    -0.334 N 
HETATM    2  C   UNL     1     -17.754  -9.972  -2.843  1.00  0.00     0.321 C 
HETATM    3  O   UNL     1     -17.033  -8.991  -2.688  1.00  0.00    -0.247 OA
HETATM    4  N   UNL     1     -19.058  -9.963  -3.283  1.00  0.00    -0.308 N 
HETATM    5  H   UNL     1     -17.737 -12.042  -2.929  1.00  0.00     0.165 HD
HETATM    6  H   UNL     1     -19.573 -10.815  -3.130  1.00  0.00     0.170 HD
ENDROOT
BRANCH   1   7
HETATM    7  C   UNL     1     -15.938 -11.361  -2.037  1.00  0.00     0.120 C 
HETATM    8  C   UNL     1     -15.812 -12.254  -0.840  1.00  0.00    -0.029 A 
HETATM    9  C   UNL     1     -16.098 -11.962   0.480  1.00  0.00     0.010 A 
HETATM   10  C   UNL     1     -15.251 -13.483  -1.188  1.00  0.00    -0.049 A 
HETATM   11  C   UNL     1     -15.784 -12.915   1.458  1.00  0.00     0.008 A 
HETATM   12  C   UNL     1     -15.202 -14.167   1.128  1.00  0.00    -0.050 A 
HETATM   13  C   UNL     1     -14.960 -14.441  -0.231  1.00  0.00     0.015 A 
HETATM   14  C   UNL     1     -15.011 -13.565  -2.662  1.00  0.00     0.041 C 
HETATM   15  C   UNL     1     -15.003 -12.077  -3.038  1.00  0.00     0.035 C 
BRANCH  12  16
HETATM   16  C   UNL     1     -14.824 -15.168   2.237  1.00  0.00    -0.024 C 
HETATM   17  C   UNL     1     -15.283 -14.633   3.608  1.00  0.00     0.019 C 
HETATM   18  C   UNL     1     -13.294 -15.378   2.260  1.00  0.00     0.019 C 
HETATM   19  C   UNL     1     -15.467 -16.562   2.050  1.00  0.00     0.019 C 
ENDBRANCH  12  16
ENDBRANCH   1   7
BRANCH   4  20
HETATM   20  C   UNL     1     -19.802  -8.802  -3.659  1.00  0.00     0.047 A 
HETATM   21  C   UNL     1     -19.709  -8.290  -4.964  1.00  0.00     0.030 A 
HETATM   22  C   UNL     1     -20.376  -7.130  -5.346  1.00  0.00     0.003 A 
HETATM   23  C   UNL     1     -21.177  -6.462  -4.432  1.00  0.00     0.014 A 
HETATM   24  C   UNL     1     -21.322  -6.957  -3.132  1.00  0.00    -0.008 A 
HETATM   25  C   UNL     1     -22.131  -6.285  -2.212  1.00  0.00     0.100 A 
HETATM   26  C   UNL     1     -20.646  -8.135  -2.716  1.00  0.00     0.004 A 
HETATM   27  N   UNL     1     -22.326  -6.668  -0.935  1.00  0.00    -0.374 N 
HETATM   28  C   UNL     1     -21.681  -7.783  -0.547  1.00  0.00     0.088 A 
ATOM     29  HN  UNL     1     -22.927  -6.144  -0.299  1.00  0.00     0.164 HD
HETATM   30  C   UNL     1     -20.855  -8.533  -1.375  1.00  0.00     0.031 A 
ENDBRANCH   4  20
TORSDOF 3
ENDMDL
