REMARK  19 active torsions:
REMARK  status: ('A' for Active; 'I' for Inactive)
REMARK    1  A    between atoms: C_2  and  C_3 
REMARK    2  A    between atoms: C_3  and  C_4 
REMARK    3  A    between atoms: C_4  and  C_5 
REMARK    4  A    between atoms: C_5  and  C_6 
REMARK    5  A    between atoms: C_7  and  C_8 
REMARK    6  A    between atoms: C_8  and  C_9 
REMARK    7  A    between atoms: C_10  and  C_11 
REMARK    8  A    between atoms: C_11  and  C_12 
REMARK    9  A    between atoms: C_13  and  C_14 
REMARK   10  A    between atoms: C_14  and  C_15 
REMARK   11  A    between atoms: C_16  and  C_17 
REMARK   12  A    between atoms: C_17  and  C_18 
REMARK   13  A    between atoms: C_18  and  C_19 
REMARK   14  A    between atoms: C_19  and  C_20 
REMARK       I    between atoms: C_20  and  N_22 
REMARK   15  A    between atoms: N_22  and  C_23 
REMARK   16  A    between atoms: C_23  and  C_24 
REMARK   17  A    between atoms: C_24  and  C_25 
REMARK   18  A    between atoms: C_28  and  O_29 
REMARK   19  A    between atoms: C_30  and  O_31 
ROOT
HETATM    1  C   UNL     1      16.152  -7.094  10.521  1.00  0.00     0.013 C 
ENDROOT
BRANCH   1   2
HETATM    2  C   UNL     1      16.621  -7.435   9.109  1.00  0.00     0.027 C 
BRANCH   2   3
HETATM    3  C   UNL     1      16.106  -6.447   8.104  1.00  0.00    -0.030 C 
HETATM    4  C   UNL     1      15.311  -6.806   7.085  1.00  0.00    -0.027 C 
BRANCH   4   5
HETATM    5  C   UNL     1      14.777  -5.832   6.081  1.00  0.00     0.053 C 
BRANCH   5   6
HETATM    6  C   UNL     1      13.278  -5.818   6.064  1.00  0.00    -0.027 C 
HETATM    7  C   UNL     1      12.562  -6.120   4.969  1.00  0.00    -0.027 C 
BRANCH   7   8
HETATM    8  C   UNL     1      11.066  -6.111   4.940  1.00  0.00     0.053 C 
BRANCH   8   9
HETATM    9  C   UNL     1      10.515  -7.456   4.571  1.00  0.00    -0.027 C 
HETATM   10  C   UNL     1       9.754  -7.663   3.498  1.00  0.00    -0.027 C 
BRANCH  10  11
HETATM   11  C   UNL     1       9.200  -9.005   3.126  1.00  0.00     0.053 C 
BRANCH  11  12
HETATM   12  C   UNL     1       7.702  -8.977   3.077  1.00  0.00    -0.027 C 
HETATM   13  C   UNL     1       7.002  -9.260   1.983  1.00  0.00    -0.030 C 
BRANCH  13  14
HETATM   14  C   UNL     1       5.504  -9.227   1.936  1.00  0.00     0.027 C 
BRANCH  14  15
HETATM   15  C   UNL     1       4.947 -10.597   1.575  1.00  0.00     0.004 C 
BRANCH  15  16
HETATM   16  C   UNL     1       3.424 -10.561   1.550  1.00  0.00    -0.000 C 
BRANCH  16  17
HETATM   17  C   UNL     1       2.865 -11.934   1.191  1.00  0.00    -0.005 C 
HETATM   18  C   UNL     1       1.349 -11.896   1.167  1.00  0.00     0.005 C 
ENDBRANCH  16  17
ENDBRANCH  15  16
ENDBRANCH  14  15
ENDBRANCH  13  14
ENDBRANCH  11  12
ENDBRANCH  10  11
ENDBRANCH   8   9
ENDBRANCH   7   8
ENDBRANCH   5   6
ENDBRANCH   4   5
ENDBRANCH   2   3
ENDBRANCH   1   2
BRANCH   1  19
HETATM   19  C   UNL     1      14.624  -7.095  10.654  1.00  0.00     0.103 C 
BRANCH  19  20
HETATM   20  C   UNL     1      14.213  -6.750  12.077  1.00  0.00     0.217 C 
HETATM   21  O   UNL     1      15.026  -6.511  12.964  1.00  0.00    -0.274 OA
HETATM   22  N   UNL     1      12.854  -6.722  12.308  1.00  0.00    -0.361 N 
HETATM   23  H   UNL     1      12.203  -6.884  11.549  1.00  0.00     0.162 HD
BRANCH  22  24
HETATM   24  C   UNL     1      12.371  -6.400  13.644  1.00  0.00     0.127 C 
BRANCH  24  25
HETATM   25  C   UNL     1      10.850  -6.404  13.767  1.00  0.00     0.058 C 
BRANCH  25  26
HETATM   26  C   UNL     1      10.388  -6.059  15.162  1.00  0.00    -0.054 A 
HETATM   27  C   UNL     1      10.149  -4.729  15.533  1.00  0.00     0.010 A 
HETATM   28  C   UNL     1       9.717  -4.432  16.833  1.00  0.00     0.040 A 
HETATM   29  C   UNL     1       9.519  -5.457  17.758  1.00  0.00     0.098 A 
HETATM   30  C   UNL     1       9.747  -6.776  17.389  1.00  0.00     0.099 A 
HETATM   31  C   UNL     1      10.193  -7.077  16.108  1.00  0.00     0.046 A 
BRANCH  29  32
HETATM   32  O   UNL     1       9.102  -5.211  19.038  1.00  0.00    -0.358 OA
HETATM   33  H   UNL     1       8.977  -4.254  19.158  1.00  0.00     0.217 HD
ENDBRANCH  29  32
BRANCH  30  34
HETATM   34  O   UNL     1       9.529  -7.807  18.256  1.00  0.00    -0.358 OA
HETATM   35  H   UNL     1       9.224  -7.388  19.083  1.00  0.00     0.217 HD
ENDBRANCH  30  34
ENDBRANCH  25  26
ENDBRANCH  24  25
ENDBRANCH  22  24
ENDBRANCH  19  20
ENDBRANCH   1  19
TORSDOF 19
