MODEL 1
REMARK VINA RESULT:      -8.7      0.000      0.000
REMARK  19 active torsions:
REMARK  status: ('A' for Active; 'I' for Inactive)
REMARK    1  A    between atoms: C_2  and  C_3 
REMARK    2  A    between atoms: C_3  and  C_4 
REMARK    3  A    between atoms: C_4  and  C_5 
REMARK    4  A    between atoms: C_5  and  C_6 
REMARK    5  A    between atoms: C_7  and  C_8 
REMARK    6  A    between atoms: C_8  and  C_9 
REMARK    7  A    between atoms: C_10  and  C_11 
REMARK    8  A    between atoms: C_11  and  C_12 
REMARK    9  A    between atoms: C_13  and  C_14 
REMARK   10  A    between atoms: C_14  and  C_15 
REMARK   11  A    between atoms: C_16  and  C_17 
REMARK   12  A    between atoms: C_17  and  C_18 
REMARK   13  A    between atoms: C_18  and  C_19 
REMARK   14  A    between atoms: C_19  and  C_20 
REMARK       I    between atoms: C_20  and  N_22 
REMARK   15  A    between atoms: N_22  and  C_23 
REMARK   16  A    between atoms: C_23  and  C_24 
REMARK   17  A    between atoms: C_24  and  C_25 
REMARK   18  A    between atoms: C_28  and  O_29 
REMARK   19  A    between atoms: C_30  and  O_31 
ROOT
HETATM    1  C   UNL     1     -21.858  -6.933  -3.985  1.00  0.00     0.013 C 
ENDROOT
BRANCH   1   2
HETATM    2  C   UNL     1     -21.811  -6.288  -2.602  1.00  0.00     0.027 C 
BRANCH   2   3
HETATM    3  C   UNL     1     -21.602  -7.311  -1.525  1.00  0.00    -0.030 C 
HETATM    4  C   UNL     1     -22.328  -7.326  -0.397  1.00  0.00    -0.027 C 
BRANCH   4   5
HETATM    5  C   UNL     1     -22.143  -8.347   0.683  1.00  0.00     0.053 C 
BRANCH   5   6
HETATM    6  C   UNL     1     -22.397  -9.737   0.182  1.00  0.00    -0.027 C 
HETATM    7  C   UNL     1     -23.614 -10.161  -0.195  1.00  0.00    -0.027 C 
BRANCH   7   8
HETATM    8  C   UNL     1     -23.880 -11.545  -0.697  1.00  0.00     0.053 C 
BRANCH   8   9
HETATM    9  C   UNL     1     -23.049 -11.861  -1.905  1.00  0.00    -0.027 C 
HETATM   10  C   UNL     1     -22.928 -11.036  -2.943  1.00  0.00    -0.027 C 
BRANCH  10  11
HETATM   11  C   UNL     1     -22.100 -11.348  -4.153  1.00  0.00     0.053 C 
BRANCH  11  12
HETATM   12  C   UNL     1     -20.940 -10.406  -4.271  1.00  0.00    -0.027 C 
HETATM   13  C   UNL     1     -20.094 -10.161  -3.275  1.00  0.00    -0.030 C 
BRANCH  13  14
HETATM   14  C   UNL     1     -18.937  -9.216  -3.395  1.00  0.00     0.027 C 
BRANCH  14  15
HETATM   15  C   UNL     1     -17.730  -9.745  -2.634  1.00  0.00     0.004 C 
BRANCH  15  16
HETATM   16  C   UNL     1     -16.482  -9.680  -3.506  1.00  0.00    -0.000 C 
BRANCH  16  17
HETATM   17  C   UNL     1     -16.678 -10.501  -4.777  1.00  0.00    -0.005 C 
HETATM   18  C   UNL     1     -15.886  -9.899  -5.921  1.00  0.00     0.005 C 
ENDBRANCH  16  17
ENDBRANCH  15  16
ENDBRANCH  14  15
ENDBRANCH  13  14
ENDBRANCH  11  12
ENDBRANCH  10  11
ENDBRANCH   8   9
ENDBRANCH   7   8
ENDBRANCH   5   6
ENDBRANCH   4   5
ENDBRANCH   2   3
ENDBRANCH   1   2
BRANCH   1  19
HETATM   19  C   UNL     1     -20.818  -6.348  -4.948  1.00  0.00     0.103 C 
BRANCH  19  20
HETATM   20  C   UNL     1     -21.484  -5.416  -5.949  1.00  0.00     0.217 C 
HETATM   21  O   UNL     1     -22.702  -5.336  -6.074  1.00  0.00    -0.274 OA
HETATM   22  N   UNL     1     -20.622  -4.660  -6.714  1.00  0.00    -0.361 N 
HETATM   23  H   UNL     1     -19.622  -4.716  -6.564  1.00  0.00     0.162 HD
BRANCH  22  24
HETATM   24  C   UNL     1     -21.174  -3.739  -7.699  1.00  0.00     0.127 C 
BRANCH  24  25
HETATM   25  C   UNL     1     -20.892  -4.141  -9.144  1.00  0.00     0.058 C 
BRANCH  25  26
HETATM   26  C   UNL     1     -22.040  -3.807 -10.065  1.00  0.00    -0.054 A 
HETATM   27  C   UNL     1     -21.828  -3.605 -11.436  1.00  0.00     0.010 A 
HETATM   28  C   UNL     1     -22.910  -3.300 -12.273  1.00  0.00     0.040 A 
HETATM   29  C   UNL     1     -24.198  -3.201 -11.748  1.00  0.00     0.098 A 
HETATM   30  C   UNL     1     -24.411  -3.409 -10.392  1.00  0.00     0.099 A 
HETATM   31  C   UNL     1     -23.341  -3.695  -9.552  1.00  0.00     0.046 A 
BRANCH  29  32
HETATM   32  O   UNL     1     -25.281  -2.901 -12.529  1.00  0.00    -0.358 OA
HETATM   33  H   UNL     1     -24.988  -2.392 -13.304  1.00  0.00     0.217 HD
ENDBRANCH  29  32
BRANCH  30  34
HETATM   34  O   UNL     1     -25.662  -3.357  -9.849  1.00  0.00    -0.358 OA
HETATM   35  H   UNL     1     -25.805  -4.234  -9.447  1.00  0.00     0.217 HD
ENDBRANCH  30  34
ENDBRANCH  25  26
ENDBRANCH  24  25
ENDBRANCH  22  24
ENDBRANCH  19  20
ENDBRANCH   1  19
TORSDOF 19
ENDMDL
MODEL 2
REMARK VINA RESULT:      -8.6      3.550      6.410
REMARK  19 active torsions:
REMARK  status: ('A' for Active; 'I' for Inactive)
REMARK    1  A    between atoms: C_2  and  C_3 
REMARK    2  A    between atoms: C_3  and  C_4 
REMARK    3  A    between atoms: C_4  and  C_5 
REMARK    4  A    between atoms: C_5  and  C_6 
REMARK    5  A    between atoms: C_7  and  C_8 
REMARK    6  A    between atoms: C_8  and  C_9 
REMARK    7  A    between atoms: C_10  and  C_11 
REMARK    8  A    between atoms: C_11  and  C_12 
REMARK    9  A    between atoms: C_13  and  C_14 
REMARK   10  A    between atoms: C_14  and  C_15 
REMARK   11  A    between atoms: C_16  and  C_17 
REMARK   12  A    between atoms: C_17  and  C_18 
REMARK   13  A    between atoms: C_18  and  C_19 
REMARK   14  A    between atoms: C_19  and  C_20 
REMARK       I    between atoms: C_20  and  N_22 
REMARK   15  A    between atoms: N_22  and  C_23 
REMARK   16  A    between atoms: C_23  and  C_24 
REMARK   17  A    between atoms: C_24  and  C_25 
REMARK   18  A    between atoms: C_28  and  O_29 
REMARK   19  A    between atoms: C_30  and  O_31 
ROOT
HETATM    1  C   UNL     1     -20.951  -7.236  -3.461  1.00  0.00     0.013 C 
ENDROOT
BRANCH   1   2
HETATM    2  C   UNL     1     -21.601  -6.068  -2.725  1.00  0.00     0.027 C 
BRANCH   2   3
HETATM    3  C   UNL     1     -22.297  -6.523  -1.476  1.00  0.00    -0.030 C 
HETATM    4  C   UNL     1     -21.796  -7.481  -0.682  1.00  0.00    -0.027 C 
BRANCH   4   5
HETATM    5  C   UNL     1     -22.470  -7.938   0.575  1.00  0.00     0.053 C 
BRANCH   5   6
HETATM    6  C   UNL     1     -23.385  -9.099   0.323  1.00  0.00    -0.027 C 
HETATM    7  C   UNL     1     -22.981 -10.221  -0.293  1.00  0.00    -0.027 C 
BRANCH   7   8
HETATM    8  C   UNL     1     -23.884 -11.387  -0.548  1.00  0.00     0.053 C 
BRANCH   8   9
HETATM    9  C   UNL     1     -23.694 -12.465   0.477  1.00  0.00    -0.027 C 
HETATM   10  C   UNL     1     -22.496 -12.878   0.886  1.00  0.00    -0.027 C 
BRANCH  10  11
HETATM   11  C   UNL     1     -22.300 -13.956   1.909  1.00  0.00     0.053 C 
BRANCH  11  12
HETATM   12  C   UNL     1     -23.600 -14.332   2.554  1.00  0.00    -0.027 C 
HETATM   13  C   UNL     1     -23.682 -14.919   3.744  1.00  0.00    -0.030 C 
BRANCH  13  14
HETATM   14  C   UNL     1     -24.984 -15.297   4.384  1.00  0.00     0.027 C 
BRANCH  14  15
HETATM   15  C   UNL     1     -24.763 -15.763   5.816  1.00  0.00     0.004 C 
BRANCH  15  16
HETATM   16  C   UNL     1     -25.930 -15.337   6.699  1.00  0.00    -0.000 C 
BRANCH  16  17
HETATM   17  C   UNL     1     -26.881 -14.431   5.923  1.00  0.00    -0.005 C 
HETATM   18  C   UNL     1     -28.315 -14.888   6.112  1.00  0.00     0.005 C 
ENDBRANCH  16  17
ENDBRANCH  15  16
ENDBRANCH  14  15
ENDBRANCH  13  14
ENDBRANCH  11  12
ENDBRANCH  10  11
ENDBRANCH   8   9
ENDBRANCH   7   8
ENDBRANCH   5   6
ENDBRANCH   4   5
ENDBRANCH   2   3
ENDBRANCH   1   2
BRANCH   1  19
HETATM   19  C   UNL     1     -21.716  -7.637  -4.728  1.00  0.00     0.103 C 
BRANCH  19  20
HETATM   20  C   UNL     1     -22.300  -6.409  -5.409  1.00  0.00     0.217 C 
HETATM   21  O   UNL     1     -23.428  -5.991  -5.170  1.00  0.00    -0.274 OA
HETATM   22  N   UNL     1     -21.471  -5.790  -6.320  1.00  0.00    -0.361 N 
HETATM   23  H   UNL     1     -20.529  -6.132  -6.469  1.00  0.00     0.162 HD
BRANCH  22  24
HETATM   24  C   UNL     1     -21.950  -4.605  -7.019  1.00  0.00     0.127 C 
BRANCH  24  25
HETATM   25  C   UNL     1     -21.283  -4.377  -8.373  1.00  0.00     0.058 C 
BRANCH  25  26
HETATM   26  C   UNL     1     -22.276  -3.987  -9.441  1.00  0.00    -0.054 A 
HETATM   27  C   UNL     1     -21.871  -3.811 -10.771  1.00  0.00     0.010 A 
HETATM   28  C   UNL     1     -22.811  -3.453 -11.747  1.00  0.00     0.040 A 
HETATM   29  C   UNL     1     -24.150  -3.277 -11.400  1.00  0.00     0.098 A 
HETATM   30  C   UNL     1     -24.555  -3.460 -10.085  1.00  0.00     0.099 A 
HETATM   31  C   UNL     1     -23.626  -3.797  -9.108  1.00  0.00     0.046 A 
BRANCH  29  32
HETATM   32  O   UNL     1     -25.099  -2.923 -12.321  1.00  0.00    -0.358 OA
HETATM   33  H   UNL     1     -25.567  -2.128 -12.013  1.00  0.00     0.217 HD
ENDBRANCH  29  32
BRANCH  30  34
HETATM   34  O   UNL     1     -25.862  -3.332  -9.716  1.00  0.00    -0.358 OA
HETATM   35  H   UNL     1     -26.375  -3.473 -10.534  1.00  0.00     0.217 HD
ENDBRANCH  30  34
ENDBRANCH  25  26
ENDBRANCH  24  25
ENDBRANCH  22  24
ENDBRANCH  19  20
ENDBRANCH   1  19
TORSDOF 19
ENDMDL
MODEL 3
REMARK VINA RESULT:      -8.2      1.513      2.369
REMARK  19 active torsions:
REMARK  status: ('A' for Active; 'I' for Inactive)
REMARK    1  A    between atoms: C_2  and  C_3 
REMARK    2  A    between atoms: C_3  and  C_4 
REMARK    3  A    between atoms: C_4  and  C_5 
REMARK    4  A    between atoms: C_5  and  C_6 
REMARK    5  A    between atoms: C_7  and  C_8 
REMARK    6  A    between atoms: C_8  and  C_9 
REMARK    7  A    between atoms: C_10  and  C_11 
REMARK    8  A    between atoms: C_11  and  C_12 
REMARK    9  A    between atoms: C_13  and  C_14 
REMARK   10  A    between atoms: C_14  and  C_15 
REMARK   11  A    between atoms: C_16  and  C_17 
REMARK   12  A    between atoms: C_17  and  C_18 
REMARK   13  A    between atoms: C_18  and  C_19 
REMARK   14  A    between atoms: C_19  and  C_20 
REMARK       I    between atoms: C_20  and  N_22 
REMARK   15  A    between atoms: N_22  and  C_23 
REMARK   16  A    between atoms: C_23  and  C_24 
REMARK   17  A    between atoms: C_24  and  C_25 
REMARK   18  A    between atoms: C_28  and  O_29 
REMARK   19  A    between atoms: C_30  and  O_31 
ROOT
HETATM    1  C   UNL     1     -22.010  -6.857  -4.354  1.00  0.00     0.013 C 
ENDROOT
BRANCH   1   2
HETATM    2  C   UNL     1     -21.452  -6.364  -3.021  1.00  0.00     0.027 C 
BRANCH   2   3
HETATM    3  C   UNL     1     -21.783  -7.308  -1.903  1.00  0.00    -0.030 C 
HETATM    4  C   UNL     1     -22.298  -6.889  -0.737  1.00  0.00    -0.027 C 
BRANCH   4   5
HETATM    5  C   UNL     1     -22.647  -7.818   0.384  1.00  0.00     0.053 C 
BRANCH   5   6
HETATM    6  C   UNL     1     -22.410  -9.251   0.012  1.00  0.00    -0.027 C 
HETATM    7  C   UNL     1     -21.456 -10.001   0.585  1.00  0.00    -0.027 C 
BRANCH   7   8
HETATM    8  C   UNL     1     -21.211 -11.432   0.224  1.00  0.00     0.053 C 
BRANCH   8   9
HETATM    9  C   UNL     1     -19.767 -11.679  -0.099  1.00  0.00    -0.027 C 
HETATM   10  C   UNL     1     -19.258 -12.896  -0.280  1.00  0.00    -0.027 C 
BRANCH  10  11
HETATM   11  C   UNL     1     -17.815 -13.147  -0.602  1.00  0.00     0.053 C 
BRANCH  11  12
HETATM   12  C   UNL     1     -17.087 -11.862  -0.859  1.00  0.00    -0.027 C 
HETATM   13  C   UNL     1     -16.301 -11.667  -1.914  1.00  0.00    -0.030 C 
BRANCH  13  14
HETATM   14  C   UNL     1     -15.571 -10.383  -2.166  1.00  0.00     0.027 C 
BRANCH  14  15
HETATM   15  C   UNL     1     -16.448  -9.408  -2.940  1.00  0.00     0.004 C 
BRANCH  15  16
HETATM   16  C   UNL     1     -17.204 -10.136  -4.044  1.00  0.00    -0.000 C 
BRANCH  16  17
HETATM   17  C   UNL     1     -18.570  -9.494  -4.267  1.00  0.00    -0.005 C 
HETATM   18  C   UNL     1     -19.405  -9.580  -3.004  1.00  0.00     0.005 C 
ENDBRANCH  16  17
ENDBRANCH  15  16
ENDBRANCH  14  15
ENDBRANCH  13  14
ENDBRANCH  11  12
ENDBRANCH  10  11
ENDBRANCH   8   9
ENDBRANCH   7   8
ENDBRANCH   5   6
ENDBRANCH   4   5
ENDBRANCH   2   3
ENDBRANCH   1   2
BRANCH   1  19
HETATM   19  C   UNL     1     -21.029  -6.657  -5.516  1.00  0.00     0.103 C 
BRANCH  19  20
HETATM   20  C   UNL     1     -21.474  -5.499  -6.395  1.00  0.00     0.217 C 
HETATM   21  O   UNL     1     -22.621  -5.065  -6.392  1.00  0.00    -0.274 OA
HETATM   22  N   UNL     1     -20.495  -4.962  -7.204  1.00  0.00    -0.361 N 
HETATM   23  H   UNL     1     -19.545  -5.313  -7.158  1.00  0.00     0.162 HD
BRANCH  22  24
HETATM   24  C   UNL     1     -20.833  -3.848  -8.079  1.00  0.00     0.127 C 
BRANCH  24  25
HETATM   25  C   UNL     1     -20.649  -4.152  -9.563  1.00  0.00     0.058 C 
BRANCH  25  26
HETATM   26  C   UNL     1     -21.877  -3.814 -10.373  1.00  0.00    -0.054 A 
HETATM   27  C   UNL     1     -21.793  -3.616 -11.758  1.00  0.00     0.010 A 
HETATM   28  C   UNL     1     -22.947  -3.306 -12.491  1.00  0.00     0.040 A 
HETATM   29  C   UNL     1     -24.180  -3.199 -11.848  1.00  0.00     0.098 A 
HETATM   30  C   UNL     1     -24.265  -3.403 -10.477  1.00  0.00     0.099 A 
HETATM   31  C   UNL     1     -23.123  -3.693  -9.740  1.00  0.00     0.046 A 
BRANCH  29  32
HETATM   32  O   UNL     1     -25.330  -2.894 -12.524  1.00  0.00    -0.358 OA
HETATM   33  H   UNL     1     -25.103  -2.515 -13.391  1.00  0.00     0.217 HD
ENDBRANCH  29  32
BRANCH  30  34
HETATM   34  O   UNL     1     -25.459  -3.342  -9.820  1.00  0.00    -0.358 OA
HETATM   35  H   UNL     1     -25.760  -4.268  -9.745  1.00  0.00     0.217 HD
ENDBRANCH  30  34
ENDBRANCH  25  26
ENDBRANCH  24  25
ENDBRANCH  22  24
ENDBRANCH  19  20
ENDBRANCH   1  19
TORSDOF 19
ENDMDL
MODEL 4
REMARK VINA RESULT:      -7.8      1.364      1.977
REMARK  19 active torsions:
REMARK  status: ('A' for Active; 'I' for Inactive)
REMARK    1  A    between atoms: C_2  and  C_3 
REMARK    2  A    between atoms: C_3  and  C_4 
REMARK    3  A    between atoms: C_4  and  C_5 
REMARK    4  A    between atoms: C_5  and  C_6 
REMARK    5  A    between atoms: C_7  and  C_8 
REMARK    6  A    between atoms: C_8  and  C_9 
REMARK    7  A    between atoms: C_10  and  C_11 
REMARK    8  A    between atoms: C_11  and  C_12 
REMARK    9  A    between atoms: C_13  and  C_14 
REMARK   10  A    between atoms: C_14  and  C_15 
REMARK   11  A    between atoms: C_16  and  C_17 
REMARK   12  A    between atoms: C_17  and  C_18 
REMARK   13  A    between atoms: C_18  and  C_19 
REMARK   14  A    between atoms: C_19  and  C_20 
REMARK       I    between atoms: C_20  and  N_22 
REMARK   15  A    between atoms: N_22  and  C_23 
REMARK   16  A    between atoms: C_23  and  C_24 
REMARK   17  A    between atoms: C_24  and  C_25 
REMARK   18  A    between atoms: C_28  and  O_29 
REMARK   19  A    between atoms: C_30  and  O_31 
ROOT
HETATM    1  C   UNL     1     -21.956  -6.915  -4.188  1.00  0.00     0.013 C 
ENDROOT
BRANCH   1   2
HETATM    2  C   UNL     1     -21.214  -6.475  -2.928  1.00  0.00     0.027 C 
BRANCH   2   3
HETATM    3  C   UNL     1     -21.610  -7.300  -1.740  1.00  0.00    -0.030 C 
HETATM    4  C   UNL     1     -22.561  -6.910  -0.878  1.00  0.00    -0.027 C 
BRANCH   4   5
HETATM    5  C   UNL     1     -22.978  -7.727   0.305  1.00  0.00     0.053 C 
BRANCH   5   6
HETATM    6  C   UNL     1     -22.638  -9.176   0.128  1.00  0.00    -0.027 C 
HETATM    7  C   UNL     1     -23.573 -10.131  -0.003  1.00  0.00    -0.027 C 
BRANCH   7   8
HETATM    8  C   UNL     1     -23.245 -11.580  -0.183  1.00  0.00     0.053 C 
BRANCH   8   9
HETATM    9  C   UNL     1     -21.859 -11.767  -0.722  1.00  0.00    -0.027 C 
HETATM   10  C   UNL     1     -20.869 -12.311  -0.016  1.00  0.00    -0.027 C 
BRANCH  10  11
HETATM   11  C   UNL     1     -19.481 -12.500  -0.550  1.00  0.00     0.053 C 
BRANCH  11  12
HETATM   12  C   UNL     1     -19.247 -11.645  -1.759  1.00  0.00    -0.027 C 
HETATM   13  C   UNL     1     -18.235 -10.789  -1.863  1.00  0.00    -0.030 C 
BRANCH  13  14
HETATM   14  C   UNL     1     -18.005  -9.933  -3.072  1.00  0.00     0.027 C 
BRANCH  14  15
HETATM   15  C   UNL     1     -16.520  -9.653  -3.258  1.00  0.00     0.004 C 
BRANCH  15  16
HETATM   16  C   UNL     1     -15.689 -10.797  -2.692  1.00  0.00    -0.000 C 
BRANCH  16  17
HETATM   17  C   UNL     1     -15.083 -11.624  -3.822  1.00  0.00    -0.005 C 
HETATM   18  C   UNL     1     -15.194 -10.879  -5.138  1.00  0.00     0.005 C 
ENDBRANCH  16  17
ENDBRANCH  15  16
ENDBRANCH  14  15
ENDBRANCH  13  14
ENDBRANCH  11  12
ENDBRANCH  10  11
ENDBRANCH   8   9
ENDBRANCH   7   8
ENDBRANCH   5   6
ENDBRANCH   4   5
ENDBRANCH   2   3
ENDBRANCH   1   2
BRANCH   1  19
HETATM   19  C   UNL     1     -21.091  -6.813  -5.451  1.00  0.00     0.103 C 
BRANCH  19  20
HETATM   20  C   UNL     1     -21.520  -5.623  -6.295  1.00  0.00     0.217 C 
HETATM   21  O   UNL     1     -22.628  -5.105  -6.199  1.00  0.00    -0.274 OA
HETATM   22  N   UNL     1     -20.574  -5.158  -7.184  1.00  0.00    -0.361 N 
HETATM   23  H   UNL     1     -19.653  -5.578  -7.215  1.00  0.00     0.162 HD
BRANCH  22  24
HETATM   24  C   UNL     1     -20.900  -4.021  -8.033  1.00  0.00     0.127 C 
BRANCH  24  25
HETATM   25  C   UNL     1     -20.593  -4.246  -9.510  1.00  0.00     0.058 C 
BRANCH  25  26
HETATM   26  C   UNL     1     -21.758  -3.881 -10.399  1.00  0.00    -0.054 A 
HETATM   27  C   UNL     1     -23.040  -3.693  -9.865  1.00  0.00     0.010 A 
HETATM   28  C   UNL     1     -24.106  -3.351 -10.708  1.00  0.00     0.040 A 
HETATM   29  C   UNL     1     -23.894  -3.191 -12.078  1.00  0.00     0.098 A 
HETATM   30  C   UNL     1     -22.622  -3.368 -12.607  1.00  0.00     0.099 A 
HETATM   31  C   UNL     1     -21.564  -3.726 -11.780  1.00  0.00     0.046 A 
BRANCH  29  32
HETATM   32  O   UNL     1     -24.907  -2.861 -12.937  1.00  0.00    -0.358 OA
HETATM   33  H   UNL     1     -24.875  -1.907 -13.121  1.00  0.00     0.217 HD
ENDBRANCH  29  32
BRANCH  30  34
HETATM   34  O   UNL     1     -22.370  -3.184 -13.935  1.00  0.00    -0.358 OA
HETATM   35  H   UNL     1     -22.811  -3.929 -14.386  1.00  0.00     0.217 HD
ENDBRANCH  30  34
ENDBRANCH  25  26
ENDBRANCH  24  25
ENDBRANCH  22  24
ENDBRANCH  19  20
ENDBRANCH   1  19
TORSDOF 19
ENDMDL
MODEL 5
REMARK VINA RESULT:      -7.8      2.132      2.973
REMARK  19 active torsions:
REMARK  status: ('A' for Active; 'I' for Inactive)
REMARK    1  A    between atoms: C_2  and  C_3 
REMARK    2  A    between atoms: C_3  and  C_4 
REMARK    3  A    between atoms: C_4  and  C_5 
REMARK    4  A    between atoms: C_5  and  C_6 
REMARK    5  A    between atoms: C_7  and  C_8 
REMARK    6  A    between atoms: C_8  and  C_9 
REMARK    7  A    between atoms: C_10  and  C_11 
REMARK    8  A    between atoms: C_11  and  C_12 
REMARK    9  A    between atoms: C_13  and  C_14 
REMARK   10  A    between atoms: C_14  and  C_15 
REMARK   11  A    between atoms: C_16  and  C_17 
REMARK   12  A    between atoms: C_17  and  C_18 
REMARK   13  A    between atoms: C_18  and  C_19 
REMARK   14  A    between atoms: C_19  and  C_20 
REMARK       I    between atoms: C_20  and  N_22 
REMARK   15  A    between atoms: N_22  and  C_23 
REMARK   16  A    between atoms: C_23  and  C_24 
REMARK   17  A    between atoms: C_24  and  C_25 
REMARK   18  A    between atoms: C_28  and  O_29 
REMARK   19  A    between atoms: C_30  and  O_31 
ROOT
HETATM    1  C   UNL     1     -21.619  -6.981  -4.752  1.00  0.00     0.013 C 
ENDROOT
BRANCH   1   2
HETATM    2  C   UNL     1     -21.213  -6.465  -3.373  1.00  0.00     0.027 C 
BRANCH   2   3
HETATM    3  C   UNL     1     -21.876  -7.246  -2.277  1.00  0.00    -0.030 C 
HETATM    4  C   UNL     1     -22.216  -6.691  -1.104  1.00  0.00    -0.027 C 
BRANCH   4   5
HETATM    5  C   UNL     1     -22.890  -7.451  -0.004  1.00  0.00     0.053 C 
BRANCH   5   6
HETATM    6  C   UNL     1     -22.112  -8.672   0.384  1.00  0.00    -0.027 C 
HETATM    7  C   UNL     1     -21.160  -8.656   1.331  1.00  0.00    -0.027 C 
BRANCH   7   8
HETATM    8  C   UNL     1     -20.379  -9.869   1.728  1.00  0.00     0.053 C 
BRANCH   8   9
HETATM    9  C   UNL     1     -20.567 -10.989   0.749  1.00  0.00    -0.027 C 
HETATM   10  C   UNL     1     -19.725 -11.231  -0.254  1.00  0.00    -0.027 C 
BRANCH  10  11
HETATM   11  C   UNL     1     -19.910 -12.348  -1.235  1.00  0.00     0.053 C 
BRANCH  11  12
HETATM   12  C   UNL     1     -20.369 -11.830  -2.565  1.00  0.00    -0.027 C 
HETATM   13  C   UNL     1     -21.532 -11.212  -2.745  1.00  0.00    -0.030 C 
BRANCH  13  14
HETATM   14  C   UNL     1     -21.991 -10.698  -4.076  1.00  0.00     0.027 C 
BRANCH  14  15
HETATM   15  C   UNL     1     -20.875 -10.802  -5.106  1.00  0.00     0.004 C 
BRANCH  15  16
HETATM   16  C   UNL     1     -21.425 -11.299  -6.437  1.00  0.00    -0.000 C 
BRANCH  16  17
HETATM   17  C   UNL     1     -20.557 -12.428  -6.984  1.00  0.00    -0.005 C 
HETATM   18  C   UNL     1     -21.337 -13.729  -7.007  1.00  0.00     0.005 C 
ENDBRANCH  16  17
ENDBRANCH  15  16
ENDBRANCH  14  15
ENDBRANCH  13  14
ENDBRANCH  11  12
ENDBRANCH  10  11
ENDBRANCH   8   9
ENDBRANCH   7   8
ENDBRANCH   5   6
ENDBRANCH   4   5
ENDBRANCH   2   3
ENDBRANCH   1   2
BRANCH   1  19
HETATM   19  C   UNL     1     -20.456  -6.978  -5.751  1.00  0.00     0.103 C 
BRANCH  19  20
HETATM   20  C   UNL     1     -20.540  -5.764  -6.663  1.00  0.00     0.217 C 
HETATM   21  O   UNL     1     -19.572  -5.324  -7.276  1.00  0.00    -0.274 OA
HETATM   22  N   UNL     1     -21.787  -5.184  -6.759  1.00  0.00    -0.361 N 
HETATM   23  H   UNL     1     -22.579  -5.590  -6.274  1.00  0.00     0.162 HD
BRANCH  22  24
HETATM   24  C   UNL     1     -21.959  -4.015  -7.612  1.00  0.00     0.127 C 
BRANCH  24  25
HETATM   25  C   UNL     1     -23.244  -4.037  -8.435  1.00  0.00     0.058 C 
BRANCH  25  26
HETATM   26  C   UNL     1     -22.987  -3.797  -9.903  1.00  0.00    -0.054 A 
HETATM   27  C   UNL     1     -21.749  -4.116 -10.478  1.00  0.00     0.010 A 
HETATM   28  C   UNL     1     -21.533  -3.888 -11.844  1.00  0.00     0.040 A 
HETATM   29  C   UNL     1     -22.549  -3.351 -12.635  1.00  0.00     0.098 A 
HETATM   30  C   UNL     1     -23.778  -3.043 -12.068  1.00  0.00     0.099 A 
HETATM   31  C   UNL     1     -23.994  -3.249 -10.711  1.00  0.00     0.046 A 
BRANCH  29  32
HETATM   32  O   UNL     1     -22.379  -3.109 -13.972  1.00  0.00    -0.358 OA
HETATM   33  H   UNL     1     -23.084  -3.555 -14.472  1.00  0.00     0.217 HD
ENDBRANCH  29  32
BRANCH  30  34
HETATM   34  O   UNL     1     -24.806  -2.550 -12.818  1.00  0.00    -0.358 OA
HETATM   35  H   UNL     1     -25.243  -3.334 -13.204  1.00  0.00     0.217 HD
ENDBRANCH  30  34
ENDBRANCH  25  26
ENDBRANCH  24  25
ENDBRANCH  22  24
ENDBRANCH  19  20
ENDBRANCH   1  19
TORSDOF 19
ENDMDL
MODEL 6
REMARK VINA RESULT:      -7.8      2.000      2.580
REMARK  19 active torsions:
REMARK  status: ('A' for Active; 'I' for Inactive)
REMARK    1  A    between atoms: C_2  and  C_3 
REMARK    2  A    between atoms: C_3  and  C_4 
REMARK    3  A    between atoms: C_4  and  C_5 
REMARK    4  A    between atoms: C_5  and  C_6 
REMARK    5  A    between atoms: C_7  and  C_8 
REMARK    6  A    between atoms: C_8  and  C_9 
REMARK    7  A    between atoms: C_10  and  C_11 
REMARK    8  A    between atoms: C_11  and  C_12 
REMARK    9  A    between atoms: C_13  and  C_14 
REMARK   10  A    between atoms: C_14  and  C_15 
REMARK   11  A    between atoms: C_16  and  C_17 
REMARK   12  A    between atoms: C_17  and  C_18 
REMARK   13  A    between atoms: C_18  and  C_19 
REMARK   14  A    between atoms: C_19  and  C_20 
REMARK       I    between atoms: C_20  and  N_22 
REMARK   15  A    between atoms: N_22  and  C_23 
REMARK   16  A    between atoms: C_23  and  C_24 
REMARK   17  A    between atoms: C_24  and  C_25 
REMARK   18  A    between atoms: C_28  and  O_29 
REMARK   19  A    between atoms: C_30  and  O_31 
ROOT
HETATM    1  C   UNL     1     -21.878  -6.766  -3.809  1.00  0.00     0.013 C 
ENDROOT
BRANCH   1   2
HETATM    2  C   UNL     1     -21.624  -6.201  -2.414  1.00  0.00     0.027 C 
BRANCH   2   3
HETATM    3  C   UNL     1     -21.656  -7.277  -1.370  1.00  0.00    -0.030 C 
HETATM    4  C   UNL     1     -22.596  -7.324  -0.414  1.00  0.00    -0.027 C 
BRANCH   4   5
HETATM    5  C   UNL     1     -22.651  -8.398   0.628  1.00  0.00     0.053 C 
BRANCH   5   6
HETATM    6  C   UNL     1     -22.418  -9.756   0.038  1.00  0.00    -0.027 C 
HETATM    7  C   UNL     1     -23.335 -10.388  -0.714  1.00  0.00    -0.027 C 
BRANCH   7   8
HETATM    8  C   UNL     1     -23.114 -11.743  -1.309  1.00  0.00     0.053 C 
BRANCH   8   9
HETATM    9  C   UNL     1     -22.355 -11.659  -2.600  1.00  0.00    -0.027 C 
HETATM   10  C   UNL     1     -22.425 -10.612  -3.420  1.00  0.00    -0.027 C 
BRANCH  10  11
HETATM   11  C   UNL     1     -21.670 -10.525  -4.712  1.00  0.00     0.053 C 
BRANCH  11  12
HETATM   12  C   UNL     1     -21.269 -11.885  -5.197  1.00  0.00    -0.027 C 
HETATM   13  C   UNL     1     -21.891 -12.520  -6.186  1.00  0.00    -0.030 C 
BRANCH  13  14
HETATM   14  C   UNL     1     -21.491 -13.882  -6.667  1.00  0.00     0.027 C 
BRANCH  14  15
HETATM   15  C   UNL     1     -19.979 -13.977  -6.817  1.00  0.00     0.004 C 
BRANCH  15  16
HETATM   16  C   UNL     1     -19.617 -14.630  -8.146  1.00  0.00    -0.000 C 
BRANCH  16  17
HETATM   17  C   UNL     1     -18.746 -13.695  -8.979  1.00  0.00    -0.005 C 
HETATM   18  C   UNL     1     -18.494 -12.401  -8.229  1.00  0.00     0.005 C 
ENDBRANCH  16  17
ENDBRANCH  15  16
ENDBRANCH  14  15
ENDBRANCH  13  14
ENDBRANCH  11  12
ENDBRANCH  10  11
ENDBRANCH   8   9
ENDBRANCH   7   8
ENDBRANCH   5   6
ENDBRANCH   4   5
ENDBRANCH   2   3
ENDBRANCH   1   2
BRANCH   1  19
HETATM   19  C   UNL     1     -20.827  -6.317  -4.832  1.00  0.00     0.103 C 
BRANCH  19  20
HETATM   20  C   UNL     1     -21.462  -5.437  -5.897  1.00  0.00     0.217 C 
HETATM   21  O   UNL     1     -22.675  -5.370  -6.067  1.00  0.00    -0.274 OA
HETATM   22  N   UNL     1     -20.578  -4.711  -6.667  1.00  0.00    -0.361 N 
HETATM   23  H   UNL     1     -19.583  -4.754  -6.480  1.00  0.00     0.162 HD
BRANCH  22  24
HETATM   24  C   UNL     1     -21.101  -3.841  -7.712  1.00  0.00     0.127 C 
BRANCH  24  25
HETATM   25  C   UNL     1     -20.786  -4.320  -9.127  1.00  0.00     0.058 C 
BRANCH  25  26
HETATM   26  C   UNL     1     -21.807  -3.846 -10.132  1.00  0.00    -0.054 A 
HETATM   27  C   UNL     1     -21.438  -3.556 -11.452  1.00  0.00     0.010 A 
HETATM   28  C   UNL     1     -22.404  -3.121 -12.369  1.00  0.00     0.040 A 
HETATM   29  C   UNL     1     -23.734  -2.979 -11.974  1.00  0.00     0.098 A 
HETATM   30  C   UNL     1     -24.103  -3.274 -10.668  1.00  0.00     0.099 A 
HETATM   31  C   UNL     1     -23.148  -3.689  -9.748  1.00  0.00     0.046 A 
BRANCH  29  32
HETATM   32  O   UNL     1     -24.708  -2.553 -12.836  1.00  0.00    -0.358 OA
HETATM   33  H   UNL     1     -24.434  -2.740 -13.750  1.00  0.00     0.217 HD
ENDBRANCH  29  32
BRANCH  30  34
HETATM   34  O   UNL     1     -25.400  -3.182 -10.255  1.00  0.00    -0.358 OA
HETATM   35  H   UNL     1     -25.719  -2.324 -10.595  1.00  0.00     0.217 HD
ENDBRANCH  30  34
ENDBRANCH  25  26
ENDBRANCH  24  25
ENDBRANCH  22  24
ENDBRANCH  19  20
ENDBRANCH   1  19
TORSDOF 19
ENDMDL
MODEL 7
REMARK VINA RESULT:      -7.7      1.269      2.189
REMARK  19 active torsions:
REMARK  status: ('A' for Active; 'I' for Inactive)
REMARK    1  A    between atoms: C_2  and  C_3 
REMARK    2  A    between atoms: C_3  and  C_4 
REMARK    3  A    between atoms: C_4  and  C_5 
REMARK    4  A    between atoms: C_5  and  C_6 
REMARK    5  A    between atoms: C_7  and  C_8 
REMARK    6  A    between atoms: C_8  and  C_9 
REMARK    7  A    between atoms: C_10  and  C_11 
REMARK    8  A    between atoms: C_11  and  C_12 
REMARK    9  A    between atoms: C_13  and  C_14 
REMARK   10  A    between atoms: C_14  and  C_15 
REMARK   11  A    between atoms: C_16  and  C_17 
REMARK   12  A    between atoms: C_17  and  C_18 
REMARK   13  A    between atoms: C_18  and  C_19 
REMARK   14  A    between atoms: C_19  and  C_20 
REMARK       I    between atoms: C_20  and  N_22 
REMARK   15  A    between atoms: N_22  and  C_23 
REMARK   16  A    between atoms: C_23  and  C_24 
REMARK   17  A    between atoms: C_24  and  C_25 
REMARK   18  A    between atoms: C_28  and  O_29 
REMARK   19  A    between atoms: C_30  and  O_31 
ROOT
HETATM    1  C   UNL     1     -20.299  -5.769  -4.901  1.00  0.00     0.013 C 
ENDROOT
BRANCH   1   2
HETATM    2  C   UNL     1     -21.674  -6.427  -4.969  1.00  0.00     0.027 C 
BRANCH   2   3
HETATM    3  C   UNL     1     -22.249  -6.645  -3.600  1.00  0.00    -0.030 C 
HETATM    4  C   UNL     1     -21.666  -6.167  -2.491  1.00  0.00    -0.027 C 
BRANCH   4   5
HETATM    5  C   UNL     1     -22.232  -6.364  -1.119  1.00  0.00     0.053 C 
BRANCH   5   6
HETATM    6  C   UNL     1     -22.268  -7.812  -0.735  1.00  0.00    -0.027 C 
HETATM    7  C   UNL     1     -21.359  -8.370   0.081  1.00  0.00    -0.027 C 
BRANCH   7   8
HETATM    8  C   UNL     1     -21.386  -9.814   0.472  1.00  0.00     0.053 C 
BRANCH   8   9
HETATM    9  C   UNL     1     -21.604 -10.702  -0.717  1.00  0.00    -0.027 C 
HETATM   10  C   UNL     1     -22.793 -10.870  -1.292  1.00  0.00    -0.027 C 
BRANCH  10  11
HETATM   11  C   UNL     1     -23.017 -11.758  -2.479  1.00  0.00     0.053 C 
BRANCH  11  12
HETATM   12  C   UNL     1     -22.288 -11.243  -3.684  1.00  0.00    -0.027 C 
HETATM   13  C   UNL     1     -21.289 -11.897  -4.267  1.00  0.00    -0.030 C 
BRANCH  13  14
HETATM   14  C   UNL     1     -20.559 -11.378  -5.469  1.00  0.00     0.027 C 
BRANCH  14  15
HETATM   15  C   UNL     1     -19.221 -10.775  -5.067  1.00  0.00     0.004 C 
BRANCH  15  16
HETATM   16  C   UNL     1     -19.376  -9.289  -4.767  1.00  0.00    -0.000 C 
BRANCH  16  17
HETATM   17  C   UNL     1     -19.353  -9.045  -3.261  1.00  0.00    -0.005 C 
HETATM   18  C   UNL     1     -18.419 -10.028  -2.582  1.00  0.00     0.005 C 
ENDBRANCH  16  17
ENDBRANCH  15  16
ENDBRANCH  14  15
ENDBRANCH  13  14
ENDBRANCH  11  12
ENDBRANCH  10  11
ENDBRANCH   8   9
ENDBRANCH   7   8
ENDBRANCH   5   6
ENDBRANCH   4   5
ENDBRANCH   2   3
ENDBRANCH   1   2
BRANCH   1  19
HETATM   19  C   UNL     1     -20.251  -4.418  -5.626  1.00  0.00     0.103 C 
BRANCH  19  20
HETATM   20  C   UNL     1     -20.925  -4.520  -6.986  1.00  0.00     0.217 C 
HETATM   21  O   UNL     1     -22.103  -4.229  -7.167  1.00  0.00    -0.274 OA
HETATM   22  N   UNL     1     -20.118  -4.964  -8.012  1.00  0.00    -0.361 N 
HETATM   23  H   UNL     1     -19.139  -5.160  -7.844  1.00  0.00     0.162 HD
BRANCH  22  24
HETATM   24  C   UNL     1     -20.682  -5.091  -9.349  1.00  0.00     0.127 C 
BRANCH  24  25
HETATM   25  C   UNL     1     -20.624  -3.805 -10.167  1.00  0.00     0.058 C 
BRANCH  25  26
HETATM   26  C   UNL     1     -21.910  -3.542 -10.912  1.00  0.00    -0.054 A 
HETATM   27  C   UNL     1     -21.911  -3.343 -12.299  1.00  0.00     0.010 A 
HETATM   28  C   UNL     1     -23.118  -3.104 -12.971  1.00  0.00     0.040 A 
HETATM   29  C   UNL     1     -24.320  -3.069 -12.264  1.00  0.00     0.098 A 
HETATM   30  C   UNL     1     -24.321  -3.275 -10.891  1.00  0.00     0.099 A 
HETATM   31  C   UNL     1     -23.127  -3.494 -10.215  1.00  0.00     0.046 A 
BRANCH  29  32
HETATM   32  O   UNL     1     -25.519  -2.835 -12.880  1.00  0.00    -0.358 OA
HETATM   33  H   UNL     1     -26.213  -3.360 -12.444  1.00  0.00     0.217 HD
ENDBRANCH  29  32
BRANCH  30  34
HETATM   34  O   UNL     1     -25.481  -3.284 -10.173  1.00  0.00    -0.358 OA
HETATM   35  H   UNL     1     -26.153  -3.659 -10.773  1.00  0.00     0.217 HD
ENDBRANCH  30  34
ENDBRANCH  25  26
ENDBRANCH  24  25
ENDBRANCH  22  24
ENDBRANCH  19  20
ENDBRANCH   1  19
TORSDOF 19
ENDMDL
MODEL 8
REMARK VINA RESULT:      -7.0      1.813      2.704
REMARK  19 active torsions:
REMARK  status: ('A' for Active; 'I' for Inactive)
REMARK    1  A    between atoms: C_2  and  C_3 
REMARK    2  A    between atoms: C_3  and  C_4 
REMARK    3  A    between atoms: C_4  and  C_5 
REMARK    4  A    between atoms: C_5  and  C_6 
REMARK    5  A    between atoms: C_7  and  C_8 
REMARK    6  A    between atoms: C_8  and  C_9 
REMARK    7  A    between atoms: C_10  and  C_11 
REMARK    8  A    between atoms: C_11  and  C_12 
REMARK    9  A    between atoms: C_13  and  C_14 
REMARK   10  A    between atoms: C_14  and  C_15 
REMARK   11  A    between atoms: C_16  and  C_17 
REMARK   12  A    between atoms: C_17  and  C_18 
REMARK   13  A    between atoms: C_18  and  C_19 
REMARK   14  A    between atoms: C_19  and  C_20 
REMARK       I    between atoms: C_20  and  N_22 
REMARK   15  A    between atoms: N_22  and  C_23 
REMARK   16  A    between atoms: C_23  and  C_24 
REMARK   17  A    between atoms: C_24  and  C_25 
REMARK   18  A    between atoms: C_28  and  O_29 
REMARK   19  A    between atoms: C_30  and  O_31 
ROOT
HETATM    1  C   UNL     1     -20.806  -7.523  -2.257  1.00  0.00     0.013 C 
ENDROOT
BRANCH   1   2
HETATM    2  C   UNL     1     -21.239  -7.991  -0.870  1.00  0.00     0.027 C 
BRANCH   2   3
HETATM    3  C   UNL     1     -22.244  -9.102  -0.953  1.00  0.00    -0.030 C 
HETATM    4  C   UNL     1     -23.090  -9.382   0.050  1.00  0.00    -0.027 C 
BRANCH   4   5
HETATM    5  C   UNL     1     -24.108 -10.478  -0.021  1.00  0.00     0.053 C 
BRANCH   5   6
HETATM    6  C   UNL     1     -23.716 -11.538  -1.005  1.00  0.00    -0.027 C 
HETATM    7  C   UNL     1     -23.002 -12.621  -0.659  1.00  0.00    -0.027 C 
BRANCH   7   8
HETATM    8  C   UNL     1     -22.606 -13.687  -1.632  1.00  0.00     0.053 C 
BRANCH   8   9
HETATM    9  C   UNL     1     -21.178 -13.534  -2.062  1.00  0.00    -0.027 C 
HETATM   10  C   UNL     1     -20.320 -12.707  -1.467  1.00  0.00    -0.027 C 
BRANCH  10  11
HETATM   11  C   UNL     1     -18.893 -12.551  -1.895  1.00  0.00     0.053 C 
BRANCH  11  12
HETATM   12  C   UNL     1     -18.626 -11.161  -2.389  1.00  0.00    -0.027 C 
HETATM   13  C   UNL     1     -18.809 -10.787  -3.651  1.00  0.00    -0.030 C 
BRANCH  13  14
HETATM   14  C   UNL     1     -18.537  -9.397  -4.143  1.00  0.00     0.027 C 
BRANCH  14  15
HETATM   15  C   UNL     1     -18.282  -9.398  -5.644  1.00  0.00     0.004 C 
BRANCH  15  16
HETATM   16  C   UNL     1     -17.203 -10.414  -5.998  1.00  0.00    -0.000 C 
BRANCH  16  17
HETATM   17  C   UNL     1     -15.855  -9.979  -5.431  1.00  0.00    -0.005 C 
HETATM   18  C   UNL     1     -15.092 -11.180  -4.906  1.00  0.00     0.005 C 
ENDBRANCH  16  17
ENDBRANCH  15  16
ENDBRANCH  14  15
ENDBRANCH  13  14
ENDBRANCH  11  12
ENDBRANCH  10  11
ENDBRANCH   8   9
ENDBRANCH   7   8
ENDBRANCH   5   6
ENDBRANCH   4   5
ENDBRANCH   2   3
ENDBRANCH   1   2
BRANCH   1  19
HETATM   19  C   UNL     1     -21.649  -6.351  -2.776  1.00  0.00     0.103 C 
BRANCH  19  20
HETATM   20  C   UNL     1     -21.674  -6.346  -4.297  1.00  0.00     0.217 C 
HETATM   21  O   UNL     1     -22.413  -7.073  -4.952  1.00  0.00    -0.274 OA
HETATM   22  N   UNL     1     -20.803  -5.461  -4.898  1.00  0.00    -0.361 N 
HETATM   23  H   UNL     1     -20.232  -4.843  -4.333  1.00  0.00     0.162 HD
BRANCH  22  24
HETATM   24  C   UNL     1     -20.761  -5.389  -6.352  1.00  0.00     0.127 C 
BRANCH  24  25
HETATM   25  C   UNL     1     -21.199  -4.040  -6.915  1.00  0.00     0.058 C 
BRANCH  25  26
HETATM   26  C   UNL     1     -21.581  -4.126  -8.373  1.00  0.00    -0.054 A 
HETATM   27  C   UNL     1     -22.914  -4.316  -8.758  1.00  0.00     0.010 A 
HETATM   28  C   UNL     1     -23.246  -4.389 -10.118  1.00  0.00     0.040 A 
HETATM   29  C   UNL     1     -22.254  -4.268 -11.090  1.00  0.00     0.098 A 
HETATM   30  C   UNL     1     -20.933  -4.072 -10.710  1.00  0.00     0.099 A 
HETATM   31  C   UNL     1     -20.593  -4.016  -9.364  1.00  0.00     0.046 A 
BRANCH  29  32
HETATM   32  O   UNL     1     -22.533  -4.338 -12.428  1.00  0.00    -0.358 OA
HETATM   33  H   UNL     1     -22.137  -3.574 -12.881  1.00  0.00     0.217 HD
ENDBRANCH  29  32
BRANCH  30  34
HETATM   34  O   UNL     1     -19.941  -3.913 -11.634  1.00  0.00    -0.358 OA
HETATM   35  H   UNL     1     -19.670  -4.818 -11.879  1.00  0.00     0.217 HD
ENDBRANCH  30  34
ENDBRANCH  25  26
ENDBRANCH  24  25
ENDBRANCH  22  24
ENDBRANCH  19  20
ENDBRANCH   1  19
TORSDOF 19
ENDMDL
MODEL 9
REMARK VINA RESULT:      -6.9      2.072      5.429
REMARK  19 active torsions:
REMARK  status: ('A' for Active; 'I' for Inactive)
REMARK    1  A    between atoms: C_2  and  C_3 
REMARK    2  A    between atoms: C_3  and  C_4 
REMARK    3  A    between atoms: C_4  and  C_5 
REMARK    4  A    between atoms: C_5  and  C_6 
REMARK    5  A    between atoms: C_7  and  C_8 
REMARK    6  A    between atoms: C_8  and  C_9 
REMARK    7  A    between atoms: C_10  and  C_11 
REMARK    8  A    between atoms: C_11  and  C_12 
REMARK    9  A    between atoms: C_13  and  C_14 
REMARK   10  A    between atoms: C_14  and  C_15 
REMARK   11  A    between atoms: C_16  and  C_17 
REMARK   12  A    between atoms: C_17  and  C_18 
REMARK   13  A    between atoms: C_18  and  C_19 
REMARK   14  A    between atoms: C_19  and  C_20 
REMARK       I    between atoms: C_20  and  N_22 
REMARK   15  A    between atoms: N_22  and  C_23 
REMARK   16  A    between atoms: C_23  and  C_24 
REMARK   17  A    between atoms: C_24  and  C_25 
REMARK   18  A    between atoms: C_28  and  O_29 
REMARK   19  A    between atoms: C_30  and  O_31 
ROOT
HETATM    1  C   UNL     1     -20.522  -7.813  -3.703  1.00  0.00     0.013 C 
ENDROOT
BRANCH   1   2
HETATM    2  C   UNL     1     -19.887  -9.178  -3.450  1.00  0.00     0.027 C 
BRANCH   2   3
HETATM    3  C   UNL     1     -18.498  -9.252  -4.012  1.00  0.00    -0.030 C 
HETATM    4  C   UNL     1     -18.246  -9.710  -5.248  1.00  0.00    -0.027 C 
BRANCH   4   5
HETATM    5  C   UNL     1     -16.868  -9.778  -5.830  1.00  0.00     0.053 C 
BRANCH   5   6
HETATM    6  C   UNL     1     -15.858 -10.224  -4.816  1.00  0.00    -0.027 C 
HETATM    7  C   UNL     1     -15.759 -11.498  -4.402  1.00  0.00    -0.027 C 
BRANCH   7   8
HETATM    8  C   UNL     1     -14.755 -11.955  -3.392  1.00  0.00     0.053 C 
BRANCH   8   9
HETATM    9  C   UNL     1     -15.416 -12.392  -2.118  1.00  0.00    -0.027 C 
HETATM   10  C   UNL     1     -16.249 -11.617  -1.426  1.00  0.00    -0.027 C 
BRANCH  10  11
HETATM   11  C   UNL     1     -16.910 -12.048  -0.152  1.00  0.00     0.053 C 
BRANCH  11  12
HETATM   12  C   UNL     1     -18.382 -12.256  -0.350  1.00  0.00    -0.027 C 
HETATM   13  C   UNL     1     -19.262 -11.260  -0.380  1.00  0.00    -0.030 C 
BRANCH  13  14
HETATM   14  C   UNL     1     -20.733 -11.471  -0.574  1.00  0.00     0.027 C 
BRANCH  14  15
HETATM   15  C   UNL     1     -21.402 -11.836   0.743  1.00  0.00     0.004 C 
BRANCH  15  16
HETATM   16  C   UNL     1     -22.014 -13.229   0.661  1.00  0.00    -0.000 C 
BRANCH  16  17
HETATM   17  C   UNL     1     -23.387 -13.247   1.325  1.00  0.00    -0.005 C 
HETATM   18  C   UNL     1     -23.385 -14.190   2.512  1.00  0.00     0.005 C 
ENDBRANCH  16  17
ENDBRANCH  15  16
ENDBRANCH  14  15
ENDBRANCH  13  14
ENDBRANCH  11  12
ENDBRANCH  10  11
ENDBRANCH   8   9
ENDBRANCH   7   8
ENDBRANCH   5   6
ENDBRANCH   4   5
ENDBRANCH   2   3
ENDBRANCH   1   2
BRANCH   1  19
HETATM   19  C   UNL     1     -21.426  -7.802  -4.942  1.00  0.00     0.103 C 
BRANCH  19  20
HETATM   20  C   UNL     1     -20.990  -6.713  -5.910  1.00  0.00     0.217 C 
HETATM   21  O   UNL     1     -19.895  -6.715  -6.463  1.00  0.00    -0.274 OA
HETATM   22  N   UNL     1     -21.914  -5.713  -6.129  1.00  0.00    -0.361 N 
HETATM   23  H   UNL     1     -22.826  -5.756  -5.691  1.00  0.00     0.162 HD
BRANCH  22  24
HETATM   24  C   UNL     1     -21.579  -4.629  -7.043  1.00  0.00     0.127 C 
BRANCH  24  25
HETATM   25  C   UNL     1     -21.275  -5.093  -8.464  1.00  0.00     0.058 C 
BRANCH  25  26
HETATM   26  C   UNL     1     -22.173  -4.436  -9.484  1.00  0.00    -0.054 A 
HETATM   27  C   UNL     1     -21.702  -4.133 -10.769  1.00  0.00     0.010 A 
HETATM   28  C   UNL     1     -22.555  -3.526 -11.702  1.00  0.00     0.040 A 
HETATM   29  C   UNL     1     -23.873  -3.227 -11.357  1.00  0.00     0.098 A 
HETATM   30  C   UNL     1     -24.343  -3.535 -10.087  1.00  0.00     0.099 A 
HETATM   31  C   UNL     1     -23.499  -4.120  -9.151  1.00  0.00     0.046 A 
BRANCH  29  32
HETATM   32  O   UNL     1     -24.737  -2.632 -12.235  1.00  0.00    -0.358 OA
HETATM   33  H   UNL     1     -25.629  -2.613 -11.847  1.00  0.00     0.217 HD
ENDBRANCH  29  32
BRANCH  30  34
HETATM   34  O   UNL     1     -25.636  -3.290  -9.727  1.00  0.00    -0.358 OA
HETATM   35  H   UNL     1     -25.649  -2.361  -9.428  1.00  0.00     0.217 HD
ENDBRANCH  30  34
ENDBRANCH  25  26
ENDBRANCH  24  25
ENDBRANCH  22  24
ENDBRANCH  19  20
ENDBRANCH   1  19
TORSDOF 19
ENDMDL
