REMARK  7 active torsions:
REMARK  status: ('A' for Active; 'I' for Inactive)
REMARK    1  A    between atoms: C_5  and  C_7 
REMARK    2  A    between atoms: C_7  and  C_8 
REMARK    3  A    between atoms: C_8  and  C_9 
REMARK    4  A    between atoms: C_9  and  C_10 
REMARK    5  A    between atoms: C_9  and  N_13 
REMARK       I    between atoms: N_13  and  C_14 
REMARK    6  A    between atoms: C_14  and  C_16 
REMARK    7  A    between atoms: C_16  and  N_18 
ROOT
HETATM    1  H           1       0.010   1.137  -0.945  0.00  0.00     0.163 HD
HETATM    2  N           1       0.004   0.468  -0.186  0.00  0.00    -0.345 N 
HETATM    3  C           1      -0.891   0.605   0.840  0.00  0.00     0.248 C 
HETATM    4  O           1      -0.898  -0.194   1.746  0.00  0.00    -0.271 OA
ENDROOT
BRANCH   2   5
HETATM    5  C           1       0.945  -0.635  -0.185  0.00  0.00     0.186 C 
BRANCH   5   6
HETATM    6  C           1       1.821  -0.556  -1.429  0.00  0.00     0.046 C 
BRANCH   6   7
HETATM    7  C           1       2.810  -1.714  -1.429  0.00  0.00     0.116 C 
BRANCH   7   8
HETATM    8  C           1       2.055  -3.021  -1.429  0.00  0.00     0.172 C 
HETATM    9  O           1       0.805  -3.021  -1.429  0.00  0.00    -0.648 OA
HETATM   10  O           1       2.680  -4.103  -1.429  0.00  0.00    -0.648 OA
ENDBRANCH   7   8
ENDBRANCH   6   7
ENDBRANCH   5   6
BRANCH   5  11
HETATM   11  C           1       1.812  -0.556   1.047  0.00  0.00     0.196 C 
HETATM   12  O           1       1.290  -0.603   2.182  0.00  0.00    -0.646 OA
HETATM   13  O           1       3.051  -0.443   0.934  0.00  0.00    -0.646 OA
ENDBRANCH   5  11
ENDBRANCH   2   5
BRANCH   3  14
HETATM   14  C           1      -1.870   1.753   0.839  0.00  0.00     0.270 C 
HETATM   15  C           1      -2.747   1.675   2.082  0.00  0.00     0.050 C 
BRANCH  14  16
HETATM   16  N           1      -2.732   1.674  -0.386  0.00  0.00    -0.067 N 
HETATM   17  H           1      -3.256   0.769  -0.385  0.00  0.00     0.275 HD
HETATM   18  H           1      -2.131   1.728  -1.239  0.00  0.00     0.275 HD
HETATM   19  H           1      -3.411   2.469  -0.387  0.00  0.00     0.275 HD
ENDBRANCH  14  16
ENDBRANCH   3  14
TORSDOF 7
