REMARK  7 active torsions:
REMARK  status: ('A' for Active; 'I' for Inactive)
REMARK    1  A    between atoms: C_2  and  C_12 
REMARK    2  A    between atoms: C_4  and  C_16 
REMARK    3  A    between atoms: C_4  and  N_21 
REMARK    4  A    between atoms: O_5  and  C_6 
REMARK    5  A    between atoms: C_10  and  C_11 
REMARK    6  A    between atoms: C_11  and  C_12 
REMARK    7  A    between atoms: C_11  and  N_17 
REMARK       I    between atoms: C_16  and  N_17 
ROOT
HETATM    1  C           1      -0.386  -1.306  -0.774  0.00  0.00     0.189 C 
ENDROOT
BRANCH   1   2
HETATM    2  C           1      -1.244  -2.472  -1.201  0.00  0.00     0.197 C 
HETATM    3  O           1      -2.474  -2.317  -1.362  0.00  0.00    -0.646 OA
HETATM    4  O           1      -0.725  -3.593  -1.393  0.00  0.00    -0.646 OA
ENDBRANCH   1   2
BRANCH   1   5
HETATM    5  C           1       1.063  -1.760  -0.651  0.00  0.00     0.074 C 
BRANCH   5   6
HETATM    6  C           1       1.973  -0.611  -0.955  0.00  0.00    -0.056 A 
HETATM    7  C           1       1.438   0.634  -1.288  0.00  0.00     0.010 A 
HETATM    8  C           1       2.287   1.704  -1.572  0.00  0.00     0.037 A 
HETATM    9  C           1       3.670   1.529  -1.523  0.00  0.00     0.065 A 
HETATM   10  C           1       4.205   0.285  -1.191  0.00  0.00     0.037 A 
HETATM   11  C           1       3.356  -0.786  -0.907  0.00  0.00     0.010 A 
BRANCH   9  12
HETATM   12  O           1       4.494   2.569  -1.799  0.00  0.00    -0.361 OA
HETATM   13  H           1       3.943   3.342  -2.006  0.00  0.00     0.217 HD
ENDBRANCH   9  12
ENDBRANCH   5   6
ENDBRANCH   1   5
BRANCH   1  14
HETATM   14  N           1      -0.848  -0.812   0.509  0.00  0.00    -0.344 N 
HETATM   15  H           1      -0.223  -0.810   1.305  0.00  0.00     0.163 HD
HETATM   16  C           1      -2.128  -0.347   0.643  0.00  0.00     0.248 C 
HETATM   17  O           1      -2.874  -0.349  -0.308  0.00  0.00    -0.271 OA
BRANCH  16  18
HETATM   18  C           1      -2.608   0.168   1.977  0.00  0.00     0.270 C 
HETATM   19  C           1      -4.057   0.622   1.856  0.00  0.00     0.050 C 
BRANCH  18  20
HETATM   20  N           1      -1.756   1.328   2.401  0.00  0.00    -0.067 N 
HETATM   21  H           1      -0.762   1.016   2.485  0.00  0.00     0.275 HD
HETATM   22  H           1      -1.824   2.089   1.688  0.00  0.00     0.275 HD
HETATM   23  H           1      -2.088   1.685   3.325  0.00  0.00     0.275 HD
ENDBRANCH  18  20
ENDBRANCH  16  18
ENDBRANCH   1  14
TORSDOF 7
