REMARK  6 active torsions:
REMARK  status: ('A' for Active; 'I' for Inactive)
REMARK       I    between atoms: C_2  and  N_3 
REMARK    1  A    between atoms: C_2  and  C_20 
REMARK    2  A    between atoms: N_3  and  C_11 
REMARK    3  A    between atoms: C_9  and  C_10 
REMARK    4  A    between atoms: C_10  and  C_11 
REMARK    5  A    between atoms: C_11  and  C_13 
REMARK    6  A    between atoms: C_20  and  N_22 
ROOT
HETATM    1  C           1      -2.083  -0.210   1.610  0.00  0.00     0.190 C 
ENDROOT
BRANCH   1   2
HETATM    2  N           1      -2.747  -0.815   0.471  0.00  0.00    -0.344 N 
HETATM    3  C           1      -2.015  -1.483  -0.473  0.00  0.00     0.248 C 
HETATM    4  O           1      -1.807  -2.667  -0.350  0.00  0.00    -0.271 OA
HETATM    5  H           1      -3.752  -0.743   0.375  0.00  0.00     0.163 HD
BRANCH   3   6
HETATM    6  C           1      -1.467  -0.741  -1.667  0.00  0.00     0.270 C 
HETATM    7  C           1      -0.697  -1.708  -2.557  0.00  0.00     0.050 C 
BRANCH   6   8
HETATM    8  N           1      -0.548   0.348  -1.200  0.00  0.00    -0.067 N 
HETATM    9  H           1      -0.168   0.863  -2.026  0.00  0.00     0.275 HD
HETATM   10  H           1      -1.077   1.012  -0.590  0.00  0.00     0.275 HD
HETATM   11  H           1       0.241  -0.071  -0.658  0.00  0.00     0.275 HD
ENDBRANCH   6   8
ENDBRANCH   3   6
ENDBRANCH   1   2
BRANCH   1  12
HETATM   12  C           1      -1.081   0.827   1.120  0.00  0.00     0.077 C 
BRANCH  12  13
HETATM   13  C           1       0.249   0.173   0.904  0.00  0.00    -0.028 A 
HETATM   14  C           1       1.434   0.814   0.450  0.00  0.00    -0.002 A 
HETATM   15  C           1       1.755   2.135   0.082  0.00  0.00     0.014 A 
HETATM   16  C           1       2.432  -0.160   0.392  0.00  0.00     0.042 A 
HETATM   17  C           1       3.059   2.434  -0.331  0.00  0.00     0.001 A 
HETATM   18  C           1       4.034   1.440  -0.379  0.00  0.00     0.002 A 
HETATM   19  C           1       3.740   0.122  -0.018  0.00  0.00     0.030 A 
HETATM   20  N           1       1.862  -1.346   0.799  0.00  0.00    -0.365 N 
HETATM   21  C           1       0.542  -1.156   1.111  0.00  0.00     0.096 A 
HETATM   22  H           1       2.368  -2.265   0.860  0.00  0.00     0.165 HD
ENDBRANCH  12  13
ENDBRANCH   1  12
BRANCH   1  23
HETATM   23  C           1      -3.109   0.459   2.492  0.00  0.00     0.197 C 
HETATM   24  O           1      -3.038   1.687   2.712  0.00  0.00    -0.646 OA
HETATM   25  O           1      -4.029  -0.215   3.003  0.00  0.00    -0.646 OA
ENDBRANCH   1  23
TORSDOF 6
