REMARK  6 active torsions:
REMARK  status: ('A' for Active; 'I' for Inactive)
REMARK    1  A    between atoms: Se_2  and  C_3 
REMARK    2  A    between atoms: C_3  and  C_5 
REMARK    3  A    between atoms: C_5  and  C_6 
REMARK    4  A    between atoms: C_5  and  N_9 
REMARK       I    between atoms: N_9  and  C_14 
REMARK    5  A    between atoms: N_11  and  C_15 
REMARK    6  A    between atoms: C_14  and  C_15 
ROOT
HETATM    1  H           1       0.266  -1.331   0.044  0.00  0.00     0.163 HD
HETATM    2  N           1      -0.239  -0.454   0.043  0.00  0.00    -0.345 N 
HETATM    3  O           1      -0.156   1.778   0.043  0.00  0.00    -0.271 OA
HETATM    4  C           1       0.447   0.731   0.043  0.00  0.00     0.248 C 
ENDROOT
BRANCH   2   5
HETATM    5  C           1      -1.689  -0.452   0.042  0.00  0.00     0.185 C 
BRANCH   5   6
HETATM    6  C           1      -2.198  -1.888   0.042  0.00  0.00     0.039 C 
BRANCH   6   7
HETATM    7 Se           1      -4.147  -1.888   0.042  0.00  0.00     0.000 Se
HETATM    8  H           1      -4.262  -3.355   0.042  0.00  0.00     0.000 HD
ENDBRANCH   6   7
ENDBRANCH   5   6
BRANCH   5   9
HETATM    9  C           1      -2.191   0.260   1.274  0.00  0.00     0.196 C 
HETATM   10  O           1      -1.889   1.457   1.471  0.00  0.00    -0.646 OA
HETATM   11  O           1      -2.910  -0.347   2.097  0.00  0.00    -0.646 OA
ENDBRANCH   5   9
ENDBRANCH   2   5
BRANCH   4  12
HETATM   12  C           1       1.956   0.730   0.044  0.00  0.00     0.270 C 
HETATM   13  C           1       2.465   2.165   0.044  0.00  0.00     0.050 C 
BRANCH  12  14
HETATM   14  N           1       2.455   0.023  -1.181  0.00  0.00    -0.067 N 
HETATM   15  H           1       2.107   0.516  -2.034  0.00  0.00     0.275 HD
HETATM   16  H           1       2.106  -0.962  -1.181  0.00  0.00     0.275 HD
HETATM   17  H           1       3.500   0.021  -1.181  0.00  0.00     0.275 HD
ENDBRANCH  12  14
ENDBRANCH   4  12
TORSDOF 6
