REMARK  5 active torsions:
REMARK  status: ('A' for Active; 'I' for Inactive)
REMARK    1  A    between atoms: C_2  and  C_4 
REMARK    2  A    between atoms: C_4  and  C_5 
REMARK    3  A    between atoms: C_4  and  N_8 
REMARK       I    between atoms: N_8  and  C_9 
REMARK    4  A    between atoms: C_9  and  C_10 
REMARK    5  A    between atoms: C_10  and  N_16 
ROOT
HETATM    1  N           1       0.163  -0.054  -0.117  0.00  0.00    -0.344 N 
HETATM    2  C           1       0.730  -0.479   1.055  0.00  0.00     0.248 C 
HETATM    3  H           1       0.307   0.896  -0.433  0.00  0.00     0.163 HD
HETATM    4  O           1       0.558  -1.614   1.432  0.00  0.00    -0.271 OA
ENDROOT
BRANCH   1   5
HETATM    5  C           1      -0.643  -0.966  -0.905  0.00  0.00     0.189 C 
BRANCH   5   6
HETATM    6  C           1      -1.150  -0.249  -2.149  0.00  0.00     0.010 C 
HETATM    7  C           1      -2.673  -0.249  -2.149  0.00  0.00     0.012 C 
HETATM    8  C           1      -0.641   1.187  -2.149  0.00  0.00     0.012 C 
ENDBRANCH   5   6
BRANCH   5   9
HETATM    9  C           1       0.196  -2.153  -1.314  0.00  0.00     0.197 C 
HETATM   10  O           1       0.712  -2.883  -0.441  0.00  0.00    -0.646 OA
HETATM   11  O           1       0.374  -2.404  -2.525  0.00  0.00    -0.646 OA
ENDBRANCH   5   9
ENDBRANCH   1   5
BRANCH   2  12
HETATM   12  C           1       1.568   0.470   1.875  0.00  0.00     0.270 C 
HETATM   13  C           1       2.076  -0.246   3.120  0.00  0.00     0.050 C 
BRANCH  12  14
HETATM   14  N           1       0.735   1.649   2.282  0.00  0.00    -0.067 N 
HETATM   15  H           1      -0.078   1.320   2.852  0.00  0.00     0.275 HD
HETATM   16  H           1       0.387   2.140   1.428  0.00  0.00     0.275 HD
HETATM   17  H           1       1.315   2.307   2.850  0.00  0.00     0.275 HD
ENDBRANCH  12  14
ENDBRANCH   2  12
TORSDOF 5
