REMARK  6 active torsions:
REMARK  status: ('A' for Active; 'I' for Inactive)
REMARK    1  A    between atoms: C_2  and  C_3 
REMARK    2  A    between atoms: C_3  and  C_4 
REMARK    3  A    between atoms: C_4  and  C_18 
REMARK    4  A    between atoms: C_4  and  N_12 
REMARK       I    between atoms: N_12  and  C_13 
REMARK    5  A    between atoms: C_13  and  C_14 
REMARK    6  A    between atoms: C_14  and  N_16 
ROOT
HETATM    1  C           1       1.730   0.525  -1.244  0.00  0.00     0.189 C 
ENDROOT
BRANCH   1   2
HETATM    2  C           1       0.281   0.978  -1.367  0.00  0.00     0.074 C 
BRANCH   2   3
HETATM    3  C           1      -0.629  -0.170  -1.062  0.00  0.00    -0.056 A 
HETATM    4  C           1      -0.095  -1.415  -0.729  0.00  0.00     0.007 A 
HETATM    5  C           1      -0.943  -2.485  -0.446  0.00  0.00     0.001 A 
HETATM    6  C           1      -2.326  -2.310  -0.494  0.00  0.00     0.000 A 
HETATM    7  C           1      -2.861  -1.066  -0.827  0.00  0.00     0.001 A 
HETATM    8  C           1      -2.012   0.004  -1.111  0.00  0.00     0.007 A 
ENDBRANCH   2   3
ENDBRANCH   1   2
BRANCH   1   9
HETATM    9  C           1       2.590   1.325  -2.192  0.00  0.00     0.197 C 
HETATM   10  O           1       3.820   1.111  -2.251  0.00  0.00    -0.646 OA
HETATM   11  O           1       2.072   2.201  -2.918  0.00  0.00    -0.646 OA
ENDBRANCH   1   9
BRANCH   1  12
HETATM   12  N           1       2.187   0.734   0.116  0.00  0.00    -0.344 N 
HETATM   13  H           1       2.974   1.345   0.297  0.00  0.00     0.163 HD
HETATM   14  C           1       1.555   0.107   1.155  0.00  0.00     0.248 C 
HETATM   15  O           1       1.927  -0.983   1.520  0.00  0.00    -0.271 OA
BRANCH  14  16
HETATM   16  C           1       0.392   0.776   1.846  0.00  0.00     0.270 C 
HETATM   17  C           1      -0.127  -0.126   2.957  0.00  0.00     0.050 C 
BRANCH  16  18
HETATM   18  N           1      -0.704   1.024   0.851  0.00  0.00    -0.067 N 
HETATM   19  H           1      -1.017   0.114   0.444  0.00  0.00     0.275 HD
HETATM   20  H           1      -0.348   1.644   0.089  0.00  0.00     0.275 HD
HETATM   21  H           1      -1.510   1.488   1.329  0.00  0.00     0.275 HD
ENDBRANCH  16  18
ENDBRANCH  14  16
ENDBRANCH   1  12
TORSDOF 6
