REMARK  6 active torsions:
REMARK  status: ('A' for Active; 'I' for Inactive)
REMARK    1  A    between atoms: N_2  and  C_8 
REMARK       I    between atoms: N_2  and  C_3 
REMARK    2  A    between atoms: C_3  and  C_4 
REMARK    3  A    between atoms: C_4  and  N_6 
REMARK    4  A    between atoms: C_8  and  C_12 
REMARK    5  A    between atoms: C_8  and  C_9 
REMARK    6  A    between atoms: C_11  and  C_12 
ROOT
HETATM    1  N           1       0.274   0.057  -0.273  0.00  0.00    -0.344 N 
HETATM    2  C           1      -0.294   0.482  -1.444  0.00  0.00     0.248 C 
HETATM    3  O           1      -0.123   1.617  -1.820  0.00  0.00    -0.271 OA
HETATM    4  H           1       0.131  -0.894   0.043  0.00  0.00     0.163 HD
ENDROOT
BRANCH   1   5
HETATM    5  C           1       1.079   0.969   0.516  0.00  0.00     0.189 C 
BRANCH   5   6
HETATM    6  C           1       1.588   0.251   1.759  0.00  0.00     0.014 C 
HETATM    7  C           1       1.081   0.970   3.002  0.00  0.00     0.012 C 
BRANCH   6   8
HETATM    8  C           1       1.079  -1.184   1.759  0.00  0.00     0.002 C 
HETATM    9  C           1      -0.444  -1.184   1.759  0.00  0.00     0.005 C 
ENDBRANCH   6   8
ENDBRANCH   5   6
BRANCH   5  10
HETATM   10  C           1       2.252   1.443  -0.307  0.00  0.00     0.197 C 
HETATM   11  O           1       3.419   1.219   0.081  0.00  0.00    -0.646 OA
HETATM   12  O           1       2.056   2.060  -1.376  0.00  0.00    -0.646 OA
ENDBRANCH   5  10
ENDBRANCH   1   5
BRANCH   2  13
HETATM   13  C           1      -1.132  -0.467  -2.264  0.00  0.00     0.270 C 
HETATM   14  C           1      -1.641   0.249  -3.508  0.00  0.00     0.050 C 
BRANCH  13  15
HETATM   15  N           1      -2.298  -0.938  -1.446  0.00  0.00    -0.067 N 
HETATM   16  H           1      -2.880  -1.595  -2.014  0.00  0.00     0.275 HD
HETATM   17  H           1      -1.949  -1.430  -0.593  0.00  0.00     0.275 HD
HETATM   18  H           1      -2.879  -0.116  -1.163  0.00  0.00     0.275 HD
ENDBRANCH  13  15
ENDBRANCH   2  13
TORSDOF 6
