REMARK  6 active torsions:
REMARK  status: ('A' for Active; 'I' for Inactive)
REMARK    1  A    between atoms: N_1  and  C_3 
REMARK    2  A    between atoms: C_3  and  C_11 
REMARK    3  A    between atoms: S_4  and  C_5 
REMARK    4  A    between atoms: C_5  and  C_6 
REMARK    5  A    between atoms: C_6  and  C_7 
REMARK    6  A    between atoms: C_6  and  N_10 
REMARK       I    between atoms: N_10  and  C_11 
ROOT
HETATM    1  N           1      -0.249  -0.459   0.043  0.00  0.00    -0.344 N 
HETATM    2  C           1       0.436   0.726   0.043  0.00  0.00     0.248 C 
HETATM    3  O           1      -0.167   1.773   0.043  0.00  0.00    -0.271 OA
HETATM    4  H           1       0.256  -1.336   0.044  0.00  0.00     0.163 HD
ENDROOT
BRANCH   1   5
HETATM    5  C           1      -1.699  -0.458   0.042  0.00  0.00     0.194 C 
BRANCH   5   6
HETATM    6  C           1      -2.208  -1.893   0.042  0.00  0.00     0.106 C 
BRANCH   6   7
HETATM    7  S           1      -4.023  -1.893   0.042  0.00  0.00    -0.180 SA
HETATM    8  H           1      -4.163  -3.231   0.042  0.00  0.00     0.101 HD
ENDBRANCH   6   7
ENDBRANCH   5   6
BRANCH   5   9
HETATM    9  C           1      -2.202   0.255   1.274  0.00  0.00     0.197 C 
HETATM   10  O           1      -1.899   1.451   1.471  0.00  0.00    -0.646 OA
HETATM   11  O           1      -2.921  -0.352   2.097  0.00  0.00    -0.646 OA
ENDBRANCH   5   9
ENDBRANCH   1   5
BRANCH   2  12
HETATM   12  C           1       1.945   0.724   0.044  0.00  0.00     0.270 C 
HETATM   13  C           1       2.455   2.159   0.044  0.00  0.00     0.050 C 
BRANCH  12  14
HETATM   14  N           1       2.445   0.017  -1.181  0.00  0.00    -0.067 N 
HETATM   15  H           1       3.490   0.016  -1.181  0.00  0.00     0.275 HD
HETATM   16  H           1       2.095  -0.968  -1.181  0.00  0.00     0.275 HD
HETATM   17  H           1       2.097   0.511  -2.034  0.00  0.00     0.275 HD
ENDBRANCH  12  14
ENDBRANCH   2  12
TORSDOF 6
