REMARK  6 active torsions:
REMARK  status: ('A' for Active; 'I' for Inactive)
REMARK    1  A    between atoms: C_2  and  C_4 
REMARK    2  A    between atoms: C_2  and  C_16 
REMARK    3  A    between atoms: C_2  and  N_6 
REMARK    4  A    between atoms: O_3  and  C_4 
REMARK       I    between atoms: N_6  and  C_11 
REMARK    5  A    between atoms: C_10  and  C_11 
REMARK    6  A    between atoms: C_10  and  N_18 
ROOT
HETATM    1  N           1       0.098   0.082  -0.276  0.00  0.00    -0.343 N 
HETATM    2  C           1       0.664  -0.342   0.896  0.00  0.00     0.248 C 
HETATM    3  H           1       0.242   1.033  -0.592  0.00  0.00     0.163 HD
HETATM    4  O           1       0.492  -1.477   1.273  0.00  0.00    -0.271 OA
ENDROOT
BRANCH   1   5
HETATM    5  C           1      -0.708  -0.830  -1.064  0.00  0.00     0.214 C 
BRANCH   5   6
HETATM    6  C           1      -1.215  -0.112  -2.308  0.00  0.00     0.147 C 
HETATM    7  C           1      -2.738  -0.112  -2.308  0.00  0.00     0.042 C 
BRANCH   6   8
HETATM    8  O           1      -0.747   1.209  -2.308  0.00  0.00    -0.393 OA
HETATM    9  H           1       0.194   1.167  -2.308  0.00  0.00     0.210 HD
ENDBRANCH   6   8
ENDBRANCH   5   6
BRANCH   5  10
HETATM   10  C           1       0.130  -2.016  -1.473  0.00  0.00     0.199 C 
HETATM   11  O           1       0.308  -2.268  -2.684  0.00  0.00    -0.646 OA
HETATM   12  O           1       0.647  -2.747  -0.600  0.00  0.00    -0.646 OA
ENDBRANCH   5  10
ENDBRANCH   1   5
BRANCH   2  13
HETATM   13  C           1       1.503   0.607   1.716  0.00  0.00     0.270 C 
HETATM   14  C           1       2.011  -0.109   2.961  0.00  0.00     0.050 C 
BRANCH  13  15
HETATM   15  N           1       0.669   1.785   2.123  0.00  0.00    -0.067 N 
HETATM   16  H           1      -0.143   1.457   2.692  0.00  0.00     0.275 HD
HETATM   17  H           1       0.321   2.277   1.269  0.00  0.00     0.275 HD
HETATM   18  H           1       1.249   2.443   2.691  0.00  0.00     0.275 HD
ENDBRANCH  13  15
ENDBRANCH   2  13
TORSDOF 6
