REMARK  9 active torsions:
REMARK  status: ('A' for Active; 'I' for Inactive)
REMARK    1  A    between atoms: O_2  and  C_12 
REMARK    2  A    between atoms: O_2  and  P_3 
REMARK    3  A    between atoms: P_3  and  O_8 
REMARK    4  A    between atoms: C_4  and  C_6 
REMARK    5  A    between atoms: C_6  and  C_16 
REMARK    6  A    between atoms: C_6  and  N_19 
REMARK    7  A    between atoms: N_10  and  C_17 
REMARK    8  A    between atoms: C_15  and  C_16 
REMARK    9  A    between atoms: C_17  and  C_18 
REMARK       I    between atoms: C_18  and  N_19 
ROOT
HETATM    1  C           1       2.433   0.914  -1.164  0.00  0.00     0.189 C 
ENDROOT
BRANCH   1   2
HETATM    2  C           1       3.293   1.714  -2.111  0.00  0.00     0.197 C 
HETATM    3  O           1       4.523   1.500  -2.170  0.00  0.00    -0.646 OA
HETATM    4  O           1       2.775   2.590  -2.837  0.00  0.00    -0.646 OA
ENDBRANCH   1   2
BRANCH   1   5
HETATM    5  C           1       0.984   1.368  -1.287  0.00  0.00     0.074 C 
BRANCH   5   6
HETATM    6  C           1       0.073   0.219  -0.982  0.00  0.00    -0.056 A 
HETATM    7  C           1       0.608  -1.026  -0.649  0.00  0.00     0.010 A 
HETATM    8  C           1      -0.240  -2.096  -0.366  0.00  0.00     0.038 A 
HETATM    9  C           1      -1.623  -1.921  -0.414  0.00  0.00     0.081 A 
HETATM   10  C           1      -2.158  -0.677  -0.747  0.00  0.00     0.038 A 
HETATM   11  C           1      -1.310   0.394  -1.030  0.00  0.00     0.010 A 
BRANCH   9  12
HETATM   12  O           1      -2.448  -2.961  -0.138  0.00  0.00    -0.247 OA
BRANCH  12  13
HETATM   13  P           1      -4.041  -2.705  -0.209  0.00  0.00     0.411 P 
HETATM   14  O           1      -4.415  -1.651   0.760  0.00  0.00    -0.624 OA
HETATM   15  O           1      -4.756  -3.957   0.123  0.00  0.00    -0.624 OA
BRANCH  13  16
HETATM   16  O           1      -4.444  -2.233  -1.700  0.00  0.00    -0.300 OA
HETATM   17  H           1      -5.376  -2.102  -1.671  0.00  0.00     0.223 HD
ENDBRANCH  13  16
ENDBRANCH  12  13
ENDBRANCH   9  12
ENDBRANCH   5   6
ENDBRANCH   1   5
BRANCH   1  18
HETATM   18  N           1       2.890   1.124   0.196  0.00  0.00    -0.344 N 
HETATM   19  C           1       2.257   0.496   1.236  0.00  0.00     0.248 C 
HETATM   20  O           1       2.630  -0.594   1.600  0.00  0.00    -0.271 OA
HETATM   21  H           1       3.677   1.734   0.377  0.00  0.00     0.163 HD
BRANCH  19  22
HETATM   22  C           1       1.094   1.165   1.926  0.00  0.00     0.270 C 
HETATM   23  C           1       0.575   0.263   3.038  0.00  0.00     0.050 C 
BRANCH  22  24
HETATM   24  N           1      -0.001   1.413   0.932  0.00  0.00    -0.067 N 
HETATM   25  H           1      -0.807   1.877   1.409  0.00  0.00     0.275 HD
HETATM   26  H           1       0.355   2.033   0.169  0.00  0.00     0.275 HD
HETATM   27  H           1      -0.314   0.503   0.524  0.00  0.00     0.275 HD
ENDBRANCH  22  24
ENDBRANCH  19  22
ENDBRANCH   1  18
TORSDOF 9
