REMARK  7 active torsions:
REMARK  status: ('A' for Active; 'I' for Inactive)
REMARK       I    between atoms: C_1  and  N_9 
REMARK    1  A    between atoms: C_1  and  C_11 
REMARK    2  A    between atoms: N_4  and  C_20 
REMARK       I    between atoms: N_4  and  C_5 
REMARK    3  A    between atoms: C_5  and  C_6 
REMARK    4  A    between atoms: C_6  and  N_15 
REMARK    5  A    between atoms: C_11  and  C_19 
REMARK    6  A    between atoms: C_19  and  C_20 
REMARK    7  A    between atoms: C_20  and  C_21 
ROOT
HETATM    1  C           1       0.742  -0.322  -0.090  0.00  0.00     0.186 C 
ENDROOT
BRANCH   1   2
HETATM    2  N           1      -0.199   0.781  -0.091  0.00  0.00    -0.345 N 
HETATM    3  C           1      -1.094   0.918   0.935  0.00  0.00     0.248 C 
HETATM    4  O           1      -1.101   0.119   1.842  0.00  0.00    -0.271 OA
HETATM    5  H           1      -0.193   1.450  -0.850  0.00  0.00     0.163 HD
BRANCH   3   6
HETATM    6  C           1      -2.073   2.066   0.934  0.00  0.00     0.270 C 
HETATM    7  C           1      -2.950   1.988   2.177  0.00  0.00     0.050 C 
BRANCH   6   8
HETATM    8  N           1      -2.935   1.987  -0.291  0.00  0.00    -0.067 N 
HETATM    9  H           1      -3.459   1.082  -0.290  0.00  0.00     0.275 HD
HETATM   10  H           1      -3.613   2.782  -0.292  0.00  0.00     0.275 HD
HETATM   11  H           1      -2.334   2.041  -1.143  0.00  0.00     0.275 HD
ENDBRANCH   6   8
ENDBRANCH   3   6
ENDBRANCH   1   2
BRANCH   1  12
HETATM   12  C           1       1.618  -0.243  -1.333  0.00  0.00     0.045 C 
BRANCH  12  13
HETATM   13  C           1       2.607  -1.401  -1.333  0.00  0.00     0.105 C 
BRANCH  13  14
HETATM   14  C           1       1.853  -2.708  -1.333  0.00  0.00     0.215 C 
HETATM   15  O           1       0.645  -2.708  -1.333  0.00  0.00    -0.274 OA
HETATM   16  N           1       2.537  -3.893  -1.333  0.00  0.00    -0.370 N 
HETATM   17  H           1       3.549  -3.893  -1.333  0.00  0.00     0.159 HD
HETATM   18  H           1       2.031  -4.770  -1.333  0.00  0.00     0.159 HD
ENDBRANCH  13  14
ENDBRANCH  12  13
ENDBRANCH   1  12
BRANCH   1  19
HETATM   19  C           1       1.609  -0.243   1.143  0.00  0.00     0.196 C 
HETATM   20  O           1       1.087  -0.290   2.278  0.00  0.00    -0.646 OA
HETATM   21  O           1       2.848  -0.130   1.029  0.00  0.00    -0.646 OA
ENDBRANCH   1  19
TORSDOF 7
