REMARK  9 active torsions:
REMARK  status: ('A' for Active; 'I' for Inactive)
REMARK    1  A    between atoms: N_2  and  C_14 
REMARK       I    between atoms: N_2  and  C_3 
REMARK    2  A    between atoms: C_3  and  C_11 
REMARK    3  A    between atoms: N_9  and  C_11 
REMARK    4  A    between atoms: C_12  and  C_22 
REMARK    5  A    between atoms: C_12  and  C_13 
REMARK    6  A    between atoms: C_13  and  C_14 
REMARK    7  A    between atoms: C_14  and  C_15 
REMARK    8  A    between atoms: N_20  and  C_21 
REMARK    9  A    between atoms: C_21  and  C_22 
ROOT
HETATM    1  C           1       0.642   0.591   0.326  0.00  0.00     0.185 C 
ENDROOT
BRANCH   1   2
HETATM    2  N           1      -0.808   0.591   0.326  0.00  0.00    -0.345 N 
HETATM    3  C           1      -1.492   1.777   0.326  0.00  0.00     0.248 C 
HETATM    4  O           1      -0.888   2.823   0.325  0.00  0.00    -0.271 OA
HETATM    5  H           1      -1.314  -0.285   0.326  0.00  0.00     0.163 HD
BRANCH   3   6
HETATM    6  C           1      -3.001   1.777   0.326  0.00  0.00     0.270 C 
HETATM    7  C           1      -3.510   3.212   0.325  0.00  0.00     0.050 C 
BRANCH   6   8
HETATM    8  N           1      -3.501   1.071   1.551  0.00  0.00    -0.067 N 
HETATM    9  H           1      -4.546   1.070   1.552  0.00  0.00     0.275 HD
HETATM   10  H           1      -3.152   0.085   1.551  0.00  0.00     0.275 HD
HETATM   11  H           1      -3.152   1.564   2.404  0.00  0.00     0.275 HD
ENDBRANCH   6   8
ENDBRANCH   3   6
ENDBRANCH   1   2
BRANCH   1  12
HETATM   12  C           1       1.149  -0.845   0.326  0.00  0.00     0.036 C 
BRANCH  12  13
HETATM   13  C           1       2.672  -0.846   0.325  0.00  0.00     0.004 C 
BRANCH  13  14
HETATM   14  C           1       3.179  -1.565  -0.918  0.00  0.00     0.027 C 
BRANCH  14  15
HETATM   15  C           1       2.671  -3.001  -0.918  0.00  0.00     0.229 C 
BRANCH  15  16
HETATM   16  N           1       1.171  -3.001  -0.918  0.00  0.00    -0.079 N 
HETATM   17  H           1       0.822  -2.508  -1.771  0.00  0.00     0.274 HD
HETATM   18  H           1       0.823  -2.509  -0.064  0.00  0.00     0.274 HD
HETATM   19  H           1       0.822  -3.986  -0.918  0.00  0.00     0.274 HD
ENDBRANCH  15  16
ENDBRANCH  14  15
ENDBRANCH  13  14
ENDBRANCH  12  13
ENDBRANCH   1  12
BRANCH   1  20
HETATM   20  C           1       1.144   1.302  -0.907  0.00  0.00     0.196 C 
HETATM   21  O           1       1.862   0.695  -1.730  0.00  0.00    -0.646 OA
HETATM   22  O           1       0.843   2.499  -1.104  0.00  0.00    -0.646 OA
ENDBRANCH   1  20
TORSDOF 9
