REMARK  8 active torsions:
REMARK  status: ('A' for Active; 'I' for Inactive)
REMARK    1  A    between atoms: C_1  and  C_8 
REMARK    2  A    between atoms: C_1  and  N_10 
REMARK    3  A    between atoms: C_2  and  C_3 
REMARK    4  A    between atoms: C_2  and  C_19 
REMARK    5  A    between atoms: C_2  and  N_9 
REMARK    6  A    between atoms: C_3  and  C_4 
REMARK    7  A    between atoms: C_4  and  C_5 
REMARK    8  A    between atoms: C_5  and  N_6 
REMARK       I    between atoms: C_8  and  N_9 
ROOT
HETATM    1  C           1       0.523  -0.019  -0.639  0.00  0.00     0.185 C 
ENDROOT
BRANCH   1   2
HETATM    2  C           1      -0.661  -0.497  -1.468  0.00  0.00     0.038 C 
BRANCH   2   3
HETATM    3  C           1      -0.154  -1.216  -2.712  0.00  0.00     0.030 C 
BRANCH   3   4
HETATM    4  C           1      -0.663  -2.652  -2.712  0.00  0.00     0.230 C 
BRANCH   4   5
HETATM    5  N           1      -2.163  -2.652  -2.712  0.00  0.00    -0.079 N 
HETATM    6  H           1      -2.512  -3.637  -2.712  0.00  0.00     0.274 HD
HETATM    7  H           1      -2.511  -2.160  -1.858  0.00  0.00     0.274 HD
HETATM    8  H           1      -2.511  -2.159  -3.565  0.00  0.00     0.274 HD
ENDBRANCH   4   5
ENDBRANCH   3   4
ENDBRANCH   2   3
ENDBRANCH   1   2
BRANCH   1   9
HETATM    9  C           1       1.363   0.929  -1.460  0.00  0.00     0.196 C 
HETATM   10  O           1       1.030   1.201  -2.634  0.00  0.00    -0.646 OA
HETATM   11  O           1       2.390   1.441  -0.966  0.00  0.00    -0.646 OA
ENDBRANCH   1   9
BRANCH   1  12
HETATM   12  N           1       0.039   0.666   0.544  0.00  0.00    -0.345 N 
HETATM   13  C           1       0.928   1.186   1.445  0.00  0.00     0.248 C 
HETATM   14  O           1       2.116   1.075   1.255  0.00  0.00    -0.271 OA
HETATM   15  H           1      -0.956   0.759   0.703  0.00  0.00     0.163 HD
BRANCH  13  16
HETATM   16  C           1       0.424   1.899   2.676  0.00  0.00     0.270 C 
HETATM   17  C           1       1.608   2.378   3.506  0.00  0.00     0.050 C 
BRANCH  16  18
HETATM   18  N           1      -0.409   0.957   3.493  0.00  0.00    -0.067 N 
HETATM   19  H           1      -0.759   1.450   4.345  0.00  0.00     0.275 HD
HETATM   20  H           1      -1.222   0.629   2.923  0.00  0.00     0.275 HD
HETATM   21  H           1       0.171   0.136   3.778  0.00  0.00     0.275 HD
ENDBRANCH  16  18
ENDBRANCH  13  16
ENDBRANCH   1  12
TORSDOF 8
