REMARK  7 active torsions:
REMARK  status: ('A' for Active; 'I' for Inactive)
REMARK    1  A    between atoms: C_4  and  C_5 
REMARK    2  A    between atoms: C_4  and  N_15 
REMARK       I    between atoms: C_5  and  N_6 
REMARK    3  A    between atoms: N_6  and  C_10 
REMARK    4  A    between atoms: C_9  and  C_10 
REMARK    5  A    between atoms: C_10  and  C_11 
REMARK    6  A    between atoms: C_11  and  C_12 
REMARK    7  A    between atoms: C_12  and  S_13 
ROOT
HETATM    1  H           1      -1.019  -0.305  -0.522  0.00  0.00     0.163 HD
HETATM    2  C           1       0.718  -1.151  -1.264  0.00  0.00     0.248 C 
HETATM    3  N           1      -0.029  -0.441  -0.363  0.00  0.00    -0.345 N 
HETATM    4  O           1       1.900  -1.314  -1.074  0.00  0.00    -0.271 OA
ENDROOT
BRANCH   3   5
HETATM    5  C           1       0.599   0.115   0.820  0.00  0.00     0.186 C 
BRANCH   5   6
HETATM    6  C           1       1.200  -1.000   1.641  0.00  0.00     0.196 C 
HETATM    7  O           1       0.814  -1.189   2.815  0.00  0.00    -0.646 OA
HETATM    8  O           1       2.083  -1.733   1.147  0.00  0.00    -0.646 OA
ENDBRANCH   5   6
BRANCH   5   9
HETATM    9  C           1      -0.445   0.851   1.649  0.00  0.00     0.046 C 
BRANCH   9  10
HETATM   10  C           1       0.213   1.435   2.893  0.00  0.00     0.076 C 
BRANCH  10  11
HETATM   11  S           1       0.013   3.239   2.893  0.00  0.00    -0.173 SA
HETATM   12  C           1      -1.802   3.239   2.893  0.00  0.00     0.089 C 
ENDBRANCH  10  11
ENDBRANCH   9  10
ENDBRANCH   5   9
ENDBRANCH   3   5
BRANCH   2  13
HETATM   13  C           1       0.065  -1.730  -2.495  0.00  0.00     0.270 C 
HETATM   14  C           1       1.108  -2.467  -3.325  0.00  0.00     0.050 C 
BRANCH  13  15
HETATM   15  N           1      -0.532  -0.622  -3.312  0.00  0.00    -0.067 N 
HETATM   16  H           1       0.221   0.044  -3.597  0.00  0.00     0.275 HD
HETATM   17  H           1      -0.984  -1.022  -4.165  0.00  0.00     0.275 HD
HETATM   18  H           1      -1.248  -0.117  -2.742  0.00  0.00     0.275 HD
ENDBRANCH  13  15
ENDBRANCH   2  13
TORSDOF 7
