REMARK  6 active torsions:
REMARK  status: ('A' for Active; 'I' for Inactive)
REMARK    1  A    between atoms: N_3  and  C_16 
REMARK       I    between atoms: N_3  and  C_4 
REMARK    2  A    between atoms: C_4  and  C_5 
REMARK    3  A    between atoms: C_5  and  N_7 
REMARK    4  A    between atoms: C_14  and  C_16 
REMARK    5  A    between atoms: C_16  and  C_18 
REMARK    6  A    between atoms: C_18  and  C_19 
ROOT
HETATM    1  C           1       0.952   1.169  -1.363  0.00  0.00     0.191 C 
ENDROOT
BRANCH   1   2
HETATM    2  N           1       1.554   1.324  -0.053  0.00  0.00    -0.344 N 
HETATM    3  C           1       1.414   0.338   0.886  0.00  0.00     0.248 C 
HETATM    4  O           1       2.226  -0.553   0.953  0.00  0.00    -0.271 OA
HETATM    5  H           1       2.078   2.162   0.167  0.00  0.00     0.163 HD
BRANCH   3   6
HETATM    6  C           1       0.243   0.365   1.839  0.00  0.00     0.270 C 
HETATM    7  C           1       0.322  -0.835   2.774  0.00  0.00     0.050 C 
BRANCH   6   8
HETATM    8  N           1      -1.037   0.307   1.059  0.00  0.00    -0.067 N 
HETATM    9  H           1      -1.848   0.325   1.717  0.00  0.00     0.275 HD
HETATM   10  H           1      -1.091   1.131   0.418  0.00  0.00     0.275 HD
HETATM   11  H           1      -1.063  -0.574   0.498  0.00  0.00     0.275 HD
ENDBRANCH   6   8
ENDBRANCH   3   6
ENDBRANCH   1   2
BRANCH   1  12
HETATM   12  C           1       1.253   2.387  -2.202  0.00  0.00     0.197 C 
HETATM   13  O           1       2.439   2.697  -2.449  0.00  0.00    -0.646 OA
HETATM   14  O           1       0.318   3.085  -2.649  0.00  0.00    -0.646 OA
ENDBRANCH   1  12
BRANCH   1  15
HETATM   15  C           1      -0.556   1.016  -1.213  0.00  0.00     0.094 C 
BRANCH  15  16
HETATM   16  C           1      -0.899  -0.435  -1.068  0.00  0.00     0.028 A 
HETATM   17  N           1      -2.170  -0.923  -0.914  0.00  0.00    -0.354 N 
HETATM   18  C           1      -2.033  -2.226  -0.825  0.00  0.00     0.180 A 
ATOM     19  HN          1      -3.038  -0.388  -0.876  1.00  0.00     0.166 HD
HETATM   20  N           1      -0.721  -2.598  -0.916  0.00  0.00    -0.360 N 
HETATM   21  H           1      -0.350  -3.579  -0.874  0.00  0.00     0.166 HD
HETATM   22  C           1       0.019  -1.458  -1.073  0.00  0.00     0.114 A 
ENDBRANCH  15  16
ENDBRANCH   1  15
TORSDOF 6
