REMARK  3 active torsions:
REMARK  status: ('A' for Active; 'I' for Inactive)
REMARK    1  A    between atoms: N_8  and  C_10 
REMARK    2  A    between atoms: C_10  and  C_11 
REMARK       I    between atoms: C_11  and  N_12 
REMARK    3  A    between atoms: C_13  and  C_15 
ROOT
HETATM    1  C           1      -2.523  -0.783  -0.436  0.00  0.00     0.038 C 
HETATM    2  C           1      -1.423  -1.730  -0.903  0.00  0.00     0.022 C 
HETATM    3  C           1      -0.211  -1.375  -0.059  0.00  0.00     0.127 C 
HETATM    4  O           1       0.093   2.127   0.772  0.00  0.00    -0.271 OA
HETATM    5  C           1       0.449   1.029   0.418  0.00  0.00     0.250 C 
HETATM    6  N           1      -0.458   0.006   0.345  0.00  0.00    -0.336 N 
HETATM    7  C           1      -1.884   0.058   0.655  0.00  0.00     0.188 C 
ENDROOT
BRANCH   5   8
HETATM    8  C           1       1.893   0.784   0.055  0.00  0.00     0.271 C 
HETATM    9  C           1       2.684   2.074   0.220  0.00  0.00     0.050 C 
BRANCH   8  10
HETATM   10  N           1       1.978   0.324  -1.371  0.00  0.00    -0.067 N 
HETATM   11  H           1       1.581   1.059  -1.998  0.00  0.00     0.275 HD
HETATM   12  H           1       1.436  -0.562  -1.484  0.00  0.00     0.275 HD
HETATM   13  H           1       2.978   0.154  -1.623  0.00  0.00     0.275 HD
ENDBRANCH   8  10
ENDBRANCH   5   8
BRANCH   7  14
HETATM   14  C           1      -2.160  -0.530   2.018  0.00  0.00     0.196 C 
HETATM   15  O           1      -1.218  -0.976   2.708  0.00  0.00    -0.646 OA
HETATM   16  O           1      -3.330  -0.572   2.455  0.00  0.00    -0.646 OA
ENDBRANCH   7  14
TORSDOF 3
