REMARK  6 active torsions:
REMARK  status: ('A' for Active; 'I' for Inactive)
REMARK    1  A    between atoms: C_5  and  C_13 
REMARK    2  A    between atoms: C_5  and  N_16 
REMARK    3  A    between atoms: C_6  and  C_7 
REMARK    4  A    between atoms: C_6  and  C_17 
REMARK    5  A    between atoms: C_6  and  N_12 
REMARK    6  A    between atoms: C_7  and  O_8 
REMARK       I    between atoms: N_12  and  C_13 
ROOT
HETATM    1  H           1       0.227  -1.354   0.044  0.00  0.00     0.163 HD
HETATM    2  O           1      -0.195   1.754   0.043  0.00  0.00    -0.271 OA
HETATM    3  N           1      -0.278  -0.477   0.043  0.00  0.00    -0.343 N 
HETATM    4  C           1       0.408   0.708   0.043  0.00  0.00     0.248 C 
ENDROOT
BRANCH   3   5
HETATM    5  C           1      -1.728  -0.476   0.042  0.00  0.00     0.209 C 
BRANCH   5   6
HETATM    6  C           1      -2.237  -1.911   0.042  0.00  0.00     0.200 C 
BRANCH   6   7
HETATM    7  O           1      -3.639  -1.911   0.042  0.00  0.00    -0.398 OA
HETATM    8  H           1      -3.912  -2.813   0.042  0.00  0.00     0.209 HD
ENDBRANCH   6   7
ENDBRANCH   5   6
BRANCH   5   9
HETATM    9  C           1      -2.230   0.236   1.274  0.00  0.00     0.198 C 
HETATM   10  O           1      -1.928   1.433   1.471  0.00  0.00    -0.646 OA
HETATM   11  O           1      -2.949  -0.370   2.097  0.00  0.00    -0.646 OA
ENDBRANCH   5   9
ENDBRANCH   3   5
BRANCH   4  12
HETATM   12  C           1       1.917   0.706   0.044  0.00  0.00     0.270 C 
HETATM   13  C           1       2.426   2.141   0.044  0.00  0.00     0.050 C 
BRANCH  12  14
HETATM   14  N           1       2.416  -0.001  -1.181  0.00  0.00    -0.067 N 
HETATM   15  H           1       2.068   0.492  -2.034  0.00  0.00     0.275 HD
HETATM   16  H           1       2.067  -0.986  -1.181  0.00  0.00     0.275 HD
HETATM   17  H           1       3.461  -0.003  -1.181  0.00  0.00     0.275 HD
ENDBRANCH  12  14
ENDBRANCH   4  12
TORSDOF 6
