REMARK  4 active torsions:
REMARK  status: ('A' for Active; 'I' for Inactive)
REMARK       I    between atoms: C_2  and  N_14 
REMARK    1  A    between atoms: C_2  and  C_3 
REMARK    2  A    between atoms: C_3  and  N_5 
REMARK    3  A    between atoms: C_11  and  C_13 
REMARK    4  A    between atoms: C_13  and  N_14 
ROOT
HETATM    1  C           1       0.515   0.225  -0.242  0.00  0.00     0.248 C 
HETATM    2  O           1       1.703   0.445  -0.242  0.00  0.00    -0.271 OA
HETATM    3  H           1      -0.937  -1.250  -0.242  0.00  0.00     0.163 HD
HETATM    4  N           1       0.058  -1.065  -0.242  0.00  0.00    -0.349 N 
ENDROOT
BRANCH   1   5
HETATM    5  C           1      -0.465   1.373  -0.242  0.00  0.00     0.270 C 
HETATM    6  C           1       0.297   2.692  -0.242  0.00  0.00     0.050 C 
BRANCH   5   7
HETATM    7  N           1      -1.326   1.294   0.983  0.00  0.00    -0.067 N 
HETATM    8  H           1      -0.725   1.349   1.836  0.00  0.00     0.275 HD
HETATM    9  H           1      -2.005   2.088   0.984  0.00  0.00     0.275 HD
HETATM   10  H           1      -1.849   0.389   0.983  0.00  0.00     0.275 HD
ENDBRANCH   5   7
ENDBRANCH   1   5
BRANCH   4  11
HETATM   11  C           1       1.000  -2.168  -0.242  0.00  0.00     0.235 C 
BRANCH  11  12
HETATM   12  C           1       0.246  -3.475  -0.242  0.00  0.00     0.191 C 
HETATM   13  O           1      -1.004  -3.475  -0.242  0.00  0.00    -0.647 OA
HETATM   14  O           1       0.871  -4.557  -0.242  0.00  0.00    -0.647 OA
ENDBRANCH  11  12
ENDBRANCH   4  11
TORSDOF 4
