REMARK  17 active torsions:
REMARK  status: ('A' for Active; 'I' for Inactive)
REMARK    1  A    between atoms: C_2  and  C_12 
REMARK    2  A    between atoms: C_2  and  C_3 
REMARK    3  A    between atoms: C_2  and  N_7 
REMARK    4  A    between atoms: C_6  and  N_7 
REMARK    5  A    between atoms: C_6  and  C_22 
REMARK    6  A    between atoms: N_9  and  C_10 
REMARK    7  A    between atoms: C_10  and  C_11 
REMARK    8  A    between atoms: C_11  and  C_12 
REMARK    9  A    between atoms: C_13  and  C_30 
REMARK   10  A    between atoms: C_13  and  C_20 
REMARK       I    between atoms: N_16  and  C_17 
REMARK       I    between atoms: C_17  and  N_18 
REMARK   11  A    between atoms: N_18  and  C_19 
REMARK   12  A    between atoms: C_19  and  C_20 
REMARK   13  A    between atoms: C_22  and  C_23 
REMARK   14  A    between atoms: C_23  and  C_24 
REMARK   15  A    between atoms: C_23  and  N_27 
REMARK       I    between atoms: N_27  and  C_28 
REMARK   16  A    between atoms: C_28  and  C_30 
REMARK   17  A    between atoms: C_30  and  N_36 
ROOT
HETATM    1  H           1       2.375   0.690   1.172  0.00  0.00     0.163 HD
HETATM    2  N           1       1.781  -0.084   0.905  0.00  0.00    -0.345 N 
HETATM    3  C           1       1.115  -0.799   1.865  0.00  0.00     0.249 C 
HETATM    4  O           1       0.406  -1.723   1.547  0.00  0.00    -0.271 OA
ENDROOT
BRANCH   2   5
HETATM    5  C           1       1.634  -0.438  -0.493  0.00  0.00     0.187 C 
BRANCH   5   6
HETATM    6  C           1       2.473   0.506  -1.345  0.00  0.00     0.066 C 
BRANCH   6   7
HETATM    7  C           1       1.635   1.715  -1.740  0.00  0.00     0.273 C 
BRANCH   7   8
HETATM    8  N           1       0.490   1.280  -2.493  0.00  0.00     0.098 N 
HETATM    9  H           1      -0.062   2.092  -2.771  0.00  0.00     0.317 HD
BRANCH   8  10
HETATM   10  C           1       0.970   0.601  -3.666  0.00  0.00     0.320 C 
BRANCH  10  11
HETATM   11  C           1      -0.215   0.123  -4.495  0.00  0.00     0.048 C 
BRANCH  11  12
HETATM   12  C           1       0.292  -0.596  -5.738  0.00  0.00     0.030 C 
BRANCH  12  13
HETATM   13  C           1      -0.216  -2.032  -5.738  0.00  0.00     0.230 C 
BRANCH  13  14
HETATM   14  N           1      -1.716  -2.032  -5.738  0.00  0.00    -0.079 N 
HETATM   15  H           1      -2.065  -3.017  -5.738  0.00  0.00     0.274 HD
HETATM   16  H           1      -2.064  -1.539  -4.884  0.00  0.00     0.274 HD
HETATM   17  H           1      -2.064  -1.539  -6.591  0.00  0.00     0.274 HD
ENDBRANCH  13  14
ENDBRANCH  12  13
ENDBRANCH  11  12
ENDBRANCH  10  11
BRANCH  10  18
HETATM   18  C           1       1.809   1.549  -4.487  0.00  0.00     0.207 C 
HETATM   19  O           1       2.837   2.062  -3.993  0.00  0.00    -0.646 OA
HETATM   20  O           1       1.477   1.822  -5.660  0.00  0.00    -0.646 OA
ENDBRANCH  10  18
ENDBRANCH   8  10
ENDBRANCH   7   8
ENDBRANCH   6   7
ENDBRANCH   5   6
BRANCH   5  21
HETATM   21  C           1       2.102  -1.857  -0.705  0.00  0.00     0.196 C 
HETATM   22  O           1       1.544  -2.796  -0.096  0.00  0.00    -0.646 OA
HETATM   23  O           1       3.047  -2.094  -1.488  0.00  0.00    -0.646 OA
ENDBRANCH   5  21
ENDBRANCH   2   5
BRANCH   3  24
HETATM   24  C           1       1.268  -0.431   3.320  0.00  0.00     0.274 C 
BRANCH  24  25
HETATM   25  C           1       0.430  -1.374   4.174  0.00  0.00     0.044 C 
BRANCH  25  26
HETATM   26  C           1      -1.035  -1.256   3.772  0.00  0.00     0.023 C 
BRANCH  26  27
HETATM   27  C           1      -1.508   0.176   3.985  0.00  0.00     0.138 C 
BRANCH  27  28
HETATM   28  N           1      -2.620   0.187   4.946  0.00  0.00    -0.227 N 
HETATM   29  H           1      -2.961  -0.713   5.365  0.00  0.00     0.177 HD
HETATM   30  C           1      -3.166   1.283   5.269  0.00  0.00     0.665 C 
HETATM   31  N           1      -4.124   1.293   6.096  0.00  0.00    -0.235 N 
HETATM   32  N           1      -2.743   2.397   4.750  0.00  0.00    -0.235 N 
HETATM   33  H           1      -4.577   2.201   6.364  0.00  0.00     0.174 HD
HETATM   34  H           1      -4.466   0.392   6.515  0.00  0.00     0.174 HD
HETATM   35  H           1      -1.952   2.389   4.067  0.00  0.00     0.174 HD
HETATM   36  H           1      -3.194   3.302   5.017  0.00  0.00     0.174 HD
ENDBRANCH  27  28
ENDBRANCH  26  27
ENDBRANCH  25  26
ENDBRANCH  24  25
BRANCH  24  37
HETATM   37  N           1       0.802   0.980   3.530  0.00  0.00    -0.067 N 
HETATM   38  H           1       0.907   1.235   4.538  0.00  0.00     0.275 HD
HETATM   39  H           1       1.378   1.627   2.945  0.00  0.00     0.275 HD
HETATM   40  H           1      -0.202   1.059   3.254  0.00  0.00     0.275 HD
ENDBRANCH  24  37
ENDBRANCH   3  24
TORSDOF 17
