REMARK  16 active torsions:
REMARK  status: ('A' for Active; 'I' for Inactive)
REMARK       I    between atoms: N_1  and  C_15 
REMARK    1  A    between atoms: C_4  and  C_5 
REMARK    2  A    between atoms: C_5  and  C_6 
REMARK    3  A    between atoms: C_5  and  N_21 
REMARK    4  A    between atoms: C_6  and  C_7 
REMARK    5  A    between atoms: C_7  and  N_8 
REMARK    6  A    between atoms: N_8  and  C_34 
REMARK    7  A    between atoms: C_10  and  C_17 
REMARK    8  A    between atoms: C_10  and  N_24 
REMARK    9  A    between atoms: N_13  and  C_19 
REMARK       I    between atoms: N_14  and  C_15 
REMARK   10  A    between atoms: C_17  and  C_18 
REMARK   11  A    between atoms: C_18  and  C_19 
REMARK   12  A    between atoms: C_19  and  C_20 
REMARK       I    between atoms: C_20  and  N_21 
REMARK   13  A    between atoms: C_23  and  C_34 
REMARK   14  A    between atoms: C_29  and  O_30 
REMARK   15  A    between atoms: C_32  and  C_35 
REMARK   16  A    between atoms: C_34  and  C_35 
ROOT
HETATM    1  C           1      -0.473  -1.194   0.358  0.00  0.00     0.187 C 
ENDROOT
BRANCH   1   2
HETATM    2  C           1       0.042  -1.939   1.566  0.00  0.00     0.196 C 
HETATM    3  O           1       1.116  -2.575   1.497  0.00  0.00    -0.646 OA
HETATM    4  O           1      -0.607  -1.921   2.634  0.00  0.00    -0.646 OA
ENDBRANCH   1   2
BRANCH   1   5
HETATM    5  C           1       0.496  -1.376  -0.802  0.00  0.00     0.066 C 
BRANCH   5   6
HETATM    6  C           1       0.618  -2.858  -1.135  0.00  0.00     0.273 C 
BRANCH   6   7
HETATM    7  N           1       1.986  -3.274  -0.977  0.00  0.00     0.098 N 
HETATM    8  H           1       2.035  -4.023  -0.286  0.00  0.00     0.317 HD
BRANCH   7   9
HETATM    9  C           1       2.443  -3.765  -2.248  0.00  0.00     0.324 C 
BRANCH   9  10
HETATM   10  C           1       1.585  -4.931  -2.675  0.00  0.00     0.207 C 
HETATM   11  O           1       2.104  -6.051  -2.868  0.00  0.00    -0.646 OA
HETATM   12  O           1       0.355  -4.775  -2.836  0.00  0.00    -0.646 OA
ENDBRANCH   9  10
BRANCH   9  13
HETATM   13  C           1       3.892  -4.218  -2.125  0.00  0.00     0.085 C 
BRANCH  13  14
HETATM   14  C           1       4.802  -3.070  -2.430  0.00  0.00    -0.055 A 
HETATM   15  C           1       4.268  -1.825  -2.763  0.00  0.00     0.010 A 
HETATM   16  C           1       5.116  -0.755  -3.046  0.00  0.00     0.037 A 
HETATM   17  C           1       6.499  -0.929  -2.998  0.00  0.00     0.065 A 
HETATM   18  C           1       7.034  -2.174  -2.665  0.00  0.00     0.037 A 
HETATM   19  C           1       6.185  -3.244  -2.382  0.00  0.00     0.010 A 
BRANCH  17  20
HETATM   20  O           1       7.323   0.110  -3.274  0.00  0.00    -0.361 OA
HETATM   21  H           1       6.772   0.884  -3.481  0.00  0.00     0.217 HD
ENDBRANCH  17  20
ENDBRANCH  13  14
ENDBRANCH   9  13
ENDBRANCH   7   9
ENDBRANCH   6   7
ENDBRANCH   5   6
ENDBRANCH   1   5
BRANCH   1  22
HETATM   22  N           1      -0.587   0.216   0.674  0.00  0.00    -0.345 N 
HETATM   23  C           1      -1.408   0.626   1.691  0.00  0.00     0.249 C 
HETATM   24  O           1      -2.037  -0.188   2.324  0.00  0.00    -0.271 OA
HETATM   25  H           1      -0.060   0.898   0.144  0.00  0.00     0.163 HD
BRANCH  23  26
HETATM   26  C           1      -1.527   2.094   2.020  0.00  0.00     0.274 C 
BRANCH  26  27
HETATM   27  N           1      -2.039   2.834   0.820  0.00  0.00    -0.067 N 
HETATM   28  H           1      -2.122   3.851   1.047  0.00  0.00     0.275 HD
HETATM   29  H           1      -1.374   2.709   0.024  0.00  0.00     0.275 HD
HETATM   30  H           1      -2.977   2.459   0.554  0.00  0.00     0.275 HD
ENDBRANCH  26  27
BRANCH  26  31
HETATM   31  C           1      -2.496   2.278   3.180  0.00  0.00     0.044 C 
BRANCH  31  32
HETATM   32  C           1      -3.864   1.732   2.792  0.00  0.00     0.023 C 
BRANCH  32  33
HETATM   33  C           1      -4.896   2.850   2.864  0.00  0.00     0.138 C 
BRANCH  33  34
HETATM   34  N           1      -4.518   3.928   1.938  0.00  0.00    -0.227 N 
HETATM   35  C           1      -5.243   4.961   1.839  0.00  0.00     0.665 C 
HETATM   36  N           1      -6.322   5.069   2.556  0.00  0.00    -0.235 N 
HETATM   37  N           1      -4.917   5.889   1.042  0.00  0.00    -0.235 N 
HETATM   38  H           1      -6.920   5.921   2.475  0.00  0.00     0.174 HD
HETATM   39  H           1      -6.591   4.303   3.214  0.00  0.00     0.174 HD
HETATM   40  H           1      -5.518   6.745   0.960  0.00  0.00     0.174 HD
HETATM   41  H           1      -4.046   5.801   0.463  0.00  0.00     0.174 HD
HETATM   42  H           1      -3.646   3.840   1.359  0.00  0.00     0.177 HD
ENDBRANCH  33  34
ENDBRANCH  32  33
ENDBRANCH  31  32
ENDBRANCH  26  31
ENDBRANCH  23  26
ENDBRANCH   1  22
TORSDOF 16
