REMARK  15 active torsions:
REMARK  status: ('A' for Active; 'I' for Inactive)
REMARK    1  A    between atoms: N_6  and  C_20 
REMARK    2  A    between atoms: N_6  and  C_7 
REMARK    3  A    between atoms: C_7  and  C_8 
REMARK    4  A    between atoms: C_8  and  C_38 
REMARK    5  A    between atoms: N_9  and  C_38 
REMARK       I    between atoms: N_9  and  C_28 
REMARK    6  A    between atoms: C_18  and  C_19 
REMARK    7  A    between atoms: C_19  and  C_20 
REMARK    8  A    between atoms: C_20  and  C_22 
REMARK    9  A    between atoms: C_28  and  C_29 
REMARK   10  A    between atoms: C_29  and  C_30 
REMARK   11  A    between atoms: C_29  and  N_37 
REMARK   12  A    between atoms: C_30  and  C_31 
REMARK   13  A    between atoms: C_31  and  C_32 
REMARK   14  A    between atoms: C_32  and  N_33 
REMARK       I    between atoms: N_33  and  C_34 
REMARK       I    between atoms: C_34  and  N_35 
REMARK   15  A    between atoms: C_38  and  C_39 
ROOT
HETATM    1  N           1      -0.093  -0.610   0.913  0.00  0.00    -0.345 N 
HETATM    2  O           1       0.604   1.190   2.037  0.00  0.00    -0.271 OA
HETATM    3  H           1       0.089  -1.561   0.619  0.00  0.00     0.163 HD
HETATM    4  C           1       0.822   0.055   1.686  0.00  0.00     0.249 C 
ENDROOT
BRANCH   1   5
HETATM    5  C           1      -1.322   0.049   0.517  0.00  0.00     0.187 C 
BRANCH   5   6
HETATM    6  C           1      -2.157  -0.903  -0.330  0.00  0.00     0.066 C 
BRANCH   6   7
HETATM    7  C           1      -3.449  -0.212  -0.746  0.00  0.00     0.273 C 
BRANCH   7   8
HETATM    8  N           1      -3.140   0.965  -1.512  0.00  0.00     0.098 N 
HETATM    9  H           1      -2.128   1.050  -1.610  0.00  0.00     0.317 HD
BRANCH   8  10
HETATM   10  C           1      -3.737   0.811  -2.811  0.00  0.00     0.325 C 
BRANCH  10  11
HETATM   11  C           1      -5.245   0.657  -2.661  0.00  0.00     0.105 C 
BRANCH  11  12
HETATM   12  C           1      -5.588  -0.793  -2.516  0.00  0.00     0.028 A 
HETATM   13  N           1      -6.859  -1.281  -2.362  0.00  0.00    -0.355 N 
HETATM   14  C           1      -6.722  -2.584  -2.273  0.00  0.00     0.180 A 
ATOM     15  HN          1      -7.727  -0.746  -2.324  1.00  0.00     0.166 HD
HETATM   16  N           1      -5.410  -2.956  -2.364  0.00  0.00    -0.360 N 
HETATM   17  C           1      -4.670  -1.817  -2.521  0.00  0.00     0.114 A 
HETATM   18  H           1      -5.039  -3.937  -2.322  0.00  0.00     0.166 HD
ENDBRANCH  11  12
ENDBRANCH  10  11
BRANCH  10  19
HETATM   19  C           1      -3.436   2.029  -3.650  0.00  0.00     0.207 C 
HETATM   20  O           1      -4.371   2.726  -4.097  0.00  0.00    -0.646 OA
HETATM   21  O           1      -2.251   2.339  -3.897  0.00  0.00    -0.646 OA
ENDBRANCH  10  19
ENDBRANCH   8  10
ENDBRANCH   7   8
ENDBRANCH   6   7
ENDBRANCH   5   6
BRANCH   5  22
HETATM   22  C           1      -2.101   0.441   1.749  0.00  0.00     0.196 C 
HETATM   23  O           1      -1.597   1.221   2.585  0.00  0.00    -0.646 OA
HETATM   24  O           1      -3.251  -0.014   1.933  0.00  0.00    -0.646 OA
ENDBRANCH   5  22
ENDBRANCH   1   5
BRANCH   4  25
HETATM   25  C           1       2.101  -0.631   2.097  0.00  0.00     0.274 C 
BRANCH  25  26
HETATM   26  C           1       2.937   0.319   2.945  0.00  0.00     0.044 C 
BRANCH  26  27
HETATM   27  C           1       3.267   1.566   2.135  0.00  0.00     0.023 C 
BRANCH  27  28
HETATM   28  C           1       4.779   1.705   2.010  0.00  0.00     0.138 C 
BRANCH  28  29
HETATM   29  N           1       5.326   0.521   1.332  0.00  0.00    -0.227 N 
HETATM   30  H           1       4.684  -0.249   1.020  0.00  0.00     0.177 HD
HETATM   31  C           1       6.572   0.430   1.123  0.00  0.00     0.665 C 
HETATM   32  N           1       7.043  -0.589   0.539  0.00  0.00    -0.235 N 
HETATM   33  N           1       7.366   1.384   1.509  0.00  0.00    -0.235 N 
HETATM   34  H           1       8.076  -0.664   0.366  0.00  0.00     0.174 HD
HETATM   35  H           1       6.401  -1.359   0.227  0.00  0.00     0.174 HD
HETATM   36  H           1       8.394   1.309   1.337  0.00  0.00     0.174 HD
HETATM   37  H           1       6.977   2.225   1.992  0.00  0.00     0.174 HD
ENDBRANCH  28  29
ENDBRANCH  27  28
ENDBRANCH  26  27
ENDBRANCH  25  26
BRANCH  25  38
HETATM   38  N           1       2.876  -1.020   0.873  0.00  0.00    -0.067 N 
HETATM   39  H           1       3.102  -0.164   0.318  0.00  0.00     0.275 HD
HETATM   40  H           1       2.303  -1.672   0.292  0.00  0.00     0.275 HD
HETATM   41  H           1       3.762  -1.495   1.157  0.00  0.00     0.275 HD
ENDBRANCH  25  38
ENDBRANCH   4  25
TORSDOF 15
