REMARK  16 active torsions:
REMARK  status: ('A' for Active; 'I' for Inactive)
REMARK       I    between atoms: C_1  and  N_23 
REMARK    1  A    between atoms: C_1  and  C_21 
REMARK    2  A    between atoms: C_3  and  C_4 
REMARK    3  A    between atoms: C_4  and  C_5 
REMARK    4  A    between atoms: C_4  and  N_33 
REMARK    5  A    between atoms: C_5  and  C_6 
REMARK    6  A    between atoms: C_6  and  C_8 
REMARK    7  A    between atoms: C_13  and  C_30 
REMARK       I    between atoms: N_14  and  C_16 
REMARK       I    between atoms: N_15  and  C_16 
REMARK    8  A    between atoms: N_17  and  C_18 
REMARK    9  A    between atoms: C_18  and  C_19 
REMARK   10  A    between atoms: C_19  and  C_20 
REMARK   11  A    between atoms: C_20  and  C_21 
REMARK   12  A    between atoms: C_21  and  N_36 
REMARK   13  A    between atoms: N_23  and  C_30 
REMARK   14  A    between atoms: C_30  and  C_31 
REMARK   15  A    between atoms: C_31  and  C_32 
REMARK   16  A    between atoms: C_32  and  N_33 
ROOT
HETATM    1  C           1      -1.528   0.272  -0.260  0.00  0.00     0.249 C 
HETATM    2  H           1       0.360  -0.577  -0.309  0.00  0.00     0.163 HD
HETATM    3  N           1      -0.159   0.292  -0.283  0.00  0.00    -0.345 N 
HETATM    4  O           1      -2.147   1.308  -0.228  0.00  0.00    -0.271 OA
ENDROOT
BRANCH   1   5
HETATM    5  C           1      -2.263  -1.046  -0.274  0.00  0.00     0.274 C 
BRANCH   5   6
HETATM    6  C           1      -3.764  -0.791  -0.243  0.00  0.00     0.044 C 
BRANCH   6   7
HETATM    7  C           1      -4.123  -0.023   1.022  0.00  0.00     0.023 C 
BRANCH   7   8
HETATM    8  C           1      -5.104  -0.841   1.852  0.00  0.00     0.138 C 
BRANCH   8   9
HETATM    9  N           1      -4.487  -2.125   2.217  0.00  0.00    -0.227 N 
HETATM   10  C           1      -5.133  -2.963   2.911  0.00  0.00     0.665 C 
HETATM   11  N           1      -6.343  -2.689   3.302  0.00  0.00    -0.235 N 
HETATM   12  N           1      -4.602  -4.068   3.226  0.00  0.00    -0.235 N 
HETATM   13  H           1      -6.876  -3.381   3.875  0.00  0.00     0.174 HD
HETATM   14  H           1      -6.781  -1.777   3.042  0.00  0.00     0.174 HD
HETATM   15  H           1      -5.138  -4.764   3.802  0.00  0.00     0.174 HD
HETATM   16  H           1      -3.625  -4.290   2.910  0.00  0.00     0.174 HD
HETATM   17  H           1      -3.510  -2.346   1.902  0.00  0.00     0.177 HD
ENDBRANCH   8   9
ENDBRANCH   7   8
ENDBRANCH   6   7
ENDBRANCH   5   6
BRANCH   5  18
HETATM   18  N           1      -1.869  -1.851   0.929  0.00  0.00    -0.067 N 
HETATM   19  H           1      -2.115  -1.323   1.797  0.00  0.00     0.275 HD
HETATM   20  H           1      -0.839  -2.026   0.908  0.00  0.00     0.275 HD
HETATM   21  H           1      -2.377  -2.763   0.920  0.00  0.00     0.275 HD
ENDBRANCH   5  18
ENDBRANCH   1   5
BRANCH   3  22
HETATM   22  C           1       0.548   1.558  -0.269  0.00  0.00     0.187 C 
BRANCH  22  23
HETATM   23  C           1       0.150   2.368  -1.479  0.00  0.00     0.196 C 
HETATM   24  O           1      -1.045   2.691  -1.649  0.00  0.00    -0.646 OA
HETATM   25  O           1       1.016   2.716  -2.310  0.00  0.00    -0.646 OA
ENDBRANCH  22  23
BRANCH  22  26
HETATM   26  C           1       2.049   1.301  -0.300  0.00  0.00     0.066 C 
BRANCH  26  27
HETATM   27  C           1       2.792   2.630  -0.287  0.00  0.00     0.273 C 
BRANCH  27  28
HETATM   28  N           1       3.598   2.742  -1.473  0.00  0.00     0.098 N 
HETATM   29  H           1       4.109   3.624  -1.455  0.00  0.00     0.317 HD
BRANCH  28  30
HETATM   30  C           1       4.530   1.647  -1.472  0.00  0.00     0.320 C 
BRANCH  30  31
HETATM   31  C           1       5.397   1.727  -0.239  0.00  0.00     0.207 C 
HETATM   32  O           1       4.875   1.680   0.896  0.00  0.00    -0.646 OA
HETATM   33  O           1       6.637   1.840  -0.353  0.00  0.00    -0.646 OA
ENDBRANCH  30  31
BRANCH  30  34
HETATM   34  C           1       5.406   1.727  -2.715  0.00  0.00     0.057 C 
BRANCH  34  35
HETATM   35  C           1       6.395   0.569  -2.715  0.00  0.00     0.116 C 
BRANCH  35  36
HETATM   36  C           1       5.641  -0.738  -2.715  0.00  0.00     0.172 C 
HETATM   37  O           1       6.266  -1.821  -2.715  0.00  0.00    -0.648 OA
HETATM   38  O           1       4.391  -0.738  -2.715  0.00  0.00    -0.648 OA
ENDBRANCH  35  36
ENDBRANCH  34  35
ENDBRANCH  30  34
ENDBRANCH  28  30
ENDBRANCH  27  28
ENDBRANCH  26  27
ENDBRANCH  22  26
ENDBRANCH   3  22
TORSDOF 16
