REMARK  15 active torsions:
REMARK  status: ('A' for Active; 'I' for Inactive)
REMARK    1  A    between atoms: N_4  and  C_12 
REMARK       I    between atoms: N_5  and  C_7 
REMARK       I    between atoms: N_6  and  C_7 
REMARK    2  A    between atoms: N_8  and  C_9 
REMARK    3  A    between atoms: C_9  and  C_10 
REMARK    4  A    between atoms: C_10  and  C_11 
REMARK    5  A    between atoms: C_11  and  C_12 
REMARK    6  A    between atoms: C_12  and  C_13 
REMARK       I    between atoms: C_13  and  N_14 
REMARK    7  A    between atoms: N_14  and  C_18 
REMARK    8  A    between atoms: C_17  and  C_18 
REMARK    9  A    between atoms: C_18  and  C_19 
REMARK   10  A    between atoms: C_19  and  C_20 
REMARK   11  A    between atoms: C_20  and  N_21 
REMARK   12  A    between atoms: N_21  and  C_25 
REMARK   13  A    between atoms: C_24  and  C_25 
REMARK   14  A    between atoms: C_25  and  C_26 
REMARK   15  A    between atoms: C_26  and  C_28 
REMARK       I    between atoms: N_27  and  C_28 
ROOT
HETATM    1  O           1       0.998   1.025  -1.448  0.00  0.00    -0.271 OA
HETATM    2  C           1      -0.034   1.453  -0.989  0.00  0.00     0.249 C 
HETATM    3  N           1      -1.190   0.731  -1.115  0.00  0.00    -0.345 N 
HETATM    4  H           1      -2.055   1.090  -0.730  0.00  0.00     0.163 HD
ENDROOT
BRANCH   3   5
HETATM    5  C           1      -1.177  -0.547  -1.798  0.00  0.00     0.187 C 
BRANCH   5   6
HETATM    6  C           1      -0.712  -0.351  -3.221  0.00  0.00     0.196 C 
HETATM    7  O           1      -1.461  -0.665  -4.171  0.00  0.00    -0.646 OA
HETATM    8  O           1       0.421   0.125  -3.448  0.00  0.00    -0.646 OA
ENDBRANCH   5   6
BRANCH   5   9
HETATM    9  C           1      -2.581  -1.138  -1.798  0.00  0.00     0.066 C 
BRANCH   9  10
HETATM   10  C           1      -2.771  -1.997  -0.555  0.00  0.00     0.273 C 
BRANCH  10  11
HETATM   11  N           1      -1.804  -3.062  -0.555  0.00  0.00     0.099 N 
HETATM   12  H           1      -1.231  -3.001   0.287  0.00  0.00     0.317 HD
BRANCH  11  13
HETATM   13  C           1      -2.524  -4.306  -0.556  0.00  0.00     0.328 C 
BRANCH  13  14
HETATM   14  C           1      -3.392  -4.385   0.676  0.00  0.00     0.207 C 
HETATM   15  O           1      -3.226  -5.311   1.499  0.00  0.00    -0.646 OA
HETATM   16  O           1      -4.277  -3.524   0.873  0.00  0.00    -0.646 OA
ENDBRANCH  13  14
BRANCH  13  17
HETATM   17  C           1      -1.535  -5.464  -0.556  0.00  0.00     0.149 C 
BRANCH  17  18
HETATM   18  C           1      -2.290  -6.771  -0.556  0.00  0.00     0.217 C 
HETATM   19  N           1      -1.605  -7.957  -0.556  0.00  0.00    -0.370 N 
HETATM   20  H           1      -2.111  -8.833  -0.556  0.00  0.00     0.159 HD
HETATM   21  H           1      -0.593  -7.957  -0.556  0.00  0.00     0.159 HD
HETATM   22  O           1      -3.498  -6.771  -0.556  0.00  0.00    -0.274 OA
ENDBRANCH  17  18
ENDBRANCH  13  17
ENDBRANCH  11  13
ENDBRANCH  10  11
ENDBRANCH   9  10
ENDBRANCH   5   9
ENDBRANCH   3   5
BRANCH   2  23
HETATM   23  C           1      -0.049   2.784  -0.278  0.00  0.00     0.274 C 
BRANCH  23  24
HETATM   24  N           1      -0.509   2.589   1.137  0.00  0.00    -0.067 N 
HETATM   25  H           1      -0.519   3.510   1.630  0.00  0.00     0.275 HD
HETATM   26  H           1      -1.472   2.183   1.136  0.00  0.00     0.275 HD
HETATM   27  H           1       0.144   1.937   1.629  0.00  0.00     0.275 HD
ENDBRANCH  23  24
BRANCH  23  28
HETATM   28  C           1       1.355   3.375  -0.277  0.00  0.00     0.044 C 
BRANCH  28  29
HETATM   29  C           1       2.306   2.427   0.441  0.00  0.00     0.023 C 
BRANCH  29  30
HETATM   30  C           1       2.924   3.137   1.638  0.00  0.00     0.138 C 
BRANCH  30  31
HETATM   31  N           1       3.667   4.319   1.178  0.00  0.00    -0.227 N 
HETATM   32  C           1       4.263   5.058   2.015  0.00  0.00     0.665 C 
HETATM   33  N           1       4.218   4.771   3.282  0.00  0.00    -0.235 N 
HETATM   34  N           1       4.903   6.075   1.618  0.00  0.00    -0.235 N 
HETATM   35  H           1       4.710   5.381   3.974  0.00  0.00     0.174 HD
HETATM   36  H           1       3.690   3.931   3.610  0.00  0.00     0.174 HD
HETATM   37  H           1       5.398   6.688   2.313  0.00  0.00     0.174 HD
HETATM   38  H           1       4.940   6.307   0.595  0.00  0.00     0.174 HD
HETATM   39  H           1       3.704   4.550   0.154  0.00  0.00     0.177 HD
ENDBRANCH  30  31
ENDBRANCH  29  30
ENDBRANCH  28  29
ENDBRANCH  23  28
ENDBRANCH   2  23
TORSDOF 15
