REMARK  16 active torsions:
REMARK  status: ('A' for Active; 'I' for Inactive)
REMARK    1  A    between atoms: C_5  and  C_19 
REMARK    2  A    between atoms: C_5  and  C_6 
REMARK    3  A    between atoms: C_6  and  C_7 
REMARK    4  A    between atoms: C_7  and  N_8 
REMARK       I    between atoms: N_8  and  C_9 
REMARK       I    between atoms: C_9  and  N_10 
REMARK    5  A    between atoms: N_12  and  C_19 
REMARK    6  A    between atoms: C_13  and  C_20 
REMARK    7  A    between atoms: C_13  and  C_14 
REMARK    8  A    between atoms: C_13  and  N_28 
REMARK    9  A    between atoms: C_19  and  C_29 
REMARK   10  A    between atoms: C_20  and  C_21 
REMARK   11  A    between atoms: C_21  and  S_22 
REMARK   12  A    between atoms: C_24  and  C_25 
REMARK   13  A    between atoms: C_25  and  C_26 
REMARK   14  A    between atoms: C_25  and  N_30 
REMARK   15  A    between atoms: C_26  and  C_27 
REMARK   16  A    between atoms: C_27  and  N_28 
REMARK       I    between atoms: C_29  and  N_30 
ROOT
HETATM    1  O           1       0.844   1.674  -1.345  0.00  0.00    -0.271 OA
HETATM    2  H           1       2.210  -1.125  -0.970  0.00  0.00     0.163 HD
HETATM    3  C           1       1.323   0.612  -1.664  0.00  0.00     0.249 C 
HETATM    4  N           1       1.808  -0.236  -0.704  0.00  0.00    -0.345 N 
ENDROOT
BRANCH   3   5
HETATM    5  C           1       1.388   0.219  -3.119  0.00  0.00     0.274 C 
BRANCH   5   6
HETATM    6  C           1       0.787   1.328  -3.972  0.00  0.00     0.044 C 
BRANCH   6   7
HETATM    7  C           1      -0.665   1.548  -3.571  0.00  0.00     0.023 C 
BRANCH   7   8
HETATM    8  C           1      -1.453   0.262  -3.784  0.00  0.00     0.138 C 
BRANCH   8   9
HETATM    9  N           1      -2.538   0.505  -4.745  0.00  0.00    -0.227 N 
HETATM   10  C           1      -3.320  -0.437  -5.068  0.00  0.00     0.665 C 
HETATM   11  N           1      -4.255  -0.228  -5.895  0.00  0.00    -0.235 N 
HETATM   12  N           1      -3.163  -1.619  -4.549  0.00  0.00    -0.235 N 
HETATM   13  H           1      -4.904  -1.009  -6.163  0.00  0.00     0.174 HD
HETATM   14  H           1      -4.382   0.726  -6.314  0.00  0.00     0.174 HD
HETATM   15  H           1      -3.808  -2.396  -4.816  0.00  0.00     0.174 HD
HETATM   16  H           1      -2.391  -1.791  -3.866  0.00  0.00     0.174 HD
HETATM   17  H           1      -2.665   1.459  -5.163  0.00  0.00     0.177 HD
ENDBRANCH   8   9
ENDBRANCH   7   8
ENDBRANCH   6   7
ENDBRANCH   5   6
BRANCH   5  18
HETATM   18  N           1       0.612  -1.048  -3.329  0.00  0.00    -0.067 N 
HETATM   19  H           1       0.656  -1.321  -4.337  0.00  0.00     0.275 HD
HETATM   20  H           1       1.025  -1.809  -2.744  0.00  0.00     0.275 HD
HETATM   21  H           1      -0.384  -0.896  -3.053  0.00  0.00     0.275 HD
ENDBRANCH   5  18
ENDBRANCH   3   5
BRANCH   4  22
HETATM   22  C           1       1.746   0.142   0.695  0.00  0.00     0.187 C 
BRANCH  22  23
HETATM   23  C           1       2.525   1.417   0.906  0.00  0.00     0.196 C 
HETATM   24  O           1       2.197   2.458   0.297  0.00  0.00    -0.646 OA
HETATM   25  O           1       3.499   1.432   1.689  0.00  0.00    -0.646 OA
ENDBRANCH  22  23
BRANCH  22  26
HETATM   26  C           1       2.347  -0.968   1.547  0.00  0.00     0.066 C 
BRANCH  26  27
HETATM   27  C           1       1.256  -1.954   1.941  0.00  0.00     0.273 C 
BRANCH  27  28
HETATM   28  N           1       0.240  -1.270   2.694  0.00  0.00     0.098 N 
HETATM   29  H           1      -0.483  -1.934   2.973  0.00  0.00     0.317 HD
BRANCH  28  30
HETATM   30  C           1       0.862  -0.718   3.867  0.00  0.00     0.321 C 
BRANCH  30  31
HETATM   31  C           1      -0.182   0.018   4.696  0.00  0.00     0.057 C 
BRANCH  31  32
HETATM   32  C           1       0.476   0.602   5.940  0.00  0.00     0.076 C 
BRANCH  32  33
HETATM   33  S           1       0.277   2.406   5.940  0.00  0.00    -0.173 SA
HETATM   34  C           1      -1.538   2.406   5.940  0.00  0.00     0.089 C 
ENDBRANCH  32  33
ENDBRANCH  31  32
ENDBRANCH  30  31
BRANCH  30  35
HETATM   35  C           1       1.463  -1.832   4.688  0.00  0.00     0.207 C 
HETATM   36  O           1       2.346  -2.566   4.194  0.00  0.00    -0.646 OA
HETATM   37  O           1       1.077  -2.022   5.862  0.00  0.00    -0.646 OA
ENDBRANCH  30  35
ENDBRANCH  28  30
ENDBRANCH  27  28
ENDBRANCH  26  27
ENDBRANCH  22  26
ENDBRANCH   4  22
TORSDOF 16
