REMARK  14 active torsions:
REMARK  status: ('A' for Active; 'I' for Inactive)
REMARK    1  A    between atoms: C_1  and  C_28 
REMARK    2  A    between atoms: C_1  and  C_16 
REMARK    3  A    between atoms: C_5  and  C_16 
REMARK    4  A    between atoms: C_6  and  C_7 
REMARK    5  A    between atoms: C_6  and  C_26 
REMARK    6  A    between atoms: C_6  and  N_29 
REMARK       I    between atoms: C_7  and  N_8 
REMARK    7  A    between atoms: N_8  and  C_16 
REMARK    8  A    between atoms: C_10  and  C_24 
REMARK    9  A    between atoms: C_10  and  C_11 
REMARK   10  A    between atoms: C_10  and  N_27 
REMARK   11  A    between atoms: C_18  and  C_25 
REMARK   12  A    between atoms: C_18  and  N_19 
REMARK       I    between atoms: N_19  and  C_20 
REMARK       I    between atoms: C_20  and  N_21 
REMARK   13  A    between atoms: C_25  and  C_26 
REMARK   14  A    between atoms: N_27  and  C_28 
ROOT
HETATM    1  C           1      -0.453  -0.663   1.750  0.00  0.00     0.249 C 
HETATM    2  N           1       0.893  -0.805   1.540  0.00  0.00    -0.345 N 
HETATM    3  H           1       1.551  -0.448   2.221  0.00  0.00     0.163 HD
HETATM    4  O           1      -1.239  -1.089   0.937  0.00  0.00    -0.271 OA
ENDROOT
BRANCH   1   5
HETATM    5  C           1      -0.954   0.026   2.995  0.00  0.00     0.274 C 
BRANCH   5   6
HETATM    6  C           1      -2.476   0.051   2.985  0.00  0.00     0.044 C 
BRANCH   6   7
HETATM    7  C           1      -2.963   0.808   1.756  0.00  0.00     0.023 C 
BRANCH   7   8
HETATM    8  C           1      -2.433   2.235   1.795  0.00  0.00     0.138 C 
BRANCH   8   9
HETATM    9  N           1      -3.561   3.178   1.810  0.00  0.00    -0.227 N 
HETATM   10  H           1      -4.547   2.817   1.794  0.00  0.00     0.177 HD
HETATM   11  C           1      -3.343   4.425   1.842  0.00  0.00     0.665 C 
HETATM   12  N           1      -4.314   5.237   1.855  0.00  0.00    -0.235 N 
HETATM   13  N           1      -2.122   4.871   1.862  0.00  0.00    -0.235 N 
HETATM   14  H           1      -5.300   4.876   1.840  0.00  0.00     0.174 HD
HETATM   15  H           1      -4.134   6.271   1.882  0.00  0.00     0.174 HD
HETATM   16  H           1      -1.321   4.201   1.851  0.00  0.00     0.174 HD
HETATM   17  H           1      -1.943   5.900   1.888  0.00  0.00     0.174 HD
ENDBRANCH   8   9
ENDBRANCH   7   8
ENDBRANCH   6   7
ENDBRANCH   5   6
BRANCH   5  18
HETATM   18  N           1      -0.431   1.431   3.034  0.00  0.00    -0.067 N 
HETATM   19  H           1       0.614   1.413   3.042  0.00  0.00     0.275 HD
HETATM   20  H           1      -0.778   1.909   3.896  0.00  0.00     0.275 HD
HETATM   21  H           1      -0.765   1.950   2.190  0.00  0.00     0.275 HD
ENDBRANCH   5  18
ENDBRANCH   1   5
BRANCH   2  22
HETATM   22  C           1       1.374  -1.467   0.343  0.00  0.00     0.187 C 
BRANCH  22  23
HETATM   23  C           1       2.897  -1.491   0.355  0.00  0.00     0.066 C 
BRANCH  23  24
HETATM   24  C           1       3.404  -2.187  -0.901  0.00  0.00     0.273 C 
BRANCH  24  25
HETATM   25  N           1       2.946  -1.474  -2.063  0.00  0.00     0.098 N 
HETATM   26  H           1       3.750  -1.168  -2.612  0.00  0.00     0.317 HD
BRANCH  25  27
HETATM   27  C           1       2.147  -2.378  -2.844  0.00  0.00     0.323 C 
BRANCH  27  28
HETATM   28  C           1       1.640  -1.661  -4.088  0.00  0.00     0.021 C 
HETATM   29  C           1       2.149  -0.225  -4.088  0.00  0.00     0.012 C 
HETATM   30  C           1       0.117  -1.661  -4.088  0.00  0.00     0.012 C 
ENDBRANCH  27  28
BRANCH  27  31
HETATM   31  C           1       2.985  -3.564  -3.253  0.00  0.00     0.207 C 
HETATM   32  O           1       3.502  -4.295  -2.380  0.00  0.00    -0.646 OA
HETATM   33  O           1       3.163  -3.816  -4.464  0.00  0.00    -0.646 OA
ENDBRANCH  27  31
ENDBRANCH  25  27
ENDBRANCH  24  25
ENDBRANCH  23  24
ENDBRANCH  22  23
BRANCH  22  34
HETATM   34  C           1       0.848  -2.880   0.304  0.00  0.00     0.196 C 
HETATM   35  O           1       1.644  -3.844   0.288  0.00  0.00    -0.646 OA
HETATM   36  O           1      -0.385  -3.088   0.289  0.00  0.00    -0.646 OA
ENDBRANCH  22  34
ENDBRANCH   2  22
TORSDOF 14
