REMARK  18 active torsions:
REMARK  status: ('A' for Active; 'I' for Inactive)
REMARK       I    between atoms: N_1  and  C_41 
REMARK    1  A    between atoms: N_2  and  C_23 
REMARK    2  A    between atoms: C_6  and  O_7 
REMARK    3  A    between atoms: O_7  and  P_8 
REMARK    4  A    between atoms: P_8  and  O_10 
REMARK    5  A    between atoms: N_14  and  C_35 
REMARK    6  A    between atoms: N_14  and  C_15 
REMARK    7  A    between atoms: C_15  and  C_16 
REMARK    8  A    between atoms: C_16  and  C_17 
REMARK    9  A    between atoms: C_17  and  C_18 
REMARK   10  A    between atoms: C_17  and  N_21 
REMARK       I    between atoms: N_21  and  C_22 
REMARK   11  A    between atoms: C_22  and  C_23 
REMARK   12  A    between atoms: C_23  and  C_30 
REMARK   13  A    between atoms: C_26  and  C_30 
REMARK   14  A    between atoms: C_26  and  C_27 
REMARK   15  A    between atoms: C_27  and  N_40 
REMARK   16  A    between atoms: C_33  and  C_35 
REMARK   17  A    between atoms: C_35  and  C_36 
REMARK   18  A    between atoms: C_36  and  C_37 
REMARK       I    between atoms: N_40  and  C_41 
ROOT
HETATM    1  C           1      -0.171   0.817   0.606  0.00  0.00     0.187 C 
ENDROOT
BRANCH   1   2
HETATM    2  C           1      -1.213   0.079  -0.225  0.00  0.00     0.066 C 
BRANCH   2   3
HETATM    3  C           1      -2.061   1.087  -0.989  0.00  0.00     0.273 C 
BRANCH   3   4
HETATM    4  N           1      -1.219   1.863  -1.858  0.00  0.00     0.098 N 
HETATM    5  H           1      -0.254   1.543  -1.770  0.00  0.00     0.317 HD
BRANCH   4   6
HETATM    6  C           1      -1.672   1.656  -3.206  0.00  0.00     0.324 C 
BRANCH   6   7
HETATM    7  C           1      -0.812   2.455  -4.154  0.00  0.00     0.207 C 
HETATM    8  O           1       0.418   2.241  -4.213  0.00  0.00    -0.646 OA
HETATM    9  O           1      -1.330   3.331  -4.880  0.00  0.00    -0.646 OA
ENDBRANCH   6   7
BRANCH   6  10
HETATM   10  C           1      -3.121   2.109  -3.329  0.00  0.00     0.085 C 
BRANCH  10  11
HETATM   11  C           1      -4.032   0.960  -3.025  0.00  0.00    -0.055 A 
HETATM   12  C           1      -3.497  -0.284  -2.692  0.00  0.00     0.010 A 
HETATM   13  C           1      -4.345  -1.355  -2.408  0.00  0.00     0.038 A 
HETATM   14  C           1      -5.728  -1.180  -2.457  0.00  0.00     0.081 A 
HETATM   15  C           1      -6.263   0.065  -2.789  0.00  0.00     0.038 A 
HETATM   16  C           1      -5.415   1.135  -3.073  0.00  0.00     0.010 A 
BRANCH  14  17
HETATM   17  O           1      -6.552  -2.220  -2.181  0.00  0.00    -0.247 OA
BRANCH  17  18
HETATM   18  P           1      -8.145  -1.964  -2.252  0.00  0.00     0.411 P 
HETATM   19  O           1      -8.520  -0.910  -1.283  0.00  0.00    -0.624 OA
HETATM   20  O           1      -8.861  -3.216  -1.919  0.00  0.00    -0.624 OA
BRANCH  18  21
HETATM   21  O           1      -8.548  -1.491  -3.743  0.00  0.00    -0.300 OA
HETATM   22  H           1      -9.481  -1.361  -3.713  0.00  0.00     0.223 HD
ENDBRANCH  18  21
ENDBRANCH  17  18
ENDBRANCH  14  17
ENDBRANCH  10  11
ENDBRANCH   6  10
ENDBRANCH   4   6
ENDBRANCH   3   4
ENDBRANCH   2   3
ENDBRANCH   1   2
BRANCH   1  23
HETATM   23  C           1      -0.864   1.733   1.584  0.00  0.00     0.196 C 
HETATM   24  O           1      -0.189   2.437   2.367  0.00  0.00    -0.646 OA
HETATM   25  O           1      -2.112   1.789   1.611  0.00  0.00    -0.646 OA
ENDBRANCH   1  23
BRANCH   1  26
HETATM   26  N           1       0.636  -0.144   1.333  0.00  0.00    -0.345 N 
HETATM   27  C           1       1.644   0.289   2.152  0.00  0.00     0.249 C 
HETATM   28  O           1       1.861   1.471   2.269  0.00  0.00    -0.271 OA
HETATM   29  H           1       0.454  -1.135   1.235  0.00  0.00     0.163 HD
BRANCH  27  30
HETATM   30  C           1       2.483  -0.711   2.908  0.00  0.00     0.274 C 
BRANCH  30  31
HETATM   31  N           1       3.172  -1.622   1.936  0.00  0.00    -0.067 N 
HETATM   32  H           1       3.754  -2.314   2.459  0.00  0.00     0.275 HD
HETATM   33  H           1       2.457  -2.128   1.366  0.00  0.00     0.275 HD
HETATM   34  H           1       3.786  -1.057   1.305  0.00  0.00     0.275 HD
ENDBRANCH  30  31
BRANCH  30  35
HETATM   35  C           1       3.525   0.026   3.739  0.00  0.00     0.044 C 
BRANCH  35  36
HETATM   36  C           1       4.420   0.847   2.821  0.00  0.00     0.023 C 
BRANCH  36  37
HETATM   37  C           1       5.864   0.385   2.971  0.00  0.00     0.138 C 
BRANCH  37  38
HETATM   38  N           1       5.964  -1.037   2.610  0.00  0.00    -0.227 N 
HETATM   39  H           1       5.108  -1.563   2.306  0.00  0.00     0.177 HD
HETATM   40  C           1       7.083  -1.626   2.664  0.00  0.00     0.665 C 
HETATM   41  N           1       8.144  -0.974   3.040  0.00  0.00    -0.235 N 
HETATM   42  N           1       7.170  -2.850   2.353  0.00  0.00    -0.235 N 
HETATM   43  H           1       9.067  -1.461   3.085  0.00  0.00     0.174 HD
HETATM   44  H           1       8.072   0.036   3.297  0.00  0.00     0.174 HD
HETATM   45  H           1       8.098  -3.339   2.398  0.00  0.00     0.174 HD
HETATM   46  H           1       6.313  -3.376   2.049  0.00  0.00     0.174 HD
ENDBRANCH  37  38
ENDBRANCH  36  37
ENDBRANCH  35  36
ENDBRANCH  30  35
ENDBRANCH  27  30
ENDBRANCH   1  26
TORSDOF 18
