REMARK  15 active torsions:
REMARK  status: ('A' for Active; 'I' for Inactive)
REMARK    1  A    between atoms: C_8  and  N_9 
REMARK    2  A    between atoms: C_8  and  C_36 
REMARK    3  A    between atoms: N_9  and  C_28 
REMARK    4  A    between atoms: N_14  and  C_15 
REMARK       I    between atoms: N_14  and  C_40 
REMARK    5  A    between atoms: C_15  and  C_16 
REMARK    6  A    between atoms: C_16  and  C_18 
REMARK    7  A    between atoms: C_18  and  C_19 
REMARK    8  A    between atoms: C_19  and  C_20 
REMARK    9  A    between atoms: C_19  and  N_26 
REMARK       I    between atoms: C_20  and  N_21 
REMARK   10  A    between atoms: N_21  and  C_35 
REMARK   11  A    between atoms: C_24  and  C_35 
REMARK       I    between atoms: N_25  and  C_40 
REMARK   12  A    between atoms: C_28  and  C_34 
REMARK   13  A    between atoms: C_28  and  C_29 
REMARK   14  A    between atoms: C_29  and  C_30 
REMARK   15  A    between atoms: C_35  and  C_36 
ROOT
HETATM    1  C           1      -0.129   0.296  -0.803  0.00  0.00     0.187 C 
ENDROOT
BRANCH   1   2
HETATM    2  N           1      -0.400  -1.125  -0.906  0.00  0.00    -0.345 N 
HETATM    3  H           1       0.282  -1.795  -0.576  0.00  0.00     0.163 HD
HETATM    4  C           1      -1.578  -1.559  -1.451  0.00  0.00     0.249 C 
HETATM    5  O           1      -2.392  -0.759  -1.846  0.00  0.00    -0.271 OA
BRANCH   4   6
HETATM    6  C           1      -1.860  -3.037  -1.559  0.00  0.00     0.274 C 
BRANCH   6   7
HETATM    7  C           1      -3.227  -3.249  -2.196  0.00  0.00     0.044 C 
BRANCH   7   8
HETATM    8  C           1      -4.297  -2.590  -1.335  0.00  0.00     0.023 C 
BRANCH   8   9
HETATM    9  C           1      -5.294  -3.643  -0.868  0.00  0.00     0.138 C 
BRANCH   9  10
HETATM   10  N           1      -4.594  -4.667  -0.080  0.00  0.00    -0.227 N 
HETATM   11  H           1      -3.559  -4.590   0.079  0.00  0.00     0.177 HD
HETATM   12  C           1      -5.238  -5.642   0.408  0.00  0.00     0.665 C 
HETATM   13  N           1      -4.635  -6.523   1.087  0.00  0.00    -0.235 N 
HETATM   14  N           1      -6.520  -5.737   0.211  0.00  0.00    -0.235 N 
HETATM   15  H           1      -3.600  -6.447   1.246  0.00  0.00     0.174 HD
HETATM   16  H           1      -5.170  -7.332   1.491  0.00  0.00     0.174 HD
HETATM   17  H           1      -7.018  -5.009  -0.350  0.00  0.00     0.174 HD
HETATM   18  H           1      -7.052  -6.541   0.613  0.00  0.00     0.174 HD
ENDBRANCH   9  10
ENDBRANCH   8   9
ENDBRANCH   7   8
ENDBRANCH   6   7
BRANCH   6  19
HETATM   19  N           1      -1.848  -3.649  -0.189  0.00  0.00    -0.067 N 
HETATM   20  H           1      -2.043  -4.673  -0.262  0.00  0.00     0.275 HD
HETATM   21  H           1      -0.909  -3.504   0.248  0.00  0.00     0.275 HD
HETATM   22  H           1      -2.581  -3.196   0.401  0.00  0.00     0.275 HD
ENDBRANCH   6  19
ENDBRANCH   4   6
ENDBRANCH   1   2
BRANCH   1  23
HETATM   23  C           1      -0.143   0.911  -2.181  0.00  0.00     0.196 C 
HETATM   24  O           1       0.879   1.481  -2.622  0.00  0.00    -0.646 OA
HETATM   25  O           1      -1.176   0.851  -2.882  0.00  0.00    -0.646 OA
ENDBRANCH   1  23
BRANCH   1  26
HETATM   26  C           1       1.238   0.507  -0.166  0.00  0.00     0.066 C 
BRANCH  26  27
HETATM   27  C           1       1.525   1.999  -0.058  0.00  0.00     0.273 C 
BRANCH  27  28
HETATM   28  N           1       0.516   2.623   0.755  0.00  0.00     0.098 N 
HETATM   29  H           1      -0.143   1.917   1.082  0.00  0.00     0.317 HD
BRANCH  28  30
HETATM   30  C           1       1.175   3.223   1.884  0.00  0.00     0.324 C 
BRANCH  30  31
HETATM   31  C           1       0.150   3.892   2.766  0.00  0.00     0.207 C 
HETATM   32  O           1       0.221   5.120   2.986  0.00  0.00    -0.646 OA
HETATM   33  O           1      -0.771   3.218   3.277  0.00  0.00    -0.646 OA
ENDBRANCH  30  31
BRANCH  30  34
HETATM   34  C           1       2.178   4.259   1.394  0.00  0.00     0.087 C 
BRANCH  34  35
HETATM   35  C           1       3.507   3.606   1.179  0.00  0.00    -0.028 A 
HETATM   36  C           1       4.693   4.247   0.724  0.00  0.00    -0.002 A 
HETATM   37  C           1       5.013   5.567   0.356  0.00  0.00     0.014 A 
HETATM   38  C           1       5.690   3.273   0.667  0.00  0.00     0.042 A 
HETATM   39  C           1       6.317   5.867  -0.057  0.00  0.00     0.001 A 
HETATM   40  C           1       7.293   4.873  -0.105  0.00  0.00     0.002 A 
HETATM   41  C           1       6.999   3.555   0.256  0.00  0.00     0.030 A 
HETATM   42  N           1       5.121   2.087   1.073  0.00  0.00    -0.365 N 
HETATM   43  H           1       5.626   1.168   1.134  0.00  0.00     0.165 HD
HETATM   44  C           1       3.801   2.277   1.385  0.00  0.00     0.096 A 
ENDBRANCH  34  35
ENDBRANCH  30  34
ENDBRANCH  28  30
ENDBRANCH  27  28
ENDBRANCH  26  27
ENDBRANCH   1  26
TORSDOF 15
