REMARK  15 active torsions:
REMARK  status: ('A' for Active; 'I' for Inactive)
REMARK    1  A    between atoms: C_1  and  C_2 
REMARK    2  A    between atoms: C_1  and  C_20 
REMARK    3  A    between atoms: C_1  and  N_32 
REMARK       I    between atoms: C_2  and  N_3 
REMARK    4  A    between atoms: N_3  and  C_12 
REMARK    5  A    between atoms: C_6  and  C_7 
REMARK    6  A    between atoms: C_7  and  C_8 
REMARK    7  A    between atoms: C_7  and  N_17 
REMARK    8  A    between atoms: C_8  and  O_29 
REMARK       I    between atoms: C_9  and  N_10 
REMARK       I    between atoms: C_9  and  N_30 
REMARK    9  A    between atoms: N_10  and  C_18 
REMARK   10  A    between atoms: C_11  and  C_12 
REMARK   11  A    between atoms: C_12  and  C_13 
REMARK   12  A    between atoms: C_13  and  C_14 
REMARK   13  A    between atoms: C_14  and  N_17 
REMARK   14  A    between atoms: C_18  and  C_19 
REMARK   15  A    between atoms: C_19  and  C_20 
ROOT
HETATM    1  C           1       0.768   0.625  -1.022  0.00  0.00     0.249 C 
HETATM    2  N           1      -0.435   1.265  -1.147  0.00  0.00    -0.345 N 
HETATM    3  O           1       0.913  -0.483  -1.481  0.00  0.00    -0.271 OA
HETATM    4  H           1      -0.557   2.194  -0.763  0.00  0.00     0.163 HD
ENDROOT
BRANCH   1   5
HETATM    5  C           1       1.913   1.303  -0.310  0.00  0.00     0.274 C 
BRANCH   5   6
HETATM    6  C           1       3.127   0.383  -0.310  0.00  0.00     0.044 C 
BRANCH   6   7
HETATM    7  C           1       2.781  -0.915   0.409  0.00  0.00     0.023 C 
BRANCH   7   8
HETATM    8  C           1       3.706  -1.095   1.606  0.00  0.00     0.138 C 
BRANCH   8   9
HETATM    9  N           1       5.100  -1.148   1.145  0.00  0.00    -0.227 N 
HETATM   10  C           1       6.039  -1.295   1.982  0.00  0.00     0.665 C 
HETATM   11  N           1       7.240  -1.340   1.586  0.00  0.00    -0.235 N 
HETATM   12  N           1       5.768  -1.399   3.250  0.00  0.00    -0.235 N 
HETATM   13  H           1       7.458  -1.256   0.562  0.00  0.00     0.174 HD
HETATM   14  H           1       8.018  -1.462   2.280  0.00  0.00     0.174 HD
HETATM   15  H           1       4.776  -1.362   3.577  0.00  0.00     0.174 HD
HETATM   16  H           1       6.542  -1.520   3.941  0.00  0.00     0.174 HD
HETATM   17  H           1       5.319  -1.064   0.121  0.00  0.00     0.177 HD
ENDBRANCH   8   9
ENDBRANCH   7   8
ENDBRANCH   6   7
ENDBRANCH   5   6
BRANCH   5  18
HETATM   18  N           1       1.514   1.604   1.104  0.00  0.00    -0.067 N 
HETATM   19  H           1       1.276   0.713   1.596  0.00  0.00     0.275 HD
HETATM   20  H           1       0.682   2.235   1.103  0.00  0.00     0.275 HD
HETATM   21  H           1       2.307   2.073   1.597  0.00  0.00     0.275 HD
ENDBRANCH   5  18
ENDBRANCH   1   5
BRANCH   2  22
HETATM   22  C           1      -1.535   0.614  -1.831  0.00  0.00     0.187 C 
BRANCH  22  23
HETATM   23  C           1      -1.134   0.310  -3.253  0.00  0.00     0.196 C 
HETATM   24  O           1      -1.780   0.801  -4.204  0.00  0.00    -0.646 OA
HETATM   25  O           1      -0.155  -0.433  -3.481  0.00  0.00    -0.646 OA
ENDBRANCH  22  23
BRANCH  22  26
HETATM   26  C           1      -2.749   1.535  -1.831  0.00  0.00     0.066 C 
BRANCH  26  27
HETATM   27  C           1      -3.588   1.270  -0.588  0.00  0.00     0.273 C 
BRANCH  27  28
HETATM   28  N           1      -4.027  -0.100  -0.588  0.00  0.00     0.100 N 
HETATM   29  H           1      -3.688  -0.565   0.254  0.00  0.00     0.317 HD
BRANCH  28  30
HETATM   30  C           1      -5.465  -0.098  -0.589  0.00  0.00     0.343 C 
BRANCH  30  31
HETATM   31  C           1      -5.967   0.614   0.643  0.00  0.00     0.209 C 
HETATM   32  O           1      -5.664   1.811   0.840  0.00  0.00    -0.646 OA
HETATM   33  O           1      -6.686   0.007   1.466  0.00  0.00    -0.646 OA
ENDBRANCH  30  31
BRANCH  30  34
HETATM   34  C           1      -5.973  -1.534  -0.589  0.00  0.00     0.211 C 
BRANCH  34  35
HETATM   35  O           1      -7.375  -1.534  -0.589  0.00  0.00    -0.398 OA
HETATM   36  H           1      -7.649  -2.435  -0.589  0.00  0.00     0.209 HD
ENDBRANCH  34  35
ENDBRANCH  30  34
ENDBRANCH  28  30
ENDBRANCH  27  28
ENDBRANCH  26  27
ENDBRANCH  22  26
ENDBRANCH   2  22
TORSDOF 15
