REMARK  18 active torsions:
REMARK  status: ('A' for Active; 'I' for Inactive)
REMARK    1  A    between atoms: C_1  and  C_37 
REMARK    2  A    between atoms: C_1  and  C_2 
REMARK    3  A    between atoms: C_1  and  N_39 
REMARK    4  A    between atoms: C_2  and  C_3 
REMARK    5  A    between atoms: C_3  and  C_41 
REMARK    6  A    between atoms: N_4  and  C_5 
REMARK    7  A    between atoms: C_5  and  C_6 
REMARK    8  A    between atoms: C_6  and  C_7 
REMARK    9  A    between atoms: C_7  and  C_8 
REMARK   10  A    between atoms: C_8  and  C_9 
REMARK   11  A    between atoms: C_9  and  C_10 
REMARK   12  A    between atoms: C_9  and  N_13 
REMARK   13  A    between atoms: N_13  and  C_14 
REMARK   14  A    between atoms: C_14  and  C_15 
REMARK   15  A    between atoms: C_15  and  C_24 
REMARK   16  A    between atoms: C_17  and  C_24 
REMARK       I    between atoms: C_21  and  N_22 
REMARK       I    between atoms: C_21  and  N_23 
REMARK   17  A    between atoms: C_24  and  N_36 
REMARK       I    between atoms: N_36  and  C_37 
REMARK   18  A    between atoms: N_40  and  C_41 
ROOT
HETATM    1  H           1       0.395   0.588   1.145  0.00  0.00     0.163 HD
HETATM    2  O           1      -2.666   1.002   1.696  0.00  0.00    -0.271 OA
HETATM    3  N           1      -0.603   0.527   0.985  0.00  0.00    -0.345 N 
HETATM    4  C           1      -1.475   1.075   1.887  0.00  0.00     0.249 C 
ENDROOT
BRANCH   3   5
HETATM    5  C           1      -1.108  -0.141  -0.198  0.00  0.00     0.187 C 
BRANCH   5   6
HETATM    6  C           1       0.061  -0.656  -1.027  0.00  0.00     0.066 C 
BRANCH   6   7
HETATM    7  C           1      -0.468  -1.359  -2.271  0.00  0.00     0.273 C 
BRANCH   7   8
HETATM    8  N           1      -0.031  -2.729  -2.270  0.00  0.00     0.098 N 
HETATM    9  H           1      -0.371  -3.195  -3.112  0.00  0.00     0.317 HD
BRANCH   8  10
HETATM   10  C           1       1.407  -2.729  -2.270  0.00  0.00     0.320 C 
BRANCH  10  11
HETATM   11  C           1       1.914  -4.165  -2.270  0.00  0.00     0.047 C 
BRANCH  11  12
HETATM   12  C           1       3.437  -4.167  -2.271  0.00  0.00     0.004 C 
BRANCH  12  13
HETATM   13  C           1       3.944  -4.886  -3.514  0.00  0.00     0.027 C 
BRANCH  13  14
HETATM   14  C           1       3.435  -6.321  -3.514  0.00  0.00     0.229 C 
BRANCH  14  15
HETATM   15  N           1       1.935  -6.321  -3.514  0.00  0.00    -0.079 N 
HETATM   16  H           1       1.587  -7.306  -3.514  0.00  0.00     0.274 HD
HETATM   17  H           1       1.588  -5.829  -2.660  0.00  0.00     0.274 HD
HETATM   18  H           1       1.587  -5.829  -4.367  0.00  0.00     0.274 HD
ENDBRANCH  14  15
ENDBRANCH  13  14
ENDBRANCH  12  13
ENDBRANCH  11  12
ENDBRANCH  10  11
BRANCH  10  19
HETATM   19  C           1       1.909  -2.018  -3.503  0.00  0.00     0.207 C 
HETATM   20  O           1       1.607  -0.821  -3.700  0.00  0.00    -0.646 OA
HETATM   21  O           1       2.627  -2.625  -4.326  0.00  0.00    -0.646 OA
ENDBRANCH  10  19
ENDBRANCH   8  10
ENDBRANCH   7   8
ENDBRANCH   6   7
ENDBRANCH   5   6
BRANCH   5  22
HETATM   22  C           1      -1.983  -1.299   0.214  0.00  0.00     0.196 C 
HETATM   23  O           1      -3.004  -1.096   0.905  0.00  0.00    -0.646 OA
HETATM   24  O           1      -1.686  -2.462  -0.136  0.00  0.00    -0.646 OA
ENDBRANCH   5  22
ENDBRANCH   3   5
BRANCH   4  25
HETATM   25  C           1      -0.949   1.771   3.119  0.00  0.00     0.274 C 
BRANCH  25  26
HETATM   26  C           1      -2.117   2.287   3.949  0.00  0.00     0.044 C 
BRANCH  26  27
HETATM   27  C           1      -2.934   3.270   3.121  0.00  0.00     0.023 C 
BRANCH  27  28
HETATM   28  C           1      -2.051   4.440   2.705  0.00  0.00     0.138 C 
BRANCH  28  29
HETATM   29  N           1      -2.610   5.690   3.239  0.00  0.00    -0.227 N 
HETATM   30  C           1      -2.029   6.792   3.011  0.00  0.00     0.665 C 
HETATM   31  N           1      -2.511   7.869   3.471  0.00  0.00    -0.235 N 
HETATM   32  N           1      -0.939   6.817   2.303  0.00  0.00    -0.235 N 
HETATM   33  H           1      -2.029   8.782   3.281  0.00  0.00     0.174 HD
HETATM   34  H           1      -3.392   7.848   4.042  0.00  0.00     0.174 HD
HETATM   35  H           1      -0.459   7.726   2.115  0.00  0.00     0.174 HD
HETATM   36  H           1      -0.542   5.928   1.924  0.00  0.00     0.174 HD
HETATM   37  H           1      -3.491   5.670   3.810  0.00  0.00     0.177 HD
ENDBRANCH  28  29
ENDBRANCH  27  28
ENDBRANCH  26  27
ENDBRANCH  25  26
BRANCH  25  38
HETATM   38  N           1      -0.080   2.923   2.709  0.00  0.00    -0.067 N 
HETATM   39  H           1       0.284   3.405   3.561  0.00  0.00     0.275 HD
HETATM   40  H           1       0.721   2.569   2.140  0.00  0.00     0.275 HD
HETATM   41  H           1      -0.641   3.597   2.141  0.00  0.00     0.275 HD
ENDBRANCH  25  38
ENDBRANCH   4  25
TORSDOF 18
