REMARK  15 active torsions:
REMARK  status: ('A' for Active; 'I' for Inactive)
REMARK       I    between atoms: C_1  and  N_12 
REMARK    1  A    between atoms: C_1  and  C_6 
REMARK    2  A    between atoms: C_4  and  C_5 
REMARK    3  A    between atoms: C_5  and  C_13 
REMARK    4  A    between atoms: C_6  and  C_17 
REMARK    5  A    between atoms: C_6  and  N_19 
REMARK    6  A    between atoms: C_7  and  C_29 
REMARK    7  A    between atoms: C_7  and  C_8 
REMARK    8  A    between atoms: C_7  and  N_12 
REMARK    9  A    between atoms: C_13  and  C_33 
REMARK   10  A    between atoms: C_13  and  N_31 
REMARK   11  A    between atoms: C_17  and  C_25 
REMARK       I    between atoms: N_20  and  C_22 
REMARK       I    between atoms: N_21  and  C_22 
REMARK   12  A    between atoms: N_23  and  C_24 
REMARK   13  A    between atoms: C_24  and  C_25 
REMARK   14  A    between atoms: C_29  and  C_30 
REMARK   15  A    between atoms: C_30  and  N_31 
ROOT
HETATM    1  C           1       0.915   0.137   1.937  0.00  0.00     0.249 C 
HETATM    2  N           1      -0.093  -0.296   1.118  0.00  0.00    -0.345 N 
HETATM    3  O           1       1.133   1.319   2.054  0.00  0.00    -0.271 OA
HETATM    4  H           1      -0.275  -1.287   1.020  0.00  0.00     0.163 HD
ENDROOT
BRANCH   2   5
HETATM    5  C           1      -0.899   0.664   0.391  0.00  0.00     0.187 C 
BRANCH   5   6
HETATM    6  C           1      -1.941  -0.074  -0.439  0.00  0.00     0.066 C 
BRANCH   6   7
HETATM    7  C           1      -2.790   0.935  -1.203  0.00  0.00     0.273 C 
BRANCH   7   8
HETATM    8  N           1      -1.947   1.711  -2.072  0.00  0.00     0.098 N 
HETATM    9  H           1      -0.982   1.391  -1.985  0.00  0.00     0.317 HD
BRANCH   8  10
HETATM   10  C           1      -2.401   1.503  -3.421  0.00  0.00     0.324 C 
BRANCH  10  11
HETATM   11  C           1      -3.850   1.957  -3.544  0.00  0.00     0.085 C 
BRANCH  11  12
HETATM   12  C           1      -4.760   0.808  -3.239  0.00  0.00    -0.056 A 
HETATM   13  C           1      -4.225  -0.437  -2.906  0.00  0.00     0.007 A 
HETATM   14  C           1      -5.074  -1.507  -2.623  0.00  0.00     0.001 A 
HETATM   15  C           1      -6.457  -1.332  -2.671  0.00  0.00     0.000 A 
HETATM   16  C           1      -6.991  -0.088  -3.004  0.00  0.00     0.001 A 
HETATM   17  C           1      -6.143   0.982  -3.287  0.00  0.00     0.007 A 
ENDBRANCH  11  12
ENDBRANCH  10  11
BRANCH  10  18
HETATM   18  C           1      -1.541   2.303  -4.368  0.00  0.00     0.207 C 
HETATM   19  O           1      -2.058   3.179  -5.094  0.00  0.00    -0.646 OA
HETATM   20  O           1      -0.311   2.089  -4.427  0.00  0.00    -0.646 OA
ENDBRANCH  10  18
ENDBRANCH   8  10
ENDBRANCH   7   8
ENDBRANCH   6   7
ENDBRANCH   5   6
BRANCH   5  21
HETATM   21  C           1      -1.592   1.581   1.369  0.00  0.00     0.196 C 
HETATM   22  O           1      -0.918   2.284   2.152  0.00  0.00    -0.646 OA
HETATM   23  O           1      -2.841   1.637   1.397  0.00  0.00    -0.646 OA
ENDBRANCH   5  21
ENDBRANCH   2   5
BRANCH   1  24
HETATM   24  C           1       1.755  -0.863   2.694  0.00  0.00     0.274 C 
BRANCH  24  25
HETATM   25  C           1       2.797  -0.127   3.525  0.00  0.00     0.044 C 
BRANCH  25  26
HETATM   26  C           1       3.692   0.695   2.606  0.00  0.00     0.023 C 
BRANCH  26  27
HETATM   27  C           1       5.135   0.233   2.757  0.00  0.00     0.138 C 
BRANCH  27  28
HETATM   28  N           1       5.236  -1.189   2.395  0.00  0.00    -0.227 N 
HETATM   29  C           1       6.355  -1.778   2.450  0.00  0.00     0.665 C 
HETATM   30  N           1       7.415  -1.127   2.826  0.00  0.00    -0.235 N 
HETATM   31  N           1       6.441  -3.002   2.139  0.00  0.00    -0.235 N 
HETATM   32  H           1       8.339  -1.613   2.871  0.00  0.00     0.174 HD
HETATM   33  H           1       7.344  -0.116   3.083  0.00  0.00     0.174 HD
HETATM   34  H           1       7.369  -3.491   2.184  0.00  0.00     0.174 HD
HETATM   35  H           1       5.585  -3.529   1.835  0.00  0.00     0.174 HD
HETATM   36  H           1       4.379  -1.715   2.092  0.00  0.00     0.177 HD
ENDBRANCH  27  28
ENDBRANCH  26  27
ENDBRANCH  25  26
ENDBRANCH  24  25
BRANCH  24  37
HETATM   37  N           1       2.444  -1.774   1.722  0.00  0.00    -0.067 N 
HETATM   38  H           1       1.729  -2.280   1.152  0.00  0.00     0.275 HD
HETATM   39  H           1       3.026  -2.467   2.245  0.00  0.00     0.275 HD
HETATM   40  H           1       3.057  -1.210   1.091  0.00  0.00     0.275 HD
ENDBRANCH  24  37
ENDBRANCH   1  24
TORSDOF 15
