REMARK  17 active torsions:
REMARK  status: ('A' for Active; 'I' for Inactive)
REMARK       I    between atoms: C_2  and  N_3 
REMARK       I    between atoms: C_2  and  N_4 
REMARK    1  A    between atoms: N_5  and  C_33 
REMARK    2  A    between atoms: O_6  and  P_37 
REMARK    3  A    between atoms: N_8  and  C_16 
REMARK    4  A    between atoms: N_8  and  C_9 
REMARK    5  A    between atoms: C_9  and  C_10 
REMARK    6  A    between atoms: C_10  and  C_19 
REMARK    7  A    between atoms: C_11  and  C_16 
REMARK    8  A    between atoms: C_12  and  C_33 
REMARK    9  A    between atoms: C_12  and  C_13 
REMARK   10  A    between atoms: C_13  and  C_14 
REMARK   11  A    between atoms: C_14  and  N_15 
REMARK   12  A    between atoms: C_16  and  C_18 
REMARK   13  A    between atoms: C_18  and  O_36 
REMARK   14  A    between atoms: C_19  and  C_20 
REMARK   15  A    between atoms: C_19  and  N_35 
REMARK   16  A    between atoms: C_33  and  C_34 
REMARK       I    between atoms: C_34  and  N_35 
REMARK   17  A    between atoms: O_36  and  P_37 
ROOT
HETATM    1  O           1       0.420   2.534  -0.679  0.00  0.00    -0.271 OA
HETATM    2  H           1       1.101   0.067   1.135  0.00  0.00     0.163 HD
HETATM    3  C           1       0.998   1.536  -0.319  0.00  0.00     0.249 C 
HETATM    4  N           1       0.617   0.903   0.833  0.00  0.00    -0.345 N 
ENDROOT
BRANCH   4   5
HETATM    5  C           1      -0.481   1.429   1.621  0.00  0.00     0.187 C 
BRANCH   5   6
HETATM    6  C           1      -0.699   0.544   2.841  0.00  0.00     0.066 C 
BRANCH   6   7
HETATM    7  C           1       0.308  -0.598   2.827  0.00  0.00     0.273 C 
BRANCH   7   8
HETATM    8  N           1      -0.392  -1.854   2.790  0.00  0.00     0.100 N 
HETATM    9  H           1       0.282  -2.619   2.798  0.00  0.00     0.317 HD
BRANCH   8  10
HETATM   10  C           1      -1.218  -1.930   3.964  0.00  0.00     0.344 C 
BRANCH  10  11
HETATM   11  C           1      -1.972  -3.237   3.964  0.00  0.00     0.209 C 
HETATM   12  O           1      -1.347  -4.319   3.964  0.00  0.00    -0.646 OA
HETATM   13  O           1      -3.222  -3.237   3.964  0.00  0.00    -0.646 OA
ENDBRANCH  10  11
BRANCH  10  14
HETATM   14  C           1      -2.207  -0.772   3.964  0.00  0.00     0.228 C 
BRANCH  14  15
HETATM   15  O           1      -3.013  -0.845   2.820  0.00  0.00    -0.287 OA
BRANCH  15  16
HETATM   16  P           1      -4.125   0.316   2.661  0.00  0.00     0.406 P 
HETATM   17  O           1      -5.048   0.276   3.818  0.00  0.00    -0.624 OA
HETATM   18  O           1      -3.457   1.635   2.609  0.00  0.00    -0.624 OA
BRANCH  16  19
HETATM   19  O           1      -4.958   0.080   1.298  0.00  0.00    -0.300 OA
HETATM   20  H           1      -5.582   0.785   1.269  0.00  0.00     0.223 HD
ENDBRANCH  16  19
ENDBRANCH  15  16
ENDBRANCH  14  15
ENDBRANCH  10  14
ENDBRANCH   8  10
ENDBRANCH   7   8
ENDBRANCH   6   7
ENDBRANCH   5   6
BRANCH   5  21
HETATM   21  C           1      -0.151   2.832   2.068  0.00  0.00     0.196 C 
HETATM   22  O           1       0.066   3.724   1.219  0.00  0.00    -0.646 OA
HETATM   23  O           1      -0.095   3.102   3.287  0.00  0.00    -0.646 OA
ENDBRANCH   5  21
ENDBRANCH   4   5
BRANCH   3  24
HETATM   24  C           1       2.141   0.988  -1.138  0.00  0.00     0.274 C 
BRANCH  24  25
HETATM   25  N           1       1.812  -0.406  -1.584  0.00  0.00    -0.067 N 
HETATM   26  H           1       2.603  -0.786  -2.152  0.00  0.00     0.275 HD
HETATM   27  H           1       1.662  -1.012  -0.746  0.00  0.00     0.275 HD
HETATM   28  H           1       0.943  -0.390  -2.164  0.00  0.00     0.257 HD
ENDBRANCH  24  25
BRANCH  24  29
HETATM   29  C           1       2.360   1.872  -2.359  0.00  0.00     0.044 C 
BRANCH  29  30
HETATM   30  C           1       1.093   1.894  -3.205  0.00  0.00     0.023 C 
BRANCH  30  31
HETATM   31  C           1       0.760   0.478  -3.657  0.00  0.00     0.156 C 
BRANCH  31  32
HETATM   32  N           1       1.872  -0.057  -4.455  0.00  0.00    -0.227 N 
HETATM   33  C           1       1.803  -1.227  -4.933  0.00  0.00     0.665 C 
HETATM   34  N           1       2.761  -1.688  -5.621  0.00  0.00    -0.235 N 
HETATM   35  N           1       0.748  -1.956  -4.719  0.00  0.00    -0.235 N 
HETATM   36  H           1       2.703  -2.659  -6.017  0.00  0.00     0.174 HD
HETATM   37  H           1       3.613  -1.100  -5.794  0.00  0.00     0.174 HD
HETATM   38  H           1       0.690  -2.922  -5.113  0.00  0.00     0.174 HD
HETATM   39  H           1      -0.043  -1.575  -4.151  0.00  0.00     0.174 HD
HETATM   40  H           1       2.725   0.531  -4.629  0.00  0.00     0.177 HD
ENDBRANCH  31  32
ENDBRANCH  30  31
ENDBRANCH  29  30
ENDBRANCH  24  29
ENDBRANCH   3  24
TORSDOF 17
