REMARK  15 active torsions:
REMARK  status: ('A' for Active; 'I' for Inactive)
REMARK    1  A    between atoms: C_10  and  C_34 
REMARK    2  A    between atoms: N_11  and  C_14 
REMARK       I    between atoms: N_12  and  C_25 
REMARK    3  A    between atoms: C_13  and  C_14 
REMARK    4  A    between atoms: C_13  and  C_33 
REMARK    5  A    between atoms: C_14  and  C_15 
REMARK       I    between atoms: C_15  and  N_17 
REMARK    6  A    between atoms: N_17  and  C_21 
REMARK    7  A    between atoms: C_20  and  C_21 
REMARK    8  A    between atoms: C_21  and  C_22 
REMARK    9  A    between atoms: C_22  and  C_23 
REMARK   10  A    between atoms: C_23  and  N_27 
REMARK   11  A    between atoms: C_24  and  C_33 
REMARK   12  A    between atoms: C_24  and  N_29 
REMARK       I    between atoms: C_25  and  N_26 
REMARK   13  A    between atoms: N_27  and  C_34 
REMARK   14  A    between atoms: C_34  and  C_35 
REMARK   15  A    between atoms: C_35  and  S_36 
ROOT
HETATM    1  C           1       0.782   0.633  -1.022  0.00  0.00     0.249 C 
HETATM    2  N           1      -0.422   1.274  -1.147  0.00  0.00    -0.345 N 
HETATM    3  H           1      -0.543   2.202  -0.763  0.00  0.00     0.163 HD
HETATM    4  O           1       0.927  -0.475  -1.481  0.00  0.00    -0.271 OA
ENDROOT
BRANCH   1   5
HETATM    5  C           1       1.927   1.311  -0.310  0.00  0.00     0.274 C 
BRANCH   5   6
HETATM    6  N           1       1.528   1.612   1.104  0.00  0.00    -0.067 N 
HETATM    7  H           1       1.290   0.722   1.596  0.00  0.00     0.275 HD
HETATM    8  H           1       0.695   2.244   1.103  0.00  0.00     0.275 HD
HETATM    9  H           1       2.320   2.082   1.597  0.00  0.00     0.275 HD
ENDBRANCH   5   6
BRANCH   5  10
HETATM   10  C           1       3.141   0.391  -0.310  0.00  0.00     0.044 C 
BRANCH  10  11
HETATM   11  C           1       2.795  -0.906   0.409  0.00  0.00     0.023 C 
BRANCH  11  12
HETATM   12  C           1       3.719  -1.087   1.606  0.00  0.00     0.138 C 
BRANCH  12  13
HETATM   13  N           1       5.114  -1.139   1.145  0.00  0.00    -0.227 N 
HETATM   14  H           1       5.332  -1.055   0.121  0.00  0.00     0.177 HD
HETATM   15  C           1       6.052  -1.286   1.982  0.00  0.00     0.665 C 
HETATM   16  N           1       5.782  -1.390   3.250  0.00  0.00    -0.235 N 
HETATM   17  N           1       7.254  -1.331   1.586  0.00  0.00    -0.235 N 
HETATM   18  H           1       4.790  -1.353   3.577  0.00  0.00     0.174 HD
HETATM   19  H           1       6.556  -1.511   3.941  0.00  0.00     0.174 HD
HETATM   20  H           1       7.472  -1.247   0.562  0.00  0.00     0.174 HD
HETATM   21  H           1       8.032  -1.453   2.280  0.00  0.00     0.174 HD
ENDBRANCH  12  13
ENDBRANCH  11  12
ENDBRANCH  10  11
ENDBRANCH   5  10
ENDBRANCH   1   5
BRANCH   2  22
HETATM   22  C           1      -1.522   0.622  -1.831  0.00  0.00     0.187 C 
BRANCH  22  23
HETATM   23  C           1      -1.120   0.319  -3.253  0.00  0.00     0.196 C 
HETATM   24  O           1      -1.766   0.810  -4.204  0.00  0.00    -0.646 OA
HETATM   25  O           1      -0.141  -0.424  -3.481  0.00  0.00    -0.646 OA
ENDBRANCH  22  23
BRANCH  22  26
HETATM   26  C           1      -2.735   1.543  -1.831  0.00  0.00     0.066 C 
BRANCH  26  27
HETATM   27  C           1      -3.574   1.278  -0.588  0.00  0.00     0.273 C 
BRANCH  27  28
HETATM   28  N           1      -4.013  -0.091  -0.588  0.00  0.00     0.099 N 
HETATM   29  H           1      -3.674  -0.557   0.254  0.00  0.00     0.317 HD
BRANCH  28  30
HETATM   30  C           1      -5.451  -0.090  -0.589  0.00  0.00     0.329 C 
BRANCH  30  31
HETATM   31  C           1      -5.953   0.623   0.643  0.00  0.00     0.208 C 
HETATM   32  O           1      -5.650   1.819   0.840  0.00  0.00    -0.646 OA
HETATM   33  O           1      -6.672   0.016   1.466  0.00  0.00    -0.646 OA
ENDBRANCH  30  31
BRANCH  30  34
HETATM   34  C           1      -5.959  -1.525  -0.589  0.00  0.00     0.117 C 
BRANCH  34  35
HETATM   35  S           1      -7.774  -1.525  -0.589  0.00  0.00    -0.180 SA
HETATM   36  H           1      -7.915  -2.863  -0.589  0.00  0.00     0.101 HD
ENDBRANCH  34  35
ENDBRANCH  30  34
ENDBRANCH  28  30
ENDBRANCH  27  28
ENDBRANCH  26  27
ENDBRANCH  22  26
ENDBRANCH   2  22
TORSDOF 15
