REMARK  16 active torsions:
REMARK  status: ('A' for Active; 'I' for Inactive)
REMARK    1  A    between atoms: C_2  and  C_3 
REMARK    2  A    between atoms: C_2  and  C_7 
REMARK    3  A    between atoms: C_3  and  C_12 
REMARK       I    between atoms: N_4  and  C_12 
REMARK    4  A    between atoms: C_6  and  C_7 
REMARK    5  A    between atoms: C_7  and  N_19 
REMARK       I    between atoms: N_13  and  C_24 
REMARK    6  A    between atoms: C_14  and  N_19 
REMARK    7  A    between atoms: C_14  and  C_15 
REMARK    8  A    between atoms: C_15  and  C_16 
REMARK    9  A    between atoms: C_16  and  C_17 
REMARK   10  A    between atoms: C_16  and  N_37 
REMARK   11  A    between atoms: C_21  and  C_40 
REMARK   12  A    between atoms: C_21  and  C_22 
REMARK   13  A    between atoms: C_22  and  N_23 
REMARK       I    between atoms: N_23  and  C_24 
REMARK   14  A    between atoms: N_33  and  C_39 
REMARK       I    between atoms: N_37  and  C_38 
REMARK   15  A    between atoms: C_38  and  C_39 
REMARK   16  A    between atoms: C_39  and  C_40 
ROOT
HETATM    1  H           1       0.127  -0.492  -0.214  0.00  0.00     0.163 HD
HETATM    2  O           1      -2.379   1.393  -0.133  0.00  0.00    -0.271 OA
HETATM    3  N           1      -0.392   0.377  -0.187  0.00  0.00    -0.345 N 
HETATM    4  C           1      -1.760   0.356  -0.164  0.00  0.00     0.249 C 
ENDROOT
BRANCH   3   5
HETATM    5  C           1       0.315   1.643  -0.174  0.00  0.00     0.187 C 
BRANCH   5   6
HETATM    6  C           1       1.816   1.386  -0.205  0.00  0.00     0.066 C 
BRANCH   6   7
HETATM    7  C           1       2.559   2.715  -0.192  0.00  0.00     0.273 C 
BRANCH   7   8
HETATM    8  N           1       3.365   2.826  -1.378  0.00  0.00     0.098 N 
HETATM    9  H           1       3.876   3.709  -1.360  0.00  0.00     0.317 HD
BRANCH   8  10
HETATM   10  C           1       4.298   1.732  -1.377  0.00  0.00     0.320 C 
BRANCH  10  11
HETATM   11  C           1       5.174   1.812  -2.620  0.00  0.00     0.056 C 
BRANCH  11  12
HETATM   12  C           1       6.163   0.653  -2.620  0.00  0.00     0.105 C 
BRANCH  12  13
HETATM   13  C           1       5.408  -0.653  -2.620  0.00  0.00     0.215 C 
HETATM   14  O           1       4.200  -0.653  -2.620  0.00  0.00    -0.274 OA
HETATM   15  N           1       6.093  -1.839  -2.620  0.00  0.00    -0.370 N 
HETATM   16  H           1       7.105  -1.839  -2.620  0.00  0.00     0.159 HD
HETATM   17  H           1       5.587  -2.715  -2.620  0.00  0.00     0.159 HD
ENDBRANCH  12  13
ENDBRANCH  11  12
ENDBRANCH  10  11
BRANCH  10  18
HETATM   18  C           1       5.164   1.812  -0.144  0.00  0.00     0.207 C 
HETATM   19  O           1       4.643   1.764   0.991  0.00  0.00    -0.646 OA
HETATM   20  O           1       6.404   1.925  -0.258  0.00  0.00    -0.646 OA
ENDBRANCH  10  18
ENDBRANCH   8  10
ENDBRANCH   7   8
ENDBRANCH   6   7
ENDBRANCH   5   6
BRANCH   5  21
HETATM   21  C           1      -0.082   2.453  -1.384  0.00  0.00     0.196 C 
HETATM   22  O           1      -1.278   2.776  -1.554  0.00  0.00    -0.646 OA
HETATM   23  O           1       0.784   2.800  -2.215  0.00  0.00    -0.646 OA
ENDBRANCH   5  21
ENDBRANCH   3   5
BRANCH   4  24
HETATM   24  C           1      -2.496  -0.961  -0.178  0.00  0.00     0.274 C 
BRANCH  24  25
HETATM   25  N           1      -2.101  -1.766   1.024  0.00  0.00    -0.067 N 
HETATM   26  H           1      -2.347  -1.239   1.892  0.00  0.00     0.275 HD
HETATM   27  H           1      -1.071  -1.942   1.003  0.00  0.00     0.275 HD
HETATM   28  H           1      -2.610  -2.679   1.016  0.00  0.00     0.275 HD
ENDBRANCH  24  25
BRANCH  24  29
HETATM   29  C           1      -3.997  -0.706  -0.148  0.00  0.00     0.044 C 
BRANCH  29  30
HETATM   30  C           1      -4.356   0.061   1.118  0.00  0.00     0.023 C 
BRANCH  30  31
HETATM   31  C           1      -5.337  -0.757   1.947  0.00  0.00     0.138 C 
BRANCH  31  32
HETATM   32  N           1      -4.720  -2.040   2.312  0.00  0.00    -0.227 N 
HETATM   33  C           1      -5.366  -2.878   3.007  0.00  0.00     0.665 C 
HETATM   34  N           1      -6.575  -2.604   3.397  0.00  0.00    -0.235 N 
HETATM   35  N           1      -4.834  -3.984   3.321  0.00  0.00    -0.235 N 
HETATM   36  H           1      -7.109  -3.297   3.970  0.00  0.00     0.174 HD
HETATM   37  H           1      -7.014  -1.692   3.138  0.00  0.00     0.174 HD
HETATM   38  H           1      -5.370  -4.679   3.897  0.00  0.00     0.174 HD
HETATM   39  H           1      -3.857  -4.205   3.006  0.00  0.00     0.174 HD
HETATM   40  H           1      -3.743  -2.261   1.997  0.00  0.00     0.177 HD
ENDBRANCH  31  32
ENDBRANCH  30  31
ENDBRANCH  29  30
ENDBRANCH  24  29
ENDBRANCH   4  24
TORSDOF 16
