REMARK  7 active torsions:
REMARK  status: ('A' for Active; 'I' for Inactive)
REMARK    1  A    between atoms: C_1  and  C_2 
REMARK    2  A    between atoms: C_1  and  C_6 
REMARK    3  A    between atoms: C_2  and  C_3 
REMARK    4  A    between atoms: C_2  and  N_12 
REMARK       I    between atoms: C_3  and  N_4 
REMARK    5  A    between atoms: C_5  and  C_24 
REMARK    6  A    between atoms: C_6  and  C_7 
REMARK    7  A    between atoms: C_7  and  N_8 
REMARK       I    between atoms: N_8  and  C_9 
REMARK       I    between atoms: C_9  and  N_10 
ROOT
HETATM    1  C           1       0.380  -0.684   0.591  0.00  0.00     0.275 C 
ENDROOT
BRANCH   1   2
HETATM    2  C           1       1.172   0.607   0.756  0.00  0.00     0.044 C 
BRANCH   2   3
HETATM    3  C           1       0.594   1.678  -0.159  0.00  0.00     0.023 C 
BRANCH   3   4
HETATM    4  C           1       1.665   2.144  -1.136  0.00  0.00     0.138 C 
BRANCH   4   5
HETATM    5  N           1       2.802   2.701  -0.389  0.00  0.00    -0.227 N 
HETATM    6  C           1       3.809   3.149  -1.010  0.00  0.00     0.665 C 
HETATM    7  N           1       4.788   3.629  -0.366  0.00  0.00    -0.235 N 
HETATM    8  N           1       3.838   3.118  -2.309  0.00  0.00    -0.235 N 
HETATM    9  H           1       5.624   4.001  -0.882  0.00  0.00     0.174 HD
HETATM   10  H           1       4.765   3.654   0.683  0.00  0.00     0.174 HD
HETATM   11  H           1       4.670   3.489  -2.822  0.00  0.00     0.174 HD
HETATM   12  H           1       3.030   2.723  -2.841  0.00  0.00     0.174 HD
HETATM   13  H           1       2.778   2.726   0.661  0.00  0.00     0.177 HD
ENDBRANCH   4   5
ENDBRANCH   3   4
ENDBRANCH   2   3
ENDBRANCH   1   2
BRANCH   1  14
HETATM   14  C           1      -1.064  -0.439   0.954  0.00  0.00     0.251 C 
HETATM   15  N           1      -1.971  -1.462   0.882  0.00  0.00    -0.336 N 
HETATM   16  C           1      -3.397  -1.410   1.192  0.00  0.00     0.188 C 
HETATM   17  C           1      -1.723  -2.843   0.478  0.00  0.00     0.127 C 
HETATM   18  C           1      -4.036  -2.251   0.100  0.00  0.00     0.038 C 
HETATM   19  C           1      -2.936  -3.197  -0.366  0.00  0.00     0.022 C 
HETATM   20  O           1      -1.420   0.660   1.309  0.00  0.00    -0.271 OA
BRANCH  16  21
HETATM   21  C           1      -3.672  -1.998   2.554  0.00  0.00     0.196 C 
HETATM   22  O           1      -2.730  -2.444   3.244  0.00  0.00    -0.646 OA
HETATM   23  O           1      -4.842  -2.039   2.992  0.00  0.00    -0.646 OA
ENDBRANCH  16  21
ENDBRANCH   1  14
BRANCH   1  24
HETATM   24  N           1       0.465  -1.144  -0.834  0.00  0.00    -0.067 N 
HETATM   25  H           1       1.465  -1.314  -1.087  0.00  0.00     0.275 HD
HETATM   26  H           1      -0.077  -2.029  -0.947  0.00  0.00     0.275 HD
HETATM   27  H           1       0.068  -0.408  -1.461  0.00  0.00     0.275 HD
ENDBRANCH   1  24
TORSDOF 7
