REMARK  15 active torsions:
REMARK  status: ('A' for Active; 'I' for Inactive)
REMARK       I    between atoms: C_1  and  N_2 
REMARK    1  A    between atoms: C_1  and  C_33 
REMARK    2  A    between atoms: N_2  and  C_6 
REMARK    3  A    between atoms: C_5  and  C_6 
REMARK    4  A    between atoms: C_6  and  C_7 
REMARK    5  A    between atoms: C_7  and  C_8 
REMARK    6  A    between atoms: C_8  and  N_9 
REMARK    7  A    between atoms: N_9  and  C_13 
REMARK    8  A    between atoms: C_12  and  C_13 
REMARK    9  A    between atoms: C_13  and  C_15 
REMARK   10  A    between atoms: O_14  and  C_15 
REMARK   11  A    between atoms: N_25  and  C_33 
REMARK       I    between atoms: N_26  and  C_28 
REMARK       I    between atoms: N_27  and  C_28 
REMARK   12  A    between atoms: N_29  and  C_30 
REMARK   13  A    between atoms: C_30  and  C_31 
REMARK   14  A    between atoms: C_31  and  C_32 
REMARK   15  A    between atoms: C_32  and  C_33 
ROOT
HETATM    1  C           1      -0.382  -0.647   1.598  0.00  0.00     0.249 C 
HETATM    2  N           1       0.963  -0.789   1.389  0.00  0.00    -0.345 N 
HETATM    3  H           1       1.622  -0.432   2.069  0.00  0.00     0.163 HD
HETATM    4  O           1      -1.168  -1.073   0.786  0.00  0.00    -0.271 OA
ENDROOT
BRANCH   1   5
HETATM    5  C           1      -0.883   0.042   2.844  0.00  0.00     0.274 C 
BRANCH   5   6
HETATM    6  N           1      -0.361   1.447   2.882  0.00  0.00    -0.067 N 
HETATM    7  H           1      -0.707   1.925   3.745  0.00  0.00     0.275 HD
HETATM    8  H           1       0.684   1.430   2.890  0.00  0.00     0.275 HD
HETATM    9  H           1      -0.695   1.966   2.039  0.00  0.00     0.275 HD
ENDBRANCH   5   6
BRANCH   5  10
HETATM   10  C           1      -2.406   0.067   2.833  0.00  0.00     0.044 C 
BRANCH  10  11
HETATM   11  C           1      -2.893   0.824   1.605  0.00  0.00     0.023 C 
BRANCH  11  12
HETATM   12  C           1      -2.362   2.251   1.643  0.00  0.00     0.138 C 
BRANCH  12  13
HETATM   13  N           1      -3.490   3.194   1.659  0.00  0.00    -0.227 N 
HETATM   14  H           1      -4.476   2.833   1.643  0.00  0.00     0.177 HD
HETATM   15  C           1      -3.273   4.441   1.691  0.00  0.00     0.665 C 
HETATM   16  N           1      -2.052   4.887   1.710  0.00  0.00    -0.235 N 
HETATM   17  N           1      -4.244   5.253   1.704  0.00  0.00    -0.235 N 
HETATM   18  H           1      -1.872   5.916   1.737  0.00  0.00     0.174 HD
HETATM   19  H           1      -1.250   4.217   1.699  0.00  0.00     0.174 HD
HETATM   20  H           1      -5.230   4.892   1.688  0.00  0.00     0.174 HD
HETATM   21  H           1      -4.063   6.287   1.731  0.00  0.00     0.174 HD
ENDBRANCH  12  13
ENDBRANCH  11  12
ENDBRANCH  10  11
ENDBRANCH   5  10
ENDBRANCH   1   5
BRANCH   2  22
HETATM   22  C           1       1.445  -1.450   0.192  0.00  0.00     0.187 C 
BRANCH  22  23
HETATM   23  C           1       0.918  -2.864   0.153  0.00  0.00     0.196 C 
HETATM   24  O           1       1.715  -3.827   0.136  0.00  0.00    -0.646 OA
HETATM   25  O           1      -0.314  -3.072   0.137  0.00  0.00    -0.646 OA
ENDBRANCH  22  23
BRANCH  22  26
HETATM   26  C           1       2.968  -1.475   0.204  0.00  0.00     0.066 C 
BRANCH  26  27
HETATM   27  C           1       3.475  -2.171  -1.052  0.00  0.00     0.273 C 
BRANCH  27  28
HETATM   28  N           1       3.017  -1.457  -2.214  0.00  0.00     0.101 N 
HETATM   29  H           1       3.820  -1.152  -2.764  0.00  0.00     0.317 HD
BRANCH  28  30
HETATM   30  C           1       2.218  -2.362  -2.996  0.00  0.00     0.348 C 
BRANCH  30  31
HETATM   31  C           1       3.056  -3.548  -3.405  0.00  0.00     0.210 C 
HETATM   32  O           1       3.234  -3.800  -4.616  0.00  0.00    -0.646 OA
HETATM   33  O           1       3.573  -4.279  -2.532  0.00  0.00    -0.646 OA
ENDBRANCH  30  31
BRANCH  30  34
HETATM   34  C           1       1.711  -1.645  -4.240  0.00  0.00     0.158 C 
HETATM   35  C           1       0.188  -1.645  -4.240  0.00  0.00     0.042 C 
BRANCH  34  36
HETATM   36  O           1       2.179  -0.323  -4.240  0.00  0.00    -0.393 OA
HETATM   37  H           1       3.120  -0.366  -4.240  0.00  0.00     0.210 HD
ENDBRANCH  34  36
ENDBRANCH  30  34
ENDBRANCH  28  30
ENDBRANCH  27  28
ENDBRANCH  26  27
ENDBRANCH  22  26
ENDBRANCH   2  22
TORSDOF 15
