REMARK  15 active torsions:
REMARK  status: ('A' for Active; 'I' for Inactive)
REMARK    1  A    between atoms: C_2  and  C_4 
REMARK    2  A    between atoms: C_4  and  C_5 
REMARK    3  A    between atoms: C_5  and  C_6 
REMARK    4  A    between atoms: C_5  and  N_9 
REMARK    5  A    between atoms: N_9  and  C_10 
REMARK    6  A    between atoms: C_10  and  C_11 
REMARK    7  A    between atoms: C_11  and  C_12 
REMARK    8  A    between atoms: C_12  and  C_13 
REMARK    9  A    between atoms: C_12  and  N_16 
REMARK       I    between atoms: N_16  and  C_17 
REMARK   10  A    between atoms: C_17  and  C_18 
REMARK   11  A    between atoms: C_18  and  C_19 
REMARK   12  A    between atoms: C_18  and  N_26 
REMARK   13  A    between atoms: C_19  and  C_20 
REMARK   14  A    between atoms: C_20  and  C_21 
REMARK   15  A    between atoms: C_21  and  N_22 
REMARK       I    between atoms: N_22  and  C_23 
REMARK       I    between atoms: C_23  and  N_24 
ROOT
HETATM    1  N           1      -1.241   0.406  -1.136  0.00  0.00    -0.345 N 
HETATM    2  C           1      -0.084   1.128  -1.010  0.00  0.00     0.249 C 
HETATM    3  O           1       0.948   0.700  -1.469  0.00  0.00    -0.271 OA
HETATM    4  H           1      -2.105   0.765  -0.752  0.00  0.00     0.163 HD
ENDROOT
BRANCH   2   5
HETATM    5  C           1      -0.099   2.459  -0.299  0.00  0.00     0.274 C 
BRANCH   5   6
HETATM    6  C           1       1.305   3.050  -0.298  0.00  0.00     0.044 C 
BRANCH   6   7
HETATM    7  C           1       2.256   2.102   0.420  0.00  0.00     0.023 C 
BRANCH   7   8
HETATM    8  C           1       2.874   2.812   1.617  0.00  0.00     0.138 C 
BRANCH   8   9
HETATM    9  N           1       3.617   3.994   1.156  0.00  0.00    -0.227 N 
HETATM   10  C           1       4.213   4.733   1.994  0.00  0.00     0.665 C 
HETATM   11  N           1       4.853   5.751   1.597  0.00  0.00    -0.235 N 
HETATM   12  N           1       4.168   4.446   3.261  0.00  0.00    -0.235 N 
HETATM   13  H           1       5.348   6.363   2.291  0.00  0.00     0.174 HD
HETATM   14  H           1       4.890   5.982   0.573  0.00  0.00     0.174 HD
HETATM   15  H           1       4.660   5.056   3.952  0.00  0.00     0.174 HD
HETATM   16  H           1       3.640   3.606   3.588  0.00  0.00     0.174 HD
HETATM   17  H           1       3.654   4.225   0.133  0.00  0.00     0.177 HD
ENDBRANCH   8   9
ENDBRANCH   7   8
ENDBRANCH   6   7
ENDBRANCH   5   6
BRANCH   5  18
HETATM   18  N           1      -0.559   2.264   1.115  0.00  0.00    -0.067 N 
HETATM   19  H           1      -0.569   3.185   1.609  0.00  0.00     0.275 HD
HETATM   20  H           1      -1.522   1.859   1.115  0.00  0.00     0.275 HD
HETATM   21  H           1       0.093   1.613   1.607  0.00  0.00     0.275 HD
ENDBRANCH   5  18
ENDBRANCH   2   5
BRANCH   1  22
HETATM   22  C           1      -1.227  -0.872  -1.820  0.00  0.00     0.187 C 
BRANCH  22  23
HETATM   23  C           1      -2.631  -1.462  -1.820  0.00  0.00     0.066 C 
BRANCH  23  24
HETATM   24  C           1      -2.821  -2.322  -0.577  0.00  0.00     0.273 C 
BRANCH  24  25
HETATM   25  N           1      -1.854  -3.386  -0.577  0.00  0.00     0.099 N 
HETATM   26  H           1      -1.281  -3.326   0.265  0.00  0.00     0.317 HD
BRANCH  25  27
HETATM   27  C           1      -2.574  -4.631  -0.578  0.00  0.00     0.330 C 
BRANCH  27  28
HETATM   28  C           1      -1.585  -5.789  -0.578  0.00  0.00     0.160 C 
BRANCH  28  29
HETATM   29  C           1      -2.340  -7.096  -0.578  0.00  0.00     0.175 C 
HETATM   30  O           1      -3.590  -7.096  -0.578  0.00  0.00    -0.648 OA
HETATM   31  O           1      -1.715  -8.179  -0.578  0.00  0.00    -0.648 OA
ENDBRANCH  28  29
ENDBRANCH  27  28
BRANCH  27  32
HETATM   32  C           1      -3.442  -4.710   0.654  0.00  0.00     0.207 C 
HETATM   33  O           1      -4.327  -3.849   0.852  0.00  0.00    -0.646 OA
HETATM   34  O           1      -3.276  -5.636   1.477  0.00  0.00    -0.646 OA
ENDBRANCH  27  32
ENDBRANCH  25  27
ENDBRANCH  24  25
ENDBRANCH  23  24
ENDBRANCH  22  23
BRANCH  22  35
HETATM   35  C           1      -0.763  -0.676  -3.242  0.00  0.00     0.196 C 
HETATM   36  O           1       0.370  -0.200  -3.470  0.00  0.00    -0.646 OA
HETATM   37  O           1      -1.511  -0.990  -4.193  0.00  0.00    -0.646 OA
ENDBRANCH  22  35
ENDBRANCH   1  22
TORSDOF 15
