REMARK  15 active torsions:
REMARK  status: ('A' for Active; 'I' for Inactive)
REMARK    1  A    between atoms: C_2  and  C_28 
REMARK    2  A    between atoms: C_2  and  C_3 
REMARK    3  A    between atoms: C_2  and  N_24 
REMARK    4  A    between atoms: N_13  and  C_15 
REMARK    5  A    between atoms: N_13  and  C_14 
REMARK    6  A    between atoms: C_14  and  C_28 
REMARK    7  A    between atoms: C_15  and  C_36 
REMARK    8  A    between atoms: C_15  and  C_16 
REMARK    9  A    between atoms: C_20  and  C_21 
REMARK   10  A    between atoms: C_20  and  C_25 
REMARK   11  A    between atoms: C_21  and  C_22 
REMARK   12  A    between atoms: C_22  and  C_23 
REMARK   13  A    between atoms: C_22  and  N_30 
REMARK       I    between atoms: C_23  and  N_24 
REMARK   14  A    between atoms: C_25  and  N_26 
REMARK       I    between atoms: N_26  and  C_33 
REMARK       I    between atoms: N_31  and  C_33 
REMARK   15  A    between atoms: Se_35  and  C_36 
ROOT
HETATM    1  H           1      -0.538   2.205  -0.763  0.00  0.00     0.163 HD
HETATM    2  C           1       0.787   0.636  -1.022  0.00  0.00     0.249 C 
HETATM    3  N           1      -0.417   1.276  -1.147  0.00  0.00    -0.345 N 
HETATM    4  O           1       0.932  -0.472  -1.481  0.00  0.00    -0.271 OA
ENDROOT
BRANCH   2   5
HETATM    5  C           1       1.932   1.314  -0.310  0.00  0.00     0.274 C 
BRANCH   5   6
HETATM    6  C           1       3.146   0.394  -0.310  0.00  0.00     0.044 C 
BRANCH   6   7
HETATM    7  C           1       2.800  -0.904   0.409  0.00  0.00     0.023 C 
BRANCH   7   8
HETATM    8  C           1       3.724  -1.084   1.606  0.00  0.00     0.138 C 
BRANCH   8   9
HETATM    9  N           1       5.119  -1.137   1.145  0.00  0.00    -0.227 N 
HETATM   10  H           1       5.337  -1.053   0.121  0.00  0.00     0.177 HD
HETATM   11  C           1       6.057  -1.284   1.982  0.00  0.00     0.665 C 
HETATM   12  N           1       5.787  -1.388   3.250  0.00  0.00    -0.235 N 
HETATM   13  N           1       7.258  -1.329   1.586  0.00  0.00    -0.235 N 
HETATM   14  H           1       4.795  -1.350   3.577  0.00  0.00     0.174 HD
HETATM   15  H           1       6.561  -1.509   3.941  0.00  0.00     0.174 HD
HETATM   16  H           1       8.036  -1.450   2.280  0.00  0.00     0.174 HD
HETATM   17  H           1       7.477  -1.245   0.562  0.00  0.00     0.174 HD
ENDBRANCH   8   9
ENDBRANCH   7   8
ENDBRANCH   6   7
ENDBRANCH   5   6
BRANCH   5  18
HETATM   18  N           1       1.533   1.615   1.104  0.00  0.00    -0.067 N 
HETATM   19  H           1       2.325   2.085   1.597  0.00  0.00     0.275 HD
HETATM   20  H           1       0.700   2.247   1.103  0.00  0.00     0.275 HD
HETATM   21  H           1       1.295   0.724   1.596  0.00  0.00     0.275 HD
ENDBRANCH   5  18
ENDBRANCH   2   5
BRANCH   3  22
HETATM   22  C           1      -1.517   0.625  -1.831  0.00  0.00     0.187 C 
BRANCH  22  23
HETATM   23  C           1      -2.730   1.546  -1.831  0.00  0.00     0.066 C 
BRANCH  23  24
HETATM   24  C           1      -3.570   1.281  -0.588  0.00  0.00     0.273 C 
BRANCH  24  25
HETATM   25  N           1      -4.008  -0.089  -0.588  0.00  0.00     0.098 N 
HETATM   26  H           1      -3.669  -0.554   0.254  0.00  0.00     0.317 HD
BRANCH  25  27
HETATM   27  C           1      -5.446  -0.087  -0.589  0.00  0.00     0.320 C 
BRANCH  27  28
HETATM   28  C           1      -5.955  -1.523  -0.589  0.00  0.00     0.049 C 
BRANCH  28  29
HETATM   29 Se           1      -7.904  -1.523  -0.589  0.00  0.00     0.000 Se
HETATM   30  H           1      -8.019  -2.990  -0.589  0.00  0.00     0.000 HD
ENDBRANCH  28  29
ENDBRANCH  27  28
BRANCH  27  31
HETATM   31  C           1      -5.949   0.625   0.643  0.00  0.00     0.207 C 
HETATM   32  O           1      -6.668   0.019   1.466  0.00  0.00    -0.646 OA
HETATM   33  O           1      -5.646   1.822   0.840  0.00  0.00    -0.646 OA
ENDBRANCH  27  31
ENDBRANCH  25  27
ENDBRANCH  24  25
ENDBRANCH  23  24
ENDBRANCH  22  23
BRANCH  22  34
HETATM   34  C           1      -1.115   0.321  -3.253  0.00  0.00     0.196 C 
HETATM   35  O           1      -0.136  -0.422  -3.481  0.00  0.00    -0.646 OA
HETATM   36  O           1      -1.762   0.812  -4.204  0.00  0.00    -0.646 OA
ENDBRANCH  22  34
ENDBRANCH   3  22
TORSDOF 15
