REMARK  8 active torsions:
REMARK  status: ('A' for Active; 'I' for Inactive)
REMARK    1  A    between atoms: C_10  and  C_11 
REMARK    2  A    between atoms: C_11  and  N_14 
REMARK       I    between atoms: N_13  and  C_21 
REMARK       I    between atoms: N_14  and  C_15 
REMARK    3  A    between atoms: C_15  and  C_16 
REMARK    4  A    between atoms: C_16  and  C_17 
REMARK    5  A    between atoms: C_16  and  N_26 
REMARK    6  A    between atoms: C_17  and  C_18 
REMARK    7  A    between atoms: C_18  and  C_19 
REMARK    8  A    between atoms: C_19  and  N_20 
REMARK       I    between atoms: N_20  and  C_21 
ROOT
HETATM    1  C           1      -0.137   0.897   1.292  0.00  0.00     0.274 C 
ENDROOT
BRANCH   1   2
HETATM    2  C           1      -0.639   1.608   0.059  0.00  0.00     0.249 C 
HETATM    3  N           1      -1.985   1.733  -0.158  0.00  0.00    -0.345 N 
HETATM    4  H           1      -2.643   1.349   0.508  0.00  0.00     0.163 HD
HETATM    5  O           1       0.146   2.067  -0.736  0.00  0.00    -0.271 OA
BRANCH   3   6
HETATM    6  C           1      -2.468   2.416  -1.343  0.00  0.00     0.181 C 
HETATM    7  C           1      -3.991   2.416  -1.343  0.00  0.00     0.043 C 
BRANCH   6   8
HETATM    8  C           1      -1.964   3.839  -1.343  0.00  0.00     0.196 C 
HETATM    9  O           1      -2.776   4.789  -1.343  0.00  0.00    -0.646 OA
HETATM   10  O           1      -0.735   4.067  -1.343  0.00  0.00    -0.646 OA
ENDBRANCH   6   8
ENDBRANCH   3   6
ENDBRANCH   1   2
BRANCH   1  11
HETATM   11  C           1       1.386   0.897   1.293  0.00  0.00     0.044 C 
BRANCH  11  12
HETATM   12  C           1       1.895   0.178   0.051  0.00  0.00     0.023 C 
BRANCH  12  13
HETATM   13  C           1       1.387  -1.258   0.051  0.00  0.00     0.138 C 
BRANCH  13  14
HETATM   14  N           1       2.530  -2.183   0.053  0.00  0.00    -0.227 N 
HETATM   15  C           1       2.333  -3.433   0.052  0.00  0.00     0.665 C 
HETATM   16  N           1       1.119  -3.900   0.051  0.00  0.00    -0.235 N 
HETATM   17  N           1       3.317  -4.229   0.054  0.00  0.00    -0.235 N 
HETATM   18  H           1       0.307  -3.242   0.049  0.00  0.00     0.174 HD
HETATM   19  H           1       0.957  -4.932   0.051  0.00  0.00     0.174 HD
HETATM   20  H           1       4.297  -3.853   0.055  0.00  0.00     0.174 HD
HETATM   21  H           1       3.153  -5.266   0.054  0.00  0.00     0.174 HD
HETATM   22  H           1       3.510  -1.806   0.054  0.00  0.00     0.177 HD
ENDBRANCH  13  14
ENDBRANCH  12  13
ENDBRANCH  11  12
ENDBRANCH   1  11
BRANCH   1  23
HETATM   23  N           1      -0.637  -0.517   1.292  0.00  0.00    -0.067 N 
HETATM   24  H           1      -1.682  -0.516   1.291  0.00  0.00     0.275 HD
HETATM   25  H           1      -0.290  -1.010   2.145  0.00  0.00     0.275 HD
HETATM   26  H           1      -0.288  -1.009   0.439  0.00  0.00     0.275 HD
ENDBRANCH   1  23
TORSDOF 8
