REMARK  16 active torsions:
REMARK  status: ('A' for Active; 'I' for Inactive)
REMARK    1  A    between atoms: C_1  and  C_29 
REMARK    2  A    between atoms: C_1  and  C_21 
REMARK    3  A    between atoms: C_2  and  C_33 
REMARK    4  A    between atoms: N_5  and  C_33 
REMARK    5  A    between atoms: N_5  and  C_6 
REMARK    6  A    between atoms: C_6  and  C_7 
REMARK    7  A    between atoms: C_7  and  C_8 
REMARK    8  A    between atoms: C_8  and  C_30 
REMARK    9  A    between atoms: C_8  and  N_27 
REMARK       I    between atoms: C_9  and  N_10 
REMARK       I    between atoms: C_9  and  N_11 
REMARK   10  A    between atoms: N_12  and  C_29 
REMARK   11  A    between atoms: C_21  and  C_22 
REMARK   12  A    between atoms: C_22  and  N_23 
REMARK   13  A    between atoms: Se_25  and  C_35 
REMARK       I    between atoms: N_27  and  C_28 
REMARK   14  A    between atoms: C_28  and  C_29 
REMARK   15  A    between atoms: C_33  and  C_34 
REMARK   16  A    between atoms: C_34  and  C_35 
ROOT
HETATM    1  O           1       0.898   1.643  -1.345  0.00  0.00    -0.271 OA
HETATM    2  H           1       2.190  -1.191  -0.970  0.00  0.00     0.163 HD
HETATM    3  N           1       1.812  -0.291  -0.704  0.00  0.00    -0.345 N 
HETATM    4  C           1       1.349   0.569  -1.664  0.00  0.00     0.249 C 
ENDROOT
BRANCH   4   5
HETATM    5  C           1       1.403   0.174  -3.119  0.00  0.00     0.274 C 
BRANCH   5   6
HETATM    6  C           1       0.832   1.299  -3.972  0.00  0.00     0.044 C 
BRANCH   6   7
HETATM    7  C           1      -0.614   1.557  -3.571  0.00  0.00     0.023 C 
BRANCH   7   8
HETATM    8  C           1      -1.435   0.292  -3.784  0.00  0.00     0.138 C 
BRANCH   8   9
HETATM    9  N           1      -2.514   0.563  -4.745  0.00  0.00    -0.227 N 
HETATM   10  C           1      -3.320  -0.358  -5.068  0.00  0.00     0.665 C 
HETATM   11  N           1      -4.249  -0.124  -5.895  0.00  0.00    -0.235 N 
HETATM   12  N           1      -3.194  -1.543  -4.549  0.00  0.00    -0.235 N 
HETATM   13  H           1      -4.918  -0.888  -6.163  0.00  0.00     0.174 HD
HETATM   14  H           1      -4.351   0.833  -6.314  0.00  0.00     0.174 HD
HETATM   15  H           1      -3.859  -2.304  -4.816  0.00  0.00     0.174 HD
HETATM   16  H           1      -2.427  -1.736  -3.866  0.00  0.00     0.174 HD
HETATM   17  H           1      -2.616   1.521  -5.163  0.00  0.00     0.177 HD
ENDBRANCH   8   9
ENDBRANCH   7   8
ENDBRANCH   6   7
ENDBRANCH   5   6
BRANCH   5  18
HETATM   18  N           1       0.595  -1.072  -3.329  0.00  0.00    -0.067 N 
HETATM   19  H           1       0.632  -1.346  -4.337  0.00  0.00     0.275 HD
HETATM   20  H           1       0.988  -1.843  -2.744  0.00  0.00     0.275 HD
HETATM   21  H           1      -0.397  -0.894  -3.053  0.00  0.00     0.275 HD
ENDBRANCH   5  18
ENDBRANCH   4   5
BRANCH   3  22
HETATM   22  C           1       1.760   0.088   0.695  0.00  0.00     0.187 C 
BRANCH  22  23
HETATM   23  C           1       2.332  -1.037   1.547  0.00  0.00     0.066 C 
BRANCH  23  24
HETATM   24  C           1       1.214  -1.994   1.941  0.00  0.00     0.273 C 
BRANCH  24  25
HETATM   25  N           1       0.217  -1.283   2.694  0.00  0.00     0.098 N 
HETATM   26  H           1      -0.523  -1.928   2.973  0.00  0.00     0.317 HD
BRANCH  25  27
HETATM   27  C           1       0.853  -0.748   3.867  0.00  0.00     0.320 C 
BRANCH  27  28
HETATM   28  C           1       1.425  -1.878   4.688  0.00  0.00     0.207 C 
HETATM   29  O           1       2.289  -2.634   4.194  0.00  0.00    -0.646 OA
HETATM   30  O           1       1.034  -2.057   5.862  0.00  0.00    -0.646 OA
ENDBRANCH  27  28
BRANCH  27  31
HETATM   31  C           1      -0.171   0.015   4.696  0.00  0.00     0.047 C 
BRANCH  31  32
HETATM   32  C           1       0.502   0.582   5.940  0.00  0.00     0.003 C 
BRANCH  32  33
HETATM   33 Se           1       0.339   2.524   5.940  0.00  0.00     0.000 Se
HETATM   34  C           1      -1.610   2.524   5.940  0.00  0.00     0.000 C 
ENDBRANCH  32  33
ENDBRANCH  31  32
ENDBRANCH  27  31
ENDBRANCH  25  27
ENDBRANCH  24  25
ENDBRANCH  23  24
ENDBRANCH  22  23
BRANCH  22  35
HETATM   35  C           1       2.572   1.342   0.906  0.00  0.00     0.196 C 
HETATM   36  O           1       2.271   2.392   0.297  0.00  0.00    -0.646 OA
HETATM   37  O           1       3.546   1.332   1.689  0.00  0.00    -0.646 OA
ENDBRANCH  22  35
ENDBRANCH   3  22
TORSDOF 16
