REMARK  10 active torsions:
REMARK  status: ('A' for Active; 'I' for Inactive)
REMARK    1  A    between atoms: C_5  and  C_14 
REMARK    2  A    between atoms: C_7  and  C_15 
REMARK       I    between atoms: C_12  and  N_26 
REMARK    3  A    between atoms: C_12  and  C_13 
REMARK    4  A    between atoms: C_13  and  C_14 
REMARK    5  A    between atoms: C_13  and  N_27 
REMARK    6  A    between atoms: C_15  and  C_25 
REMARK    7  A    between atoms: C_15  and  N_26 
REMARK       I    between atoms: N_17  and  C_18 
REMARK       I    between atoms: C_18  and  N_19 
REMARK    8  A    between atoms: N_20  and  C_21 
REMARK    9  A    between atoms: C_21  and  C_22 
REMARK   10  A    between atoms: C_22  and  C_25 
ROOT
HETATM    1  C           1       1.587   0.665   0.218  0.00  0.00     0.185 C 
ENDROOT
BRANCH   1   2
HETATM    2  C           1       2.469   1.882   0.081  0.00  0.00     0.196 C 
HETATM    3  O           1       1.973   2.979  -0.254  0.00  0.00    -0.646 OA
HETATM    4  O           1       3.696   1.792   0.303  0.00  0.00    -0.646 OA
ENDBRANCH   1   2
BRANCH   1   5
HETATM    5  C           1       2.433  -0.532   0.634  0.00  0.00     0.038 C 
BRANCH   5   6
HETATM    6  C           1       1.586  -1.488   1.463  0.00  0.00     0.023 C 
BRANCH   6   7
HETATM    7  C           1       1.078  -0.771   2.706  0.00  0.00     0.138 C 
BRANCH   7   8
HETATM    8  N           1      -0.392  -0.771   2.706  0.00  0.00    -0.227 N 
HETATM    9  H           1      -0.917   0.139   2.706  0.00  0.00     0.177 HD
HETATM   10  C           1      -1.025  -1.867   2.706  0.00  0.00     0.665 C 
HETATM   11  N           1      -2.325  -1.867   2.706  0.00  0.00    -0.235 N 
HETATM   12  N           1      -0.392  -2.963   2.706  0.00  0.00    -0.235 N 
HETATM   13  H           1      -2.848  -2.772   2.706  0.00  0.00     0.174 HD
HETATM   14  H           1      -2.848  -0.962   2.706  0.00  0.00     0.174 HD
HETATM   15  H           1      -0.917  -3.873   2.706  0.00  0.00     0.174 HD
HETATM   16  H           1       0.658  -2.963   2.706  0.00  0.00     0.174 HD
ENDBRANCH   7   8
ENDBRANCH   6   7
ENDBRANCH   5   6
ENDBRANCH   1   5
BRANCH   1  17
HETATM   17  N           1       0.948   0.386  -1.053  0.00  0.00    -0.345 N 
HETATM   18  H           1       1.105  -0.501  -1.514  0.00  0.00     0.163 HD
HETATM   19  C           1       0.133   1.323  -1.629  0.00  0.00     0.249 C 
HETATM   20  O           1      -0.054   2.382  -1.079  0.00  0.00    -0.271 OA
BRANCH  19  21
HETATM   21  C           1      -0.532   1.033  -2.953  0.00  0.00     0.284 C 
BRANCH  21  22
HETATM   22  C           1      -1.378   2.229  -3.370  0.00  0.00     0.155 C 
BRANCH  22  23
HETATM   23  C           1      -2.433   2.489  -2.323  0.00  0.00     0.175 C 
HETATM   24  O           1      -3.240   3.432  -2.470  0.00  0.00    -0.648 OA
HETATM   25  O           1      -2.501   1.760  -1.309  0.00  0.00    -0.648 OA
ENDBRANCH  22  23
ENDBRANCH  21  22
BRANCH  21  26
HETATM   26  N           1      -1.410  -0.176  -2.816  0.00  0.00    -0.066 N 
HETATM   27  H           1      -1.871  -0.377  -3.732  0.00  0.00     0.275 HD
HETATM   28  H           1      -0.829  -0.996  -2.530  0.00  0.00     0.275 HD
HETATM   29  H           1      -2.140   0.005  -2.091  0.00  0.00     0.275 HD
ENDBRANCH  21  26
ENDBRANCH  19  21
ENDBRANCH   1  17
TORSDOF 10
