REMARK  8 active torsions:
REMARK  status: ('A' for Active; 'I' for Inactive)
REMARK    1  A    between atoms: N_2  and  C_8 
REMARK       I    between atoms: C_5  and  N_6 
REMARK    2  A    between atoms: C_5  and  C_8 
REMARK    3  A    between atoms: N_6  and  C_12 
REMARK    4  A    between atoms: C_7  and  C_8 
REMARK    5  A    between atoms: C_7  and  C_17 
REMARK    6  A    between atoms: C_11  and  C_12 
REMARK    7  A    between atoms: C_12  and  C_13 
REMARK    8  A    between atoms: C_13  and  C_15 
ROOT
HETATM    1  O           1       1.380  -1.706  -0.636  0.00  0.00    -0.271 OA
HETATM    2  H           1       0.056   0.169   1.502  0.00  0.00     0.163 HD
HETATM    3  C           1       1.088  -1.292   0.460  0.00  0.00     0.249 C 
HETATM    4  N           1       0.301  -0.178   0.583  0.00  0.00    -0.345 N 
ENDROOT
BRANCH   3   5
HETATM    5  C           1       1.590  -2.001   1.694  0.00  0.00     0.284 C 
BRANCH   5   6
HETATM    6  N           1       0.422  -2.471   2.509  0.00  0.00    -0.066 N 
HETATM    7  H           1       0.769  -2.962   3.364  0.00  0.00     0.275 HD
HETATM    8  H           1      -0.158  -1.649   2.792  0.00  0.00     0.275 HD
HETATM    9  H           1      -0.157  -3.129   1.941  0.00  0.00     0.275 HD
ENDBRANCH   5   6
BRANCH   5  10
HETATM   10  C           1       2.436  -3.198   1.282  0.00  0.00     0.155 C 
BRANCH  10  11
HETATM   11  C           1       1.599  -4.149   0.462  0.00  0.00     0.175 C 
HETATM   12  O           1       0.401  -3.881   0.224  0.00  0.00    -0.648 OA
HETATM   13  O           1       2.103  -5.204   0.021  0.00  0.00    -0.648 OA
ENDBRANCH  10  11
ENDBRANCH   5  10
ENDBRANCH   3   5
BRANCH   4  14
HETATM   14  C           1      -0.182   0.503  -0.602  0.00  0.00     0.185 C 
BRANCH  14  15
HETATM   15  C           1       0.992   0.976  -1.423  0.00  0.00     0.196 C 
HETATM   16  O           1       1.139   2.194  -1.661  0.00  0.00    -0.646 OA
HETATM   17  O           1       1.819   0.149  -1.866  0.00  0.00    -0.646 OA
ENDBRANCH  14  15
BRANCH  14  18
HETATM   18  C           1      -1.028   1.700  -0.190  0.00  0.00     0.040 C 
BRANCH  18  19
HETATM   19  C           1      -1.535   2.418  -1.434  0.00  0.00    -0.020 C 
HETATM   20  C           1      -1.027   3.853  -1.434  0.00  0.00     0.009 C 
HETATM   21  C           1      -3.058   2.418  -1.434  0.00  0.00     0.009 C 
ENDBRANCH  18  19
ENDBRANCH  14  18
ENDBRANCH   4  14
TORSDOF 8
