REMARK  8 active torsions:
REMARK  status: ('A' for Active; 'I' for Inactive)
REMARK    1  A    between atoms: C_2  and  S_12 
REMARK    2  A    between atoms: C_2  and  C_3 
REMARK    3  A    between atoms: C_3  and  C_19 
REMARK    4  A    between atoms: C_3  and  N_15 
REMARK    5  A    between atoms: C_4  and  C_16 
REMARK    6  A    between atoms: C_4  and  C_5 
REMARK    7  A    between atoms: C_4  and  N_9 
REMARK    8  A    between atoms: C_5  and  C_6 
REMARK       I    between atoms: N_15  and  C_16 
ROOT
HETATM    1  O           1      -0.296   1.522   0.186  0.00  0.00    -0.271 OA
HETATM    2  N           1      -0.379  -0.710   0.186  0.00  0.00    -0.344 N 
HETATM    3  C           1       0.307   0.475   0.186  0.00  0.00     0.249 C 
HETATM    4  H           1       0.127  -1.587   0.187  0.00  0.00     0.163 HD
ENDROOT
BRANCH   3   5
HETATM    5  C           1       1.816   0.474   0.187  0.00  0.00     0.284 C 
BRANCH   5   6
HETATM    6  C           1       2.326   1.909   0.187  0.00  0.00     0.155 C 
BRANCH   6   7
HETATM    7  C           1       1.825   2.621  -1.045  0.00  0.00     0.175 C 
HETATM    8  O           1       2.129   3.817  -1.242  0.00  0.00    -0.648 OA
HETATM    9  O           1       1.106   2.015  -1.869  0.00  0.00    -0.648 OA
ENDBRANCH   6   7
ENDBRANCH   5   6
BRANCH   5  10
HETATM   10  N           1       2.315  -0.234  -1.038  0.00  0.00    -0.066 N 
HETATM   11  H           1       1.968   0.260  -1.891  0.00  0.00     0.275 HD
HETATM   12  H           1       3.360  -0.235  -1.038  0.00  0.00     0.275 HD
HETATM   13  H           1       1.966  -1.219  -1.037  0.00  0.00     0.275 HD
ENDBRANCH   5  10
ENDBRANCH   3   5
BRANCH   2  14
HETATM   14  C           1      -1.829  -0.708   0.185  0.00  0.00     0.194 C 
BRANCH  14  15
HETATM   15  C           1      -2.337  -2.144   0.185  0.00  0.00     0.106 C 
BRANCH  15  16
HETATM   16  S           1      -4.152  -2.144   0.185  0.00  0.00    -0.180 SA
HETATM   17  H           1      -4.293  -3.482   0.185  0.00  0.00     0.101 HD
ENDBRANCH  15  16
ENDBRANCH  14  15
BRANCH  14  18
HETATM   18  C           1      -2.331   0.004   1.417  0.00  0.00     0.197 C 
HETATM   19  O           1      -3.050  -0.603   2.240  0.00  0.00    -0.646 OA
HETATM   20  O           1      -2.028   1.200   1.614  0.00  0.00    -0.646 OA
ENDBRANCH  14  18
ENDBRANCH   2  14
TORSDOF 8
