REMARK  8 active torsions:
REMARK  status: ('A' for Active; 'I' for Inactive)
REMARK    1  A    between atoms: N_2  and  C_12 
REMARK       I    between atoms: N_2  and  C_3 
REMARK    2  A    between atoms: C_3  and  C_4 
REMARK    3  A    between atoms: C_4  and  C_5 
REMARK    4  A    between atoms: C_4  and  N_15 
REMARK    5  A    between atoms: C_5  and  C_6 
REMARK       I    between atoms: C_6  and  N_7 
REMARK    6  A    between atoms: C_9  and  C_11 
REMARK    7  A    between atoms: C_11  and  C_12 
REMARK    8  A    between atoms: C_12  and  C_13 
ROOT
HETATM    1  N           1       0.664  -0.832   0.272  0.00  0.00    -0.344 N 
HETATM    2  C           1      -0.019   0.355   0.272  0.00  0.00     0.249 C 
HETATM    3  O           1      -1.227   0.356   0.272  0.00  0.00    -0.271 OA
HETATM    4  H           1       1.676  -0.833   0.272  0.00  0.00     0.163 HD
ENDROOT
BRANCH   2   5
HETATM    5  C           1       0.737   1.661   0.273  0.00  0.00     0.283 C 
BRANCH   5   6
HETATM    6  C           1      -0.251   2.820   0.273  0.00  0.00     0.145 C 
BRANCH   6   7
HETATM    7  C           1      -1.118   2.742  -0.959  0.00  0.00     0.217 C 
HETATM    8  N           1      -2.086   3.686  -1.175  0.00  0.00    -0.370 N 
HETATM    9  H           1      -2.668   3.634  -2.002  0.00  0.00     0.159 HD
HETATM   10  H           1      -2.220   4.435  -0.509  0.00  0.00     0.159 HD
HETATM   11  O           1      -0.959   1.848  -1.755  0.00  0.00    -0.274 OA
ENDBRANCH   6   7
ENDBRANCH   5   6
BRANCH   5  12
HETATM   12  N           1       1.599   1.740  -0.952  0.00  0.00    -0.066 N 
HETATM   13  H           1       2.123   2.644  -0.952  0.00  0.00     0.275 HD
HETATM   14  H           1       2.277   0.945  -0.952  0.00  0.00     0.275 HD
HETATM   15  H           1       0.998   1.685  -1.805  0.00  0.00     0.275 HD
ENDBRANCH   5  12
ENDBRANCH   2   5
BRANCH   1  16
HETATM   16  C           1      -0.062  -2.087   0.271  0.00  0.00     0.195 C 
BRANCH  16  17
HETATM   17  C           1       0.927  -3.245   0.271  0.00  0.00     0.149 C 
BRANCH  17  18
HETATM   18  C           1       0.173  -4.552   0.271  0.00  0.00     0.175 C 
HETATM   19  O           1      -1.077  -4.552   0.271  0.00  0.00    -0.648 OA
HETATM   20  O           1       0.798  -5.634   0.271  0.00  0.00    -0.648 OA
ENDBRANCH  17  18
ENDBRANCH  16  17
BRANCH  16  21
HETATM   21  C           1      -0.930  -2.165   1.503  0.00  0.00     0.197 C 
HETATM   22  O           1      -0.764  -3.091   2.326  0.00  0.00    -0.646 OA
HETATM   23  O           1      -1.815  -1.305   1.700  0.00  0.00    -0.646 OA
ENDBRANCH  16  21
ENDBRANCH   1  16
TORSDOF 8
