REMARK  9 active torsions:
REMARK  status: ('A' for Active; 'I' for Inactive)
REMARK    1  A    between atoms: C_2  and  C_7 
REMARK    2  A    between atoms: C_2  and  C_3 
REMARK    3  A    between atoms: C_2  and  N_23 
REMARK    4  A    between atoms: C_3  and  C_4 
REMARK       I    between atoms: C_4  and  N_8 
REMARK    5  A    between atoms: N_6  and  C_9 
REMARK       I    between atoms: N_6  and  C_7 
REMARK    6  A    between atoms: C_9  and  C_10 
REMARK    7  A    between atoms: C_9  and  C_15 
REMARK    8  A    between atoms: C_10  and  C_11 
REMARK    9  A    between atoms: C_11  and  C_13 
ROOT
HETATM    1  N           1       0.544   0.491  -0.538  0.00  0.00    -0.345 N 
HETATM    2  C           1      -0.352   0.628   0.488  0.00  0.00     0.249 C 
HETATM    3  H           1       0.550   1.161  -1.297  0.00  0.00     0.163 HD
HETATM    4  O           1      -0.359  -0.170   1.394  0.00  0.00    -0.271 OA
ENDROOT
BRANCH   2   5
HETATM    5  C           1      -1.331   1.777   0.487  0.00  0.00     0.283 C 
BRANCH   5   6
HETATM    6  C           1      -2.207   1.698   1.730  0.00  0.00     0.145 C 
BRANCH   6   7
HETATM    7  C           1      -2.964   0.393   1.731  0.00  0.00     0.217 C 
HETATM    8  O           1      -2.815  -0.393   0.826  0.00  0.00    -0.274 OA
HETATM    9  N           1      -3.821   0.099   2.757  0.00  0.00    -0.370 N 
HETATM   10  H           1      -4.329  -0.776   2.758  0.00  0.00     0.159 HD
HETATM   11  H           1      -3.947   0.758   3.516  0.00  0.00     0.159 HD
ENDBRANCH   6   7
ENDBRANCH   5   6
BRANCH   5  12
HETATM   12  N           1      -2.193   1.697  -0.738  0.00  0.00    -0.066 N 
HETATM   13  H           1      -2.716   0.793  -0.737  0.00  0.00     0.275 HD
HETATM   14  H           1      -1.591   1.751  -1.591  0.00  0.00     0.275 HD
HETATM   15  H           1      -2.871   2.492  -0.739  0.00  0.00     0.275 HD
ENDBRANCH   5  12
ENDBRANCH   2   5
BRANCH   1  16
HETATM   16  C           1       1.485  -0.612  -0.537  0.00  0.00     0.186 C 
BRANCH  16  17
HETATM   17  C           1       2.361  -0.532  -1.781  0.00  0.00     0.046 C 
BRANCH  17  18
HETATM   18  C           1       3.350  -1.691  -1.781  0.00  0.00     0.116 C 
BRANCH  18  19
HETATM   19  C           1       2.595  -2.997  -1.781  0.00  0.00     0.172 C 
HETATM   20  O           1       3.220  -4.080  -1.781  0.00  0.00    -0.648 OA
HETATM   21  O           1       1.345  -2.997  -1.781  0.00  0.00    -0.648 OA
ENDBRANCH  18  19
ENDBRANCH  17  18
ENDBRANCH  16  17
BRANCH  16  22
HETATM   22  C           1       2.351  -0.532   0.695  0.00  0.00     0.196 C 
HETATM   23  O           1       3.591  -0.419   0.582  0.00  0.00    -0.646 OA
HETATM   24  O           1       1.829  -0.580   1.830  0.00  0.00    -0.646 OA
ENDBRANCH  16  22
ENDBRANCH   1  16
TORSDOF 9
