REMARK  8 active torsions:
REMARK  status: ('A' for Active; 'I' for Inactive)
REMARK    1  A    between atoms: C_1  and  C_12 
REMARK       I    between atoms: C_1  and  N_9 
REMARK    2  A    between atoms: N_6  and  C_13 
REMARK       I    between atoms: C_7  and  N_21 
REMARK    3  A    between atoms: C_7  and  C_13 
REMARK    4  A    between atoms: C_12  and  C_13 
REMARK    5  A    between atoms: C_14  and  C_22 
REMARK    6  A    between atoms: C_14  and  C_15 
REMARK    7  A    between atoms: C_15  and  C_16 
REMARK    8  A    between atoms: C_15  and  N_21 
ROOT
HETATM    1  O           1       0.222   1.359  -1.412  0.00  0.00    -0.271 OA
HETATM    2  C           1       0.052   0.224  -1.036  0.00  0.00     0.249 C 
HETATM    3  H           1       0.476  -1.152   0.451  0.00  0.00     0.163 HD
HETATM    4  N           1       0.619  -0.201   0.135  0.00  0.00    -0.344 N 
ENDROOT
BRANCH   2   5
HETATM    5  C           1      -0.787  -0.725  -1.856  0.00  0.00     0.283 C 
BRANCH   5   6
HETATM    6  N           1      -1.953  -1.196  -1.039  0.00  0.00    -0.066 N 
HETATM    7  H           1      -2.534  -1.853  -1.606  0.00  0.00     0.275 HD
HETATM    8  H           1      -1.604  -1.688  -0.185  0.00  0.00     0.275 HD
HETATM    9  H           1      -2.533  -0.374  -0.755  0.00  0.00     0.275 HD
ENDBRANCH   5   6
BRANCH   5  10
HETATM   10  C           1      -1.296  -0.008  -3.100  0.00  0.00     0.145 C 
BRANCH  10  11
HETATM   11  C           1      -2.135   1.177  -2.690  0.00  0.00     0.217 C 
HETATM   12  N           1      -2.703   1.977  -3.646  0.00  0.00    -0.370 N 
HETATM   13  H           1      -3.265   2.772  -3.371  0.00  0.00     0.159 HD
HETATM   14  H           1      -2.559   1.773  -4.626  0.00  0.00     0.159 HD
HETATM   15  O           1      -2.306   1.420  -1.520  0.00  0.00    -0.274 OA
ENDBRANCH  10  11
ENDBRANCH   5  10
ENDBRANCH   2   5
BRANCH   4  16
HETATM   16  C           1       1.425   0.711   0.924  0.00  0.00     0.189 C 
BRANCH  16  17
HETATM   17  C           1       1.933  -0.007   2.167  0.00  0.00     0.014 C 
HETATM   18  C           1       1.426   0.712   3.410  0.00  0.00     0.012 C 
BRANCH  17  19
HETATM   19  C           1       1.425  -1.442   2.167  0.00  0.00     0.002 C 
HETATM   20  C           1      -0.098  -1.442   2.167  0.00  0.00     0.005 C 
ENDBRANCH  17  19
ENDBRANCH  16  17
BRANCH  16  21
HETATM   21  C           1       2.597   1.185   0.101  0.00  0.00     0.197 C 
HETATM   22  O           1       3.764   0.961   0.488  0.00  0.00    -0.646 OA
HETATM   23  O           1       2.402   1.802  -0.968  0.00  0.00    -0.646 OA
ENDBRANCH  16  21
ENDBRANCH   4  16
TORSDOF 8
