REMARK  8 active torsions:
REMARK  status: ('A' for Active; 'I' for Inactive)
REMARK    1  A    between atoms: C_2  and  C_10 
REMARK    2  A    between atoms: C_2  and  C_14 
REMARK    3  A    between atoms: C_2  and  N_16 
REMARK    4  A    between atoms: C_7  and  C_19 
REMARK       I    between atoms: C_10  and  N_11 
REMARK    5  A    between atoms: N_11  and  C_18 
REMARK       I    between atoms: N_12  and  C_13 
REMARK    6  A    between atoms: C_13  and  C_14 
REMARK    7  A    between atoms: C_18  and  C_19 
REMARK    8  A    between atoms: C_18  and  C_23 
ROOT
HETATM    1  H           1      -0.078   0.491   1.514  0.00  0.00     0.163 HD
HETATM    2  C           1       0.954  -0.970   0.472  0.00  0.00     0.249 C 
HETATM    3  N           1       0.167   0.143   0.595  0.00  0.00    -0.345 N 
HETATM    4  O           1       1.247  -1.385  -0.624  0.00  0.00    -0.271 OA
ENDROOT
BRANCH   2   5
HETATM    5  C           1       1.457  -1.679   1.706  0.00  0.00     0.283 C 
BRANCH   5   6
HETATM    6  C           1       2.303  -2.877   1.295  0.00  0.00     0.145 C 
BRANCH   6   7
HETATM    7  C           1       1.466  -3.827   0.474  0.00  0.00     0.217 C 
HETATM    8  N           1       2.018  -4.983  -0.009  0.00  0.00    -0.370 N 
HETATM    9  H           1       2.987  -5.200   0.184  0.00  0.00     0.159 HD
HETATM   10  H           1       1.456  -5.621  -0.559  0.00  0.00     0.159 HD
HETATM   11  O           1       0.308  -3.569   0.245  0.00  0.00    -0.274 OA
ENDBRANCH   6   7
ENDBRANCH   5   6
BRANCH   5  12
HETATM   12  N           1       0.289  -2.150   2.521  0.00  0.00    -0.066 N 
HETATM   13  H           1       0.636  -2.641   3.376  0.00  0.00     0.275 HD
HETATM   14  H           1      -0.291  -1.328   2.804  0.00  0.00     0.275 HD
HETATM   15  H           1      -0.291  -2.807   1.953  0.00  0.00     0.275 HD
ENDBRANCH   5  12
ENDBRANCH   2   5
BRANCH   3  16
HETATM   16  C           1      -0.315   0.825  -0.590  0.00  0.00     0.185 C 
BRANCH  16  17
HETATM   17  C           1      -1.162   2.022  -0.178  0.00  0.00     0.040 C 
BRANCH  17  18
HETATM   18  C           1      -1.668   2.739  -1.422  0.00  0.00    -0.020 C 
HETATM   19  C           1      -3.191   2.739  -1.422  0.00  0.00     0.009 C 
HETATM   20  C           1      -1.160   4.175  -1.422  0.00  0.00     0.009 C 
ENDBRANCH  17  18
ENDBRANCH  16  17
BRANCH  16  21
HETATM   21  C           1       0.859   1.297  -1.411  0.00  0.00     0.196 C 
HETATM   22  O           1       1.685   0.470  -1.854  0.00  0.00    -0.646 OA
HETATM   23  O           1       1.006   2.516  -1.649  0.00  0.00    -0.646 OA
ENDBRANCH  16  21
ENDBRANCH   3  16
TORSDOF 8
