REMARK  6 active torsions:
REMARK  status: ('A' for Active; 'I' for Inactive)
REMARK       I    between atoms: C_3  and  N_11 
REMARK    1  A    between atoms: C_3  and  C_7 
REMARK    2  A    between atoms: C_7  and  C_8 
REMARK    3  A    between atoms: C_7  and  N_14 
REMARK    4  A    between atoms: C_8  and  C_16 
REMARK    5  A    between atoms: C_10  and  C_13 
REMARK    6  A    between atoms: C_10  and  N_11 
ROOT
HETATM    1  C           1      -0.614   1.117  -0.393  0.00  0.00     0.284 C 
ENDROOT
BRANCH   1   2
HETATM    2  C           1       0.366  -0.031  -0.393  0.00  0.00     0.249 C 
HETATM    3  N           1      -0.091  -1.321  -0.393  0.00  0.00    -0.349 N 
HETATM    4  H           1      -1.086  -1.506  -0.393  0.00  0.00     0.163 HD
HETATM    5  O           1       1.554   0.189  -0.393  0.00  0.00    -0.271 OA
BRANCH   3   6
HETATM    6  C           1       0.851  -2.424  -0.393  0.00  0.00     0.235 C 
BRANCH   6   7
HETATM    7  C           1       0.097  -3.731  -0.393  0.00  0.00     0.191 C 
HETATM    8  O           1       0.722  -4.813  -0.393  0.00  0.00    -0.647 OA
HETATM    9  O           1      -1.153  -3.731  -0.393  0.00  0.00    -0.647 OA
ENDBRANCH   6   7
ENDBRANCH   3   6
ENDBRANCH   1   2
BRANCH   1  10
HETATM   10  C           1       0.148   2.436  -0.393  0.00  0.00     0.155 C 
BRANCH  10  11
HETATM   11  C           1       1.016   2.516   0.839  0.00  0.00     0.175 C 
HETATM   12  O           1       1.729   3.524   1.036  0.00  0.00    -0.648 OA
HETATM   13  O           1       1.021   1.576   1.662  0.00  0.00    -0.648 OA
ENDBRANCH  10  11
ENDBRANCH   1  10
BRANCH   1  14
HETATM   14  N           1      -1.475   1.038   0.832  0.00  0.00    -0.066 N 
HETATM   15  H           1      -2.154   1.832   0.833  0.00  0.00     0.275 HD
HETATM   16  H           1      -1.998   0.133   0.832  0.00  0.00     0.275 HD
HETATM   17  H           1      -0.873   1.093   1.685  0.00  0.00     0.275 HD
ENDBRANCH   1  14
TORSDOF 6
