REMARK  8 active torsions:
REMARK  status: ('A' for Active; 'I' for Inactive)
REMARK    1  A    between atoms: N_2  and  C_18 
REMARK    2  A    between atoms: C_5  and  C_7 
REMARK    3  A    between atoms: C_7  and  C_8 
REMARK    4  A    between atoms: C_7  and  N_19 
REMARK    5  A    between atoms: C_8  and  C_9 
REMARK       I    between atoms: C_17  and  N_19 
REMARK    6  A    between atoms: C_17  and  C_18 
REMARK    7  A    between atoms: C_18  and  C_24 
REMARK    8  A    between atoms: C_24  and  C_25 
REMARK       I    between atoms: C_25  and  N_26 
ROOT
HETATM    1  O           1       2.103  -0.778   1.313  0.00  0.00    -0.271 OA
HETATM    2  C           1       1.730   0.312   0.948  0.00  0.00     0.249 C 
HETATM    3  N           1       2.363   0.940  -0.091  0.00  0.00    -0.344 N 
HETATM    4  H           1       3.150   1.550   0.090  0.00  0.00     0.163 HD
ENDROOT
BRANCH   2   5
HETATM    5  C           1       0.568   0.982   1.639  0.00  0.00     0.283 C 
BRANCH   5   6
HETATM    6  N           1      -0.528   1.229   0.644  0.00  0.00    -0.066 N 
HETATM    7  H           1      -1.334   1.693   1.121  0.00  0.00     0.275 HD
HETATM    8  H           1      -0.172   1.849  -0.118  0.00  0.00     0.275 HD
HETATM    9  H           1      -0.841   0.319   0.237  0.00  0.00     0.275 HD
ENDBRANCH   5   6
BRANCH   5  10
HETATM   10  C           1       0.048   0.079   2.750  0.00  0.00     0.145 C 
BRANCH  10  11
HETATM   11  C           1      -0.405  -1.234   2.162  0.00  0.00     0.217 C 
HETATM   12  O           1       0.375  -2.151   2.059  0.00  0.00    -0.274 OA
HETATM   13  N           1      -1.700  -1.387   1.746  0.00  0.00    -0.370 N 
HETATM   14  H           1      -2.004  -2.269   1.352  0.00  0.00     0.159 HD
HETATM   15  H           1      -2.354  -0.620   1.833  0.00  0.00     0.159 HD
ENDBRANCH  10  11
ENDBRANCH   5  10
ENDBRANCH   2   5
BRANCH   3  16
HETATM   16  C           1       1.906   0.730  -1.451  0.00  0.00     0.189 C 
BRANCH  16  17
HETATM   17  C           1       2.766   1.530  -2.399  0.00  0.00     0.197 C 
HETATM   18  O           1       3.996   1.316  -2.458  0.00  0.00    -0.646 OA
HETATM   19  O           1       2.248   2.406  -3.125  0.00  0.00    -0.646 OA
ENDBRANCH  16  17
BRANCH  16  20
HETATM   20  C           1       0.457   1.184  -1.574  0.00  0.00     0.074 C 
BRANCH  20  21
HETATM   21  C           1      -0.454   0.035  -1.269  0.00  0.00    -0.056 A 
HETATM   22  C           1       0.081  -1.209  -0.937  0.00  0.00     0.007 A 
HETATM   23  C           1      -0.767  -2.280  -0.653  0.00  0.00     0.001 A 
HETATM   24  C           1      -2.150  -2.105  -0.701  0.00  0.00     0.000 A 
HETATM   25  C           1      -2.685  -0.861  -1.034  0.00  0.00     0.001 A 
HETATM   26  C           1      -1.837   0.210  -1.318  0.00  0.00     0.007 A 
ENDBRANCH  20  21
ENDBRANCH  16  20
ENDBRANCH   3  16
TORSDOF 8
