REMARK  9 active torsions:
REMARK  status: ('A' for Active; 'I' for Inactive)
REMARK    1  A    between atoms: N_5  and  C_11 
REMARK    2  A    between atoms: C_8  and  C_21 
REMARK    3  A    between atoms: C_8  and  C_19 
REMARK    4  A    between atoms: C_10  and  C_19 
REMARK    5  A    between atoms: C_11  and  C_12 
REMARK    6  A    between atoms: C_11  and  C_16 
REMARK       I    between atoms: C_12  and  N_13 
REMARK    7  A    between atoms: N_13  and  C_19 
REMARK    8  A    between atoms: C_15  and  C_16 
REMARK    9  A    between atoms: Se_17  and  C_21 
ROOT
HETATM    1  O           1       1.711  -1.312  -0.827  0.00  0.00    -0.271 OA
HETATM    2  H           1      -1.180  -0.226  -0.274  0.00  0.00     0.163 HD
HETATM    3  C           1       0.534  -1.118  -1.017  0.00  0.00     0.249 C 
HETATM    4  N           1      -0.194  -0.389  -0.115  0.00  0.00    -0.345 N 
ENDROOT
BRANCH   3   5
HETATM    5  C           1      -0.134  -1.680  -2.248  0.00  0.00     0.284 C 
BRANCH   5   6
HETATM    6  N           1      -0.702  -0.556  -3.064  0.00  0.00    -0.066 N 
HETATM    7  H           1      -1.165  -0.944  -3.917  0.00  0.00     0.275 HD
HETATM    8  H           1      -1.404  -0.033  -2.495  0.00  0.00     0.275 HD
HETATM    9  H           1       0.068   0.090  -3.349  0.00  0.00     0.275 HD
ENDBRANCH   5   6
BRANCH   5  10
HETATM   10  C           1       0.889  -2.443  -3.078  0.00  0.00     0.155 C 
BRANCH  10  11
HETATM   11  C           1       2.000  -1.510  -3.491  0.00  0.00     0.175 C 
HETATM   12  O           1       1.971  -0.310  -3.141  0.00  0.00    -0.648 OA
HETATM   13  O           1       2.950  -1.936  -4.183  0.00  0.00    -0.648 OA
ENDBRANCH  10  11
ENDBRANCH   5  10
ENDBRANCH   3   5
BRANCH   4  14
HETATM   14  C           1       0.448   0.151   1.068  0.00  0.00     0.185 C 
BRANCH  14  15
HETATM   15  C           1      -0.577   0.914   1.897  0.00  0.00     0.036 C 
BRANCH  15  16
HETATM   16  C           1       0.096   1.481   3.140  0.00  0.00     0.003 C 
BRANCH  16  17
HETATM   17 Se           1      -0.067   3.423   3.140  0.00  0.00     0.000 Se
HETATM   18  C           1      -2.016   3.423   3.140  0.00  0.00     0.000 C 
ENDBRANCH  16  17
ENDBRANCH  15  16
ENDBRANCH  14  15
BRANCH  14  19
HETATM   19  C           1       1.019  -0.979   1.889  0.00  0.00     0.196 C 
HETATM   20  O           1       0.629  -1.158   3.063  0.00  0.00    -0.646 OA
HETATM   21  O           1       1.883  -1.735   1.395  0.00  0.00    -0.646 OA
ENDBRANCH  14  19
ENDBRANCH   4  14
TORSDOF 9
