REMARK  8 active torsions:
REMARK  status: ('A' for Active; 'I' for Inactive)
REMARK       I    between atoms: C_2  and  N_3 
REMARK    1  A    between atoms: C_2  and  C_18 
REMARK    2  A    between atoms: N_3  and  C_14 
REMARK    3  A    between atoms: Se_6  and  C_20 
REMARK    4  A    between atoms: C_9  and  C_18 
REMARK    5  A    between atoms: C_9  and  C_13 
REMARK    6  A    between atoms: N_11  and  C_18 
REMARK    7  A    between atoms: C_14  and  C_20 
REMARK    8  A    between atoms: C_14  and  C_17 
ROOT
HETATM    1  C           1       0.316   0.480   0.186  0.00  0.00     0.249 C 
HETATM    2  N           1      -0.369  -0.705   0.186  0.00  0.00    -0.345 N 
HETATM    3  H           1       0.136  -1.582   0.187  0.00  0.00     0.163 HD
HETATM    4  O           1      -0.286   1.527   0.186  0.00  0.00    -0.271 OA
ENDROOT
BRANCH   1   5
HETATM    5  C           1       1.825   0.478   0.187  0.00  0.00     0.284 C 
BRANCH   5   6
HETATM    6  C           1       2.335   1.914   0.187  0.00  0.00     0.155 C 
BRANCH   6   7
HETATM    7  C           1       1.834   2.626  -1.045  0.00  0.00     0.175 C 
HETATM    8  O           1       1.115   2.020  -1.869  0.00  0.00    -0.648 OA
HETATM    9  O           1       2.139   3.822  -1.242  0.00  0.00    -0.648 OA
ENDBRANCH   6   7
ENDBRANCH   5   6
BRANCH   5  10
HETATM   10  N           1       2.325  -0.229  -1.038  0.00  0.00    -0.066 N 
HETATM   11  H           1       1.977   0.265  -1.891  0.00  0.00     0.275 HD
HETATM   12  H           1       1.975  -1.214  -1.037  0.00  0.00     0.275 HD
HETATM   13  H           1       3.370  -0.230  -1.038  0.00  0.00     0.275 HD
ENDBRANCH   5  10
ENDBRANCH   1   5
BRANCH   2  14
HETATM   14  C           1      -1.819  -0.703   0.185  0.00  0.00     0.185 C 
BRANCH  14  15
HETATM   15  C           1      -2.328  -2.139   0.185  0.00  0.00     0.039 C 
BRANCH  15  16
HETATM   16 Se           1      -4.277  -2.139   0.185  0.00  0.00     0.000 Se
HETATM   17  H           1      -4.392  -3.606   0.185  0.00  0.00     0.000 HD
ENDBRANCH  15  16
ENDBRANCH  14  15
BRANCH  14  18
HETATM   18  C           1      -2.322   0.009   1.417  0.00  0.00     0.196 C 
HETATM   19  O           1      -2.019   1.205   1.614  0.00  0.00    -0.646 OA
HETATM   20  O           1      -3.041  -0.598   2.240  0.00  0.00    -0.646 OA
ENDBRANCH  14  18
ENDBRANCH   2  14
TORSDOF 8
