REMARK  10 active torsions:
REMARK  status: ('A' for Active; 'I' for Inactive)
REMARK    1  A    between atoms: N_2  and  C_9 
REMARK    2  A    between atoms: C_6  and  C_20 
REMARK    3  A    between atoms: C_9  and  C_10 
REMARK    4  A    between atoms: C_9  and  C_12 
REMARK       I    between atoms: C_10  and  N_13 
REMARK    5  A    between atoms: C_11  and  C_12 
REMARK    6  A    between atoms: N_13  and  C_20 
REMARK    7  A    between atoms: O_15  and  P_17 
REMARK    8  A    between atoms: P_17  and  O_18 
REMARK    9  A    between atoms: O_18  and  C_19 
REMARK   10  A    between atoms: C_19  and  C_20 
ROOT
HETATM    1  O           1       1.301   0.681   1.057  0.00  0.00    -0.271 OA
HETATM    2  H           1       0.528  -2.093  -0.187  0.00  0.00     0.163 HD
HETATM    3  C           1       1.306  -0.228   0.262  0.00  0.00     0.249 C 
HETATM    4  N           1       0.524  -1.331   0.479  0.00  0.00    -0.343 N 
ENDROOT
BRANCH   4   5
HETATM    5  C           1      -0.308  -1.408   1.664  0.00  0.00     0.210 C 
BRANCH   5   6
HETATM    6  C           1      -1.063  -2.715   1.664  0.00  0.00     0.198 C 
HETATM    7  O           1      -2.313  -2.715   1.664  0.00  0.00    -0.646 OA
HETATM    8  O           1      -0.438  -3.797   1.664  0.00  0.00    -0.646 OA
ENDBRANCH   5   6
BRANCH   5   9
HETATM    9  C           1      -1.298  -0.250   1.664  0.00  0.00     0.217 C 
BRANCH   9  10
HETATM   10  O           1      -2.104  -0.323   0.519  0.00  0.00    -0.287 OA
BRANCH  10  11
HETATM   11  P           1      -3.216   0.838   0.361  0.00  0.00     0.406 P 
HETATM   12  O           1      -4.139   0.798   1.517  0.00  0.00    -0.624 OA
HETATM   13  O           1      -2.548   2.157   0.308  0.00  0.00    -0.624 OA
BRANCH  11  14
HETATM   14  O           1      -4.048   0.602  -1.003  0.00  0.00    -0.300 OA
HETATM   15  H           1      -4.673   1.307  -1.032  0.00  0.00     0.223 HD
ENDBRANCH  11  14
ENDBRANCH  10  11
ENDBRANCH   9  10
ENDBRANCH   5   9
ENDBRANCH   4   5
BRANCH   3  16
HETATM   16  C           1       2.172  -0.149  -0.971  0.00  0.00     0.284 C 
BRANCH  16  17
HETATM   17  N           1       1.308  -0.227  -2.195  0.00  0.00    -0.066 N 
HETATM   18  H           1       1.908  -0.172  -3.049  0.00  0.00     0.275 HD
HETATM   19  H           1       0.786  -1.132  -2.194  0.00  0.00     0.275 HD
HETATM   20  H           1       0.630   0.568  -2.193  0.00  0.00     0.275 HD
ENDBRANCH  16  17
BRANCH  16  21
HETATM   21  C           1       2.934   1.170  -0.972  0.00  0.00     0.155 C 
BRANCH  21  22
HETATM   22  C           1       1.955   2.318  -0.972  0.00  0.00     0.175 C 
HETATM   23  O           1       2.373   3.496  -0.973  0.00  0.00    -0.648 OA
HETATM   24  O           1       0.726   2.091  -0.971  0.00  0.00    -0.648 OA
ENDBRANCH  21  22
ENDBRANCH  16  21
ENDBRANCH   3  16
TORSDOF 10
