REMARK  9 active torsions:
REMARK  status: ('A' for Active; 'I' for Inactive)
REMARK       I    between atoms: N_2  and  C_3 
REMARK    1  A    between atoms: C_3  and  C_4 
REMARK    2  A    between atoms: C_4  and  C_5 
REMARK    3  A    between atoms: C_5  and  C_6 
REMARK    4  A    between atoms: C_5  and  N_20 
REMARK       I    between atoms: C_6  and  N_7 
REMARK    5  A    between atoms: N_7  and  C_11 
REMARK    6  A    between atoms: C_10  and  C_11 
REMARK    7  A    between atoms: C_11  and  C_12 
REMARK    8  A    between atoms: C_12  and  C_13 
REMARK    9  A    between atoms: C_13  and  C_15 
REMARK       I    between atoms: N_14  and  C_15 
ROOT
HETATM    1  C           1      -0.563   0.903   0.593  0.00  0.00     0.249 C 
HETATM    2  N           1       0.333   0.766  -0.433  0.00  0.00    -0.345 N 
HETATM    3  O           1      -0.569   0.104   1.499  0.00  0.00    -0.271 OA
HETATM    4  H           1       0.339   1.435  -1.193  0.00  0.00     0.163 HD
ENDROOT
BRANCH   1   5
HETATM    5  C           1      -1.541   2.052   0.592  0.00  0.00     0.283 C 
BRANCH   5   6
HETATM    6  C           1      -2.418   1.973   1.835  0.00  0.00     0.145 C 
BRANCH   6   7
HETATM    7  C           1      -3.175   0.668   1.836  0.00  0.00     0.217 C 
HETATM    8  O           1      -3.025  -0.118   0.930  0.00  0.00    -0.274 OA
HETATM    9  N           1      -4.032   0.374   2.862  0.00  0.00    -0.370 N 
HETATM   10  H           1      -4.540  -0.501   2.863  0.00  0.00     0.159 HD
HETATM   11  H           1      -4.158   1.033   3.620  0.00  0.00     0.159 HD
ENDBRANCH   6   7
ENDBRANCH   5   6
BRANCH   5  12
HETATM   12  N           1      -2.403   1.972  -0.633  0.00  0.00    -0.066 N 
HETATM   13  H           1      -3.082   2.767  -0.635  0.00  0.00     0.275 HD
HETATM   14  H           1      -1.802   2.026  -1.486  0.00  0.00     0.275 HD
HETATM   15  H           1      -2.927   1.068  -0.632  0.00  0.00     0.275 HD
ENDBRANCH   5  12
ENDBRANCH   1   5
BRANCH   2  16
HETATM   16  C           1       1.274  -0.337  -0.433  0.00  0.00     0.186 C 
BRANCH  16  17
HETATM   17  C           1       2.140  -0.258   0.800  0.00  0.00     0.196 C 
HETATM   18  O           1       3.380  -0.144   0.686  0.00  0.00    -0.646 OA
HETATM   19  O           1       1.619  -0.305   1.935  0.00  0.00    -0.646 OA
ENDBRANCH  16  17
BRANCH  16  20
HETATM   20  C           1       2.150  -0.258  -1.676  0.00  0.00     0.045 C 
BRANCH  20  21
HETATM   21  C           1       3.139  -1.416  -1.676  0.00  0.00     0.105 C 
BRANCH  21  22
HETATM   22  C           1       2.384  -2.723  -1.676  0.00  0.00     0.215 C 
HETATM   23  N           1       3.069  -3.908  -1.676  0.00  0.00    -0.370 N 
HETATM   24  H           1       4.081  -3.908  -1.676  0.00  0.00     0.159 HD
HETATM   25  H           1       2.563  -4.785  -1.676  0.00  0.00     0.159 HD
HETATM   26  O           1       1.176  -2.723  -1.676  0.00  0.00    -0.274 OA
ENDBRANCH  21  22
ENDBRANCH  20  21
ENDBRANCH  16  20
ENDBRANCH   2  16
TORSDOF 9
