REMARK  8 active torsions:
REMARK  status: ('A' for Active; 'I' for Inactive)
REMARK    1  A    between atoms: N_4  and  C_9 
REMARK       I    between atoms: N_6  and  C_7 
REMARK    2  A    between atoms: C_7  and  C_8 
REMARK    3  A    between atoms: C_8  and  C_9 
REMARK    4  A    between atoms: C_9  and  C_12 
REMARK    5  A    between atoms: N_11  and  C_19 
REMARK       I    between atoms: N_11  and  C_12 
REMARK    6  A    between atoms: C_18  and  C_19 
REMARK    7  A    between atoms: C_19  and  C_20 
REMARK    8  A    between atoms: C_20  and  Se_21 
ROOT
HETATM    1  C           1       1.660   0.158   0.283  0.00  0.00     0.283 C 
ENDROOT
BRANCH   1   2
HETATM    2  N           1       2.159  -0.549  -0.942  0.00  0.00    -0.066 N 
HETATM    3  H           1       3.204  -0.551  -0.943  0.00  0.00     0.275 HD
HETATM    4  H           1       1.810  -1.534  -0.942  0.00  0.00     0.275 HD
HETATM    5  H           1       1.812  -0.056  -1.795  0.00  0.00     0.275 HD
ENDBRANCH   1   2
BRANCH   1   6
HETATM    6  C           1       2.170   1.593   0.283  0.00  0.00     0.145 C 
BRANCH   6   7
HETATM    7  C           1       1.669   2.306  -0.950  0.00  0.00     0.217 C 
HETATM    8  O           1       0.974   1.720  -1.745  0.00  0.00    -0.274 OA
HETATM    9  N           1       2.002   3.616  -1.166  0.00  0.00    -0.370 N 
HETATM   10  H           1       1.666   4.094  -1.992  0.00  0.00     0.159 HD
HETATM   11  H           1       2.584   4.106  -0.499  0.00  0.00     0.159 HD
ENDBRANCH   6   7
ENDBRANCH   1   6
BRANCH   1  12
HETATM   12  C           1       0.151   0.159   0.282  0.00  0.00     0.249 C 
HETATM   13  O           1      -0.452   1.206   0.281  0.00  0.00    -0.271 OA
HETATM   14  N           1      -0.535  -1.025   0.282  0.00  0.00    -0.345 N 
HETATM   15  H           1      -0.030  -1.902   0.282  0.00  0.00     0.163 HD
BRANCH  14  16
HETATM   16  C           1      -1.985  -1.024   0.281  0.00  0.00     0.185 C 
BRANCH  16  17
HETATM   17  C           1      -2.487  -0.312   1.513  0.00  0.00     0.196 C 
HETATM   18  O           1      -3.206  -0.918   2.336  0.00  0.00    -0.646 OA
HETATM   19  O           1      -2.184   0.885   1.710  0.00  0.00    -0.646 OA
ENDBRANCH  16  17
BRANCH  16  20
HETATM   20  C           1      -2.493  -2.460   0.281  0.00  0.00     0.039 C 
BRANCH  20  21
HETATM   21 Se           1      -4.442  -2.460   0.281  0.00  0.00     0.000 Se
HETATM   22  H           1      -4.558  -3.927   0.281  0.00  0.00     0.000 HD
ENDBRANCH  20  21
ENDBRANCH  16  20
ENDBRANCH  14  16
ENDBRANCH   1  12
TORSDOF 8
