REMARK  9 active torsions:
REMARK  status: ('A' for Active; 'I' for Inactive)
REMARK    1  A    between atoms: C_1  and  C_16 
REMARK    2  A    between atoms: C_1  and  C_8 
REMARK    3  A    between atoms: C_4  and  C_8 
REMARK    4  A    between atoms: C_5  and  C_6 
REMARK    5  A    between atoms: C_5  and  C_14 
REMARK    6  A    between atoms: C_5  and  N_11 
REMARK       I    between atoms: C_6  and  N_7 
REMARK    7  A    between atoms: N_7  and  C_8 
REMARK       I    between atoms: N_9  and  C_13 
REMARK    8  A    between atoms: C_13  and  C_14 
REMARK    9  A    between atoms: S_15  and  C_16 
ROOT
HETATM    1  C           1       0.337  -0.967  -0.748  0.00  0.00     0.249 C 
HETATM    2  N           1      -0.409  -0.258   0.154  0.00  0.00    -0.345 N 
HETATM    3  O           1       1.519  -1.130  -0.558  0.00  0.00    -0.271 OA
HETATM    4  H           1      -1.399  -0.121  -0.005  0.00  0.00     0.163 HD
ENDROOT
BRANCH   1   5
HETATM    5  C           1      -0.316  -1.546  -1.979  0.00  0.00     0.283 C 
BRANCH   5   6
HETATM    6  C           1       0.727  -2.283  -2.809  0.00  0.00     0.145 C 
BRANCH   6   7
HETATM    7  C           1       1.814  -1.321  -3.222  0.00  0.00     0.217 C 
HETATM    8  N           1       2.865  -1.760  -3.980  0.00  0.00    -0.370 N 
HETATM    9  H           1       3.594  -1.115  -4.258  0.00  0.00     0.159 HD
HETATM   10  H           1       2.914  -2.730  -4.264  0.00  0.00     0.159 HD
HETATM   11  O           1       1.755  -0.162  -2.884  0.00  0.00    -0.274 OA
ENDBRANCH   6   7
ENDBRANCH   5   6
BRANCH   5  12
HETATM   12  N           1      -0.912  -0.438  -2.795  0.00  0.00    -0.066 N 
HETATM   13  H           1      -1.365  -0.838  -3.648  0.00  0.00     0.275 HD
HETATM   14  H           1      -1.628   0.067  -2.226  0.00  0.00     0.275 HD
HETATM   15  H           1      -0.160   0.228  -3.081  0.00  0.00     0.275 HD
ENDBRANCH   5  12
ENDBRANCH   1   5
BRANCH   2  16
HETATM   16  C           1       0.218   0.299   1.337  0.00  0.00     0.186 C 
BRANCH  16  17
HETATM   17  C           1      -0.826   1.035   2.166  0.00  0.00     0.046 C 
BRANCH  17  18
HETATM   18  C           1      -0.168   1.619   3.409  0.00  0.00     0.076 C 
BRANCH  18  19
HETATM   19  S           1      -0.367   3.423   3.409  0.00  0.00    -0.173 SA
HETATM   20  C           1      -2.182   3.423   3.409  0.00  0.00     0.089 C 
ENDBRANCH  18  19
ENDBRANCH  17  18
ENDBRANCH  16  17
BRANCH  16  21
HETATM   21  C           1       0.819  -0.816   2.157  0.00  0.00     0.196 C 
HETATM   22  O           1       0.434  -1.005   3.331  0.00  0.00    -0.646 OA
HETATM   23  O           1       1.703  -1.549   1.664  0.00  0.00    -0.646 OA
ENDBRANCH  16  21
ENDBRANCH   2  16
TORSDOF 9
