REMARK  9 active torsions:
REMARK  status: ('A' for Active; 'I' for Inactive)
REMARK       I    between atoms: C_1  and  N_17 
REMARK    1  A    between atoms: C_1  and  C_2 
REMARK    2  A    between atoms: C_2  and  C_3 
REMARK    3  A    between atoms: C_2  and  N_7 
REMARK    4  A    between atoms: C_3  and  C_4 
REMARK    5  A    between atoms: C_13  and  C_22 
REMARK    6  A    between atoms: C_15  and  C_22 
REMARK    7  A    between atoms: C_15  and  C_21 
REMARK    8  A    between atoms: N_17  and  C_21 
REMARK    9  A    between atoms: C_20  and  C_21 
ROOT
HETATM    1  C           1      -0.630   0.628   0.701  0.00  0.00     0.249 C 
HETATM    2  O           1      -0.637  -0.171   1.607  0.00  0.00    -0.271 OA
HETATM    3  H           1       0.271   1.160  -1.084  0.00  0.00     0.163 HD
HETATM    4  N           1       0.265   0.491  -0.325  0.00  0.00    -0.345 N 
ENDROOT
BRANCH   1   5
HETATM    5  C           1      -1.609   1.776   0.700  0.00  0.00     0.284 C 
BRANCH   5   6
HETATM    6  C           1      -2.486   1.698   1.943  0.00  0.00     0.155 C 
BRANCH   6   7
HETATM    7  C           1      -3.243   0.392   1.944  0.00  0.00     0.175 C 
HETATM    8  O           1      -4.025   0.124   2.881  0.00  0.00    -0.648 OA
HETATM    9  O           1      -3.088  -0.421   1.007  0.00  0.00    -0.648 OA
ENDBRANCH   6   7
ENDBRANCH   5   6
BRANCH   5  10
HETATM   10  N           1      -2.471   1.696  -0.525  0.00  0.00    -0.066 N 
HETATM   11  H           1      -3.149   2.491  -0.526  0.00  0.00     0.275 HD
HETATM   12  H           1      -1.870   1.751  -1.377  0.00  0.00     0.275 HD
HETATM   13  H           1      -2.995   0.792  -0.524  0.00  0.00     0.275 HD
ENDBRANCH   5  10
ENDBRANCH   1   5
BRANCH   4  14
HETATM   14  C           1       1.206  -0.613  -0.324  0.00  0.00     0.186 C 
BRANCH  14  15
HETATM   15  C           1       2.082  -0.533  -1.568  0.00  0.00     0.046 C 
BRANCH  15  16
HETATM   16  C           1       3.071  -1.691  -1.568  0.00  0.00     0.116 C 
BRANCH  16  17
HETATM   17  C           1       2.317  -2.998  -1.568  0.00  0.00     0.172 C 
HETATM   18  O           1       1.067  -2.998  -1.568  0.00  0.00    -0.648 OA
HETATM   19  O           1       2.942  -4.080  -1.568  0.00  0.00    -0.648 OA
ENDBRANCH  16  17
ENDBRANCH  15  16
ENDBRANCH  14  15
BRANCH  14  20
HETATM   20  C           1       2.073  -0.533   0.909  0.00  0.00     0.196 C 
HETATM   21  O           1       3.312  -0.420   0.795  0.00  0.00    -0.646 OA
HETATM   22  O           1       1.551  -0.580   2.043  0.00  0.00    -0.646 OA
ENDBRANCH  14  20
ENDBRANCH   4  14
TORSDOF 9
