REMARK  6 active torsions:
REMARK  status: ('A' for Active; 'I' for Inactive)
REMARK    1  A    between atoms: C_2  and  C_16 
REMARK    2  A    between atoms: N_5  and  C_16 
REMARK       I    between atoms: N_5  and  C_6 
REMARK    3  A    between atoms: C_6  and  C_7 
REMARK    4  A    between atoms: C_7  and  C_8 
REMARK    5  A    between atoms: C_7  and  N_12 
REMARK    6  A    between atoms: C_8  and  C_9 
REMARK       I    between atoms: C_9  and  N_10 
ROOT
HETATM    1  C           1       0.499  -0.432   1.335  0.00  0.00     0.283 C 
ENDROOT
BRANCH   1   2
HETATM    2  C           1      -0.003   0.278   0.102  0.00  0.00     0.249 C 
HETATM    3  N           1      -1.349   0.404  -0.115  0.00  0.00    -0.345 N 
HETATM    4  H           1      -2.007   0.020   0.551  0.00  0.00     0.163 HD
HETATM    5  O           1       0.782   0.737  -0.693  0.00  0.00    -0.271 OA
BRANCH   3   6
HETATM    6  C           1      -1.832   1.087  -1.300  0.00  0.00     0.181 C 
HETATM    7  C           1      -3.355   1.087  -1.300  0.00  0.00     0.043 C 
BRANCH   6   8
HETATM    8  C           1      -1.328   2.509  -1.300  0.00  0.00     0.196 C 
HETATM    9  O           1      -0.099   2.737  -1.300  0.00  0.00    -0.646 OA
HETATM   10  O           1      -2.140   3.460  -1.300  0.00  0.00    -0.646 OA
ENDBRANCH   6   8
ENDBRANCH   3   6
ENDBRANCH   1   2
BRANCH   1  11
HETATM   11  C           1       2.022  -0.433   1.336  0.00  0.00     0.145 C 
BRANCH  11  12
HETATM   12  C           1       2.527  -1.145   0.105  0.00  0.00     0.217 C 
HETATM   13  N           1       3.873  -1.271  -0.109  0.00  0.00    -0.370 N 
HETATM   14  H           1       4.211  -1.748  -0.935  0.00  0.00     0.159 HD
HETATM   15  H           1       4.530  -0.886   0.557  0.00  0.00     0.159 HD
HETATM   16  O           1       1.743  -1.605  -0.691  0.00  0.00    -0.274 OA
ENDBRANCH  11  12
ENDBRANCH   1  11
BRANCH   1  17
HETATM   17  N           1      -0.001  -1.846   1.335  0.00  0.00    -0.066 N 
HETATM   18  H           1       0.347  -2.340   2.188  0.00  0.00     0.275 HD
HETATM   19  H           1      -1.046  -1.846   1.334  0.00  0.00     0.275 HD
HETATM   20  H           1       0.348  -2.339   0.482  0.00  0.00     0.275 HD
ENDBRANCH   1  17
TORSDOF 6
