REMARK  6 active torsions:
REMARK  status: ('A' for Active; 'I' for Inactive)
REMARK    1  A    between atoms: N_4  and  C_6 
REMARK       I    between atoms: N_4  and  C_18 
REMARK    2  A    between atoms: C_6  and  C_7 
REMARK    3  A    between atoms: N_12  and  C_17 
REMARK    4  A    between atoms: C_15  and  C_16 
REMARK    5  A    between atoms: C_16  and  C_17 
REMARK    6  A    between atoms: C_17  and  C_18 
ROOT
HETATM    1  C           1       0.855  -0.537   1.320  0.00  0.00     0.284 C 
ENDROOT
BRANCH   1   2
HETATM    2  N           1       0.355  -1.952   1.320  0.00  0.00    -0.066 N 
HETATM    3  H           1      -0.690  -1.951   1.319  0.00  0.00     0.275 HD
HETATM    4  H           1       0.702  -2.445   2.173  0.00  0.00     0.275 HD
HETATM    5  H           1       0.704  -2.444   0.467  0.00  0.00     0.275 HD
ENDBRANCH   1   2
BRANCH   1   6
HETATM    6  C           1       2.378  -0.538   1.322  0.00  0.00     0.155 C 
BRANCH   6   7
HETATM    7  C           1       2.882  -1.250   0.091  0.00  0.00     0.175 C 
HETATM    8  O           1       2.071  -1.726  -0.733  0.00  0.00    -0.648 OA
HETATM    9  O           1       4.111  -1.365  -0.106  0.00  0.00    -0.648 OA
ENDBRANCH   6   7
ENDBRANCH   1   6
BRANCH   1  10
HETATM   10  C           1       0.352   0.173   0.087  0.00  0.00     0.249 C 
HETATM   11  N           1      -0.993   0.299  -0.130  0.00  0.00    -0.345 N 
HETATM   12  H           1      -1.652  -0.085   0.536  0.00  0.00     0.163 HD
HETATM   13  O           1       1.138   0.632  -0.708  0.00  0.00    -0.271 OA
BRANCH  11  14
HETATM   14  C           1      -1.476   0.981  -1.314  0.00  0.00     0.181 C 
HETATM   15  C           1      -2.999   0.981  -1.314  0.00  0.00     0.043 C 
BRANCH  14  16
HETATM   16  C           1      -0.972   2.404  -1.314  0.00  0.00     0.196 C 
HETATM   17  O           1       0.257   2.632  -1.314  0.00  0.00    -0.646 OA
HETATM   18  O           1      -1.784   3.354  -1.314  0.00  0.00    -0.646 OA
ENDBRANCH  14  16
ENDBRANCH  11  14
ENDBRANCH   1  10
TORSDOF 6
