REMARK  9 active torsions:
REMARK  status: ('A' for Active; 'I' for Inactive)
REMARK    1  A    between atoms: N_1  and  C_16 
REMARK       I    between atoms: N_1  and  C_2 
REMARK    2  A    between atoms: C_2  and  C_3 
REMARK    3  A    between atoms: C_3  and  C_4 
REMARK    4  A    between atoms: C_3  and  N_8 
REMARK    5  A    between atoms: C_4  and  C_5 
REMARK    6  A    between atoms: O_13  and  C_14 
REMARK    7  A    between atoms: C_15  and  C_26 
REMARK    8  A    between atoms: C_15  and  C_16 
REMARK    9  A    between atoms: C_16  and  C_17 
ROOT
HETATM    1  N           1      -0.614  -0.941   0.494  0.00  0.00    -0.344 N 
HETATM    2  C           1      -1.894  -0.476   0.628  0.00  0.00     0.249 C 
HETATM    3  O           1      -2.640  -0.478  -0.323  0.00  0.00    -0.271 OA
HETATM    4  H           1       0.011  -0.939   1.290  0.00  0.00     0.163 HD
ENDROOT
BRANCH   1   5
HETATM    5  C           1      -0.152  -1.435  -0.789  0.00  0.00     0.189 C 
BRANCH   5   6
HETATM    6  C           1       1.297  -1.889  -0.666  0.00  0.00     0.074 C 
BRANCH   6   7
HETATM    7  C           1       2.207  -0.740  -0.970  0.00  0.00    -0.056 A 
HETATM    8  C           1       3.590  -0.915  -0.922  0.00  0.00     0.010 A 
HETATM    9  C           1       4.438   0.156  -1.205  0.00  0.00     0.037 A 
HETATM   10  C           1       3.904   1.400  -1.538  0.00  0.00     0.065 A 
HETATM   11  C           1       2.521   1.575  -1.587  0.00  0.00     0.037 A 
HETATM   12  C           1       1.672   0.505  -1.303  0.00  0.00     0.010 A 
BRANCH  10  13
HETATM   13  O           1       4.728   2.440  -1.814  0.00  0.00    -0.361 OA
HETATM   14  H           1       4.177   3.213  -2.021  0.00  0.00     0.217 HD
ENDBRANCH  10  13
ENDBRANCH   6   7
ENDBRANCH   5   6
BRANCH   5  15
HETATM   15  C           1      -1.010  -2.601  -1.215  0.00  0.00     0.197 C 
HETATM   16  O           1      -2.240  -2.446  -1.376  0.00  0.00    -0.646 OA
HETATM   17  O           1      -0.491  -3.722  -1.408  0.00  0.00    -0.646 OA
ENDBRANCH   5  15
ENDBRANCH   1   5
BRANCH   2  18
HETATM   18  C           1      -2.374   0.039   1.962  0.00  0.00     0.284 C 
BRANCH  18  19
HETATM   19  C           1      -3.823   0.493   1.841  0.00  0.00     0.155 C 
BRANCH  19  20
HETATM   20  C           1      -3.922   1.593   0.813  0.00  0.00     0.175 C 
HETATM   21  O           1      -5.030   2.111   0.557  0.00  0.00    -0.648 OA
HETATM   22  O           1      -2.896   1.986   0.218  0.00  0.00    -0.648 OA
ENDBRANCH  19  20
ENDBRANCH  18  19
BRANCH  18  23
HETATM   23  N           1      -1.522   1.199   2.386  0.00  0.00    -0.066 N 
HETATM   24  H           1      -1.854   1.556   3.310  0.00  0.00     0.275 HD
HETATM   25  H           1      -0.528   0.887   2.470  0.00  0.00     0.275 HD
HETATM   26  H           1      -1.591   1.960   1.674  0.00  0.00     0.275 HD
ENDBRANCH  18  23
ENDBRANCH   2  18
TORSDOF 9
