REMARK  10 active torsions:
REMARK  status: ('A' for Active; 'I' for Inactive)
REMARK    1  A    between atoms: C_1  and  C_8 
REMARK    2  A    between atoms: C_1  and  C_13 
REMARK    3  A    between atoms: N_3  and  C_8 
REMARK    4  A    between atoms: C_6  and  C_12 
REMARK    5  A    between atoms: N_7  and  C_12 
REMARK       I    between atoms: N_7  and  C_9 
REMARK    6  A    between atoms: C_8  and  C_9 
REMARK    7  A    between atoms: C_10  and  N_20 
REMARK    8  A    between atoms: C_10  and  C_14 
REMARK    9  A    between atoms: C_11  and  C_14 
REMARK   10  A    between atoms: C_11  and  C_12 
ROOT
HETATM    1  N           1      -0.132   0.634   0.300  0.00  0.00    -0.345 N 
HETATM    2  C           1       0.757   1.154   1.201  0.00  0.00     0.249 C 
HETATM    3  O           1       1.945   1.043   1.011  0.00  0.00    -0.271 OA
HETATM    4  H           1      -1.127   0.727   0.459  0.00  0.00     0.163 HD
ENDROOT
BRANCH   1   5
HETATM    5  C           1       0.352  -0.051  -0.883  0.00  0.00     0.185 C 
BRANCH   5   6
HETATM    6  C           1       1.192   0.897  -1.704  0.00  0.00     0.196 C 
HETATM    7  O           1       2.220   1.409  -1.210  0.00  0.00    -0.646 OA
HETATM    8  O           1       0.860   1.169  -2.878  0.00  0.00    -0.646 OA
ENDBRANCH   5   6
BRANCH   5   9
HETATM    9  C           1      -0.832  -0.530  -1.712  0.00  0.00     0.038 C 
BRANCH   9  10
HETATM   10  C           1      -0.325  -1.248  -2.956  0.00  0.00     0.030 C 
BRANCH  10  11
HETATM   11  C           1      -0.834  -2.684  -2.956  0.00  0.00     0.230 C 
BRANCH  11  12
HETATM   12  N           1      -2.334  -2.684  -2.956  0.00  0.00    -0.079 N 
HETATM   13  H           1      -2.682  -2.191  -3.809  0.00  0.00     0.274 HD
HETATM   14  H           1      -2.681  -2.192  -2.102  0.00  0.00     0.274 HD
HETATM   15  H           1      -2.682  -3.669  -2.956  0.00  0.00     0.274 HD
ENDBRANCH  11  12
ENDBRANCH  10  11
ENDBRANCH   9  10
ENDBRANCH   5   9
ENDBRANCH   1   5
BRANCH   2  16
HETATM   16  C           1       0.254   1.867   2.432  0.00  0.00     0.284 C 
BRANCH  16  17
HETATM   17  C           1       1.437   2.346   3.262  0.00  0.00     0.155 C 
BRANCH  17  18
HETATM   18  C           1       2.275   1.161   3.676  0.00  0.00     0.175 C 
HETATM   19  O           1       1.943   0.008   3.326  0.00  0.00    -0.648 OA
HETATM   20  O           1       3.302   1.332   4.368  0.00  0.00    -0.648 OA
ENDBRANCH  17  18
ENDBRANCH  16  17
BRANCH  16  21
HETATM   21  N           1      -0.580   0.925   3.249  0.00  0.00    -0.066 N 
HETATM   22  H           1      -0.929   1.417   4.102  0.00  0.00     0.275 HD
HETATM   23  H           1      -1.393   0.597   2.679  0.00  0.00     0.275 HD
HETATM   24  H           1       0.001   0.104   3.534  0.00  0.00     0.275 HD
ENDBRANCH  16  21
ENDBRANCH   2  16
TORSDOF 10
