REMARK  10 active torsions:
REMARK  status: ('A' for Active; 'I' for Inactive)
REMARK    1  A    between atoms: C_6  and  C_25 
REMARK    2  A    between atoms: C_6  and  C_7 
REMARK    3  A    between atoms: C_7  and  C_8 
REMARK    4  A    between atoms: C_7  and  N_11 
REMARK       I    between atoms: N_11  and  C_12 
REMARK    5  A    between atoms: C_12  and  C_13 
REMARK    6  A    between atoms: C_13  and  C_14 
REMARK    7  A    between atoms: C_13  and  N_18 
REMARK    8  A    between atoms: C_14  and  C_15 
REMARK       I    between atoms: C_15  and  N_16 
REMARK    9  A    between atoms: N_23  and  C_24 
REMARK   10  A    between atoms: C_24  and  C_25 
ROOT
HETATM    1  N           1      -0.347   0.553   0.036  0.00  0.00    -0.345 N 
HETATM    2  C           1       0.542   1.074   0.937  0.00  0.00     0.249 C 
HETATM    3  O           1       1.730   0.963   0.747  0.00  0.00    -0.271 OA
HETATM    4  H           1      -1.342   0.647   0.195  0.00  0.00     0.163 HD
ENDROOT
BRANCH   1   5
HETATM    5  C           1       0.137  -0.131  -1.147  0.00  0.00     0.185 C 
BRANCH   5   6
HETATM    6  C           1      -1.047  -0.610  -1.976  0.00  0.00     0.038 C 
BRANCH   6   7
HETATM    7  C           1      -0.540  -1.329  -3.220  0.00  0.00     0.030 C 
BRANCH   7   8
HETATM    8  C           1      -1.049  -2.764  -3.220  0.00  0.00     0.230 C 
BRANCH   8   9
HETATM    9  N           1      -2.549  -2.764  -3.220  0.00  0.00    -0.079 N 
HETATM   10  H           1      -2.897  -3.749  -3.220  0.00  0.00     0.274 HD
HETATM   11  H           1      -2.896  -2.272  -2.366  0.00  0.00     0.274 HD
HETATM   12  H           1      -2.897  -2.272  -4.073  0.00  0.00     0.274 HD
ENDBRANCH   8   9
ENDBRANCH   7   8
ENDBRANCH   6   7
ENDBRANCH   5   6
BRANCH   5  13
HETATM   13  C           1       0.977   0.816  -1.968  0.00  0.00     0.196 C 
HETATM   14  O           1       2.005   1.329  -1.474  0.00  0.00    -0.646 OA
HETATM   15  O           1       0.645   1.089  -3.142  0.00  0.00    -0.646 OA
ENDBRANCH   5  13
ENDBRANCH   1   5
BRANCH   2  16
HETATM   16  C           1       0.039   1.787   2.168  0.00  0.00     0.283 C 
BRANCH  16  17
HETATM   17  C           1       1.222   2.266   2.998  0.00  0.00     0.145 C 
BRANCH  17  18
HETATM   18  C           1       2.060   1.081   3.412  0.00  0.00     0.217 C 
HETATM   19  N           1       3.185   1.268   4.170  0.00  0.00    -0.370 N 
HETATM   20  H           1       3.454   2.202   4.453  0.00  0.00     0.159 HD
HETATM   21  H           1       3.746   0.474   4.447  0.00  0.00     0.159 HD
HETATM   22  O           1       1.739  -0.034   3.074  0.00  0.00    -0.274 OA
ENDBRANCH  17  18
ENDBRANCH  16  17
BRANCH  16  23
HETATM   23  N           1      -0.795   0.844   2.985  0.00  0.00    -0.066 N 
HETATM   24  H           1      -1.608   0.516   2.415  0.00  0.00     0.275 HD
HETATM   25  H           1      -1.144   1.337   3.837  0.00  0.00     0.275 HD
HETATM   26  H           1      -0.214   0.024   3.270  0.00  0.00     0.275 HD
ENDBRANCH  16  23
ENDBRANCH   2  16
TORSDOF 10
