REMARK  7 active torsions:
REMARK  status: ('A' for Active; 'I' for Inactive)
REMARK    1  A    between atoms: C_2  and  C_4 
REMARK    2  A    between atoms: C_4  and  C_11 
REMARK    3  A    between atoms: C_4  and  N_21 
REMARK    4  A    between atoms: N_9  and  C_19 
REMARK       I    between atoms: N_16  and  C_17 
REMARK    5  A    between atoms: C_17  and  C_18 
REMARK    6  A    between atoms: C_18  and  C_19 
REMARK    7  A    between atoms: C_19  and  C_20 
REMARK       I    between atoms: C_20  and  N_21 
ROOT
HETATM    1  C           1       1.478   0.631   1.269  0.00  0.00     0.283 C 
ENDROOT
BRANCH   1   2
HETATM    2  N           1       0.645   1.809   1.676  0.00  0.00    -0.066 N 
HETATM    3  H           1       1.225   2.467   2.245  0.00  0.00     0.275 HD
HETATM    4  H           1       0.297   2.301   0.822  0.00  0.00     0.275 HD
HETATM    5  H           1      -0.168   1.481   2.246  0.00  0.00     0.275 HD
ENDBRANCH   1   2
BRANCH   1   6
HETATM    6  C           1       1.986  -0.085   2.514  0.00  0.00     0.145 C 
BRANCH   6   7
HETATM    7  C           1       0.813  -0.558   3.337  0.00  0.00     0.217 C 
HETATM    8  O           1      -0.315  -0.342   2.961  0.00  0.00    -0.274 OA
HETATM    9  N           1       1.026  -1.232   4.509  0.00  0.00    -0.370 N 
HETATM   10  H           1       1.971  -1.414   4.824  0.00  0.00     0.159 HD
HETATM   11  H           1       0.239  -1.550   5.061  0.00  0.00     0.159 HD
ENDBRANCH   6   7
ENDBRANCH   1   6
BRANCH   1  12
HETATM   12  C           1       0.640  -0.318   0.449  0.00  0.00     0.249 C 
HETATM   13  O           1       0.468  -1.453   0.826  0.00  0.00    -0.271 OA
HETATM   14  N           1       0.073   0.106  -0.723  0.00  0.00    -0.344 N 
HETATM   15  H           1       0.217   1.057  -1.039  0.00  0.00     0.163 HD
BRANCH  14  16
HETATM   16  C           1      -0.733  -0.806  -1.511  0.00  0.00     0.189 C 
BRANCH  16  17
HETATM   17  C           1      -1.240  -0.088  -2.755  0.00  0.00     0.010 C 
HETATM   18  C           1      -2.763  -0.088  -2.755  0.00  0.00     0.012 C 
HETATM   19  C           1      -0.731   1.347  -2.755  0.00  0.00     0.012 C 
ENDBRANCH  16  17
BRANCH  16  20
HETATM   20  C           1       0.105  -1.992  -1.920  0.00  0.00     0.197 C 
HETATM   21  O           1       0.622  -2.723  -1.047  0.00  0.00    -0.646 OA
HETATM   22  O           1       0.283  -2.244  -3.131  0.00  0.00    -0.646 OA
ENDBRANCH  16  20
ENDBRANCH  14  16
ENDBRANCH   1  12
TORSDOF 7
