REMARK  8 active torsions:
REMARK  status: ('A' for Active; 'I' for Inactive)
REMARK    1  A    between atoms: N_2  and  C_13 
REMARK       I    between atoms: N_4  and  C_15 
REMARK    2  A    between atoms: N_11  and  C_24 
REMARK       I    between atoms: N_11  and  C_12 
REMARK    3  A    between atoms: C_12  and  C_13 
REMARK    4  A    between atoms: C_13  and  C_14 
REMARK    5  A    between atoms: C_14  and  C_15 
REMARK    6  A    between atoms: C_20  and  C_24 
REMARK    7  A    between atoms: C_24  and  C_25 
REMARK    8  A    between atoms: C_25  and  C_26 
ROOT
HETATM    1  H           1       2.147   2.499  -0.015  0.00  0.00     0.163 HD
HETATM    2  N           1       1.623   1.662  -0.235  0.00  0.00    -0.344 N 
HETATM    3  C           1       1.483   0.676   0.705  0.00  0.00     0.249 C 
HETATM    4  O           1       2.295  -0.216   0.771  0.00  0.00    -0.271 OA
ENDROOT
BRANCH   2   5
HETATM    5  C           1       1.021   1.507  -1.544  0.00  0.00     0.191 C 
BRANCH   5   6
HETATM    6  C           1       1.322   2.724  -2.383  0.00  0.00     0.197 C 
HETATM    7  O           1       2.508   3.035  -2.631  0.00  0.00    -0.646 OA
HETATM    8  O           1       0.387   3.422  -2.831  0.00  0.00    -0.646 OA
ENDBRANCH   5   6
BRANCH   5   9
HETATM    9  C           1      -0.487   1.353  -1.394  0.00  0.00     0.094 C 
BRANCH   9  10
HETATM   10  C           1      -0.830  -0.097  -1.250  0.00  0.00     0.028 A 
HETATM   11  N           1      -2.101  -0.585  -1.095  0.00  0.00    -0.354 N 
HETATM   12  C           1      -1.964  -1.888  -1.007  0.00  0.00     0.180 A 
ATOM     13  HN          1      -2.969  -0.050  -1.056  1.00  0.00     0.166 HD
HETATM   14  N           1      -0.652  -2.260  -1.098  0.00  0.00    -0.360 N 
HETATM   15  H           1      -0.281  -3.241  -1.055  0.00  0.00     0.166 HD
HETATM   16  C           1       0.088  -1.121  -1.254  0.00  0.00     0.114 A 
ENDBRANCH   9  10
ENDBRANCH   5   9
ENDBRANCH   2   5
BRANCH   3  17
HETATM   17  C           1       0.312   0.702   1.657  0.00  0.00     0.283 C 
BRANCH  17  18
HETATM   18  N           1      -0.968   0.645   0.877  0.00  0.00    -0.066 N 
HETATM   19  H           1      -1.779   0.663   1.536  0.00  0.00     0.275 HD
HETATM   20  H           1      -1.022   1.468   0.236  0.00  0.00     0.275 HD
HETATM   21  H           1      -0.994  -0.237   0.316  0.00  0.00     0.275 HD
ENDBRANCH  17  18
BRANCH  17  22
HETATM   22  C           1       0.391  -0.497   2.592  0.00  0.00     0.145 C 
BRANCH  22  23
HETATM   23  C           1       0.351  -1.770   1.783  0.00  0.00     0.217 C 
HETATM   24  O           1       1.379  -2.267   1.388  0.00  0.00    -0.274 OA
HETATM   25  N           1      -0.850  -2.362   1.496  0.00  0.00    -0.370 N 
HETATM   26  H           1      -0.877  -3.216   0.953  0.00  0.00     0.159 HD
HETATM   27  H           1      -1.711  -1.946   1.827  0.00  0.00     0.159 HD
ENDBRANCH  22  23
ENDBRANCH  17  22
ENDBRANCH   3  17
TORSDOF 8
