REMARK  11 active torsions:
REMARK  status: ('A' for Active; 'I' for Inactive)
REMARK       I    between atoms: C_1  and  N_15 
REMARK    1  A    between atoms: C_1  and  C_13 
REMARK    2  A    between atoms: C_3  and  C_4 
REMARK    3  A    between atoms: C_4  and  C_5 
REMARK    4  A    between atoms: C_5  and  C_7 
REMARK    5  A    between atoms: C_5  and  N_15 
REMARK    6  A    between atoms: C_13  and  C_23 
REMARK    7  A    between atoms: C_13  and  N_30 
REMARK    8  A    between atoms: O_14  and  P_20 
REMARK    9  A    between atoms: C_18  and  O_19 
REMARK   10  A    between atoms: O_19  and  P_20 
REMARK   11  A    between atoms: C_23  and  C_25 
ROOT
HETATM    1  C           1       2.439   1.003  -1.270  0.00  0.00     0.189 C 
ENDROOT
BRANCH   1   2
HETATM    2  C           1       0.990   1.456  -1.393  0.00  0.00     0.074 C 
BRANCH   2   3
HETATM    3  C           1       0.080   0.307  -1.088  0.00  0.00    -0.056 A 
HETATM    4  C           1       0.614  -0.937  -0.756  0.00  0.00     0.010 A 
HETATM    5  C           1      -0.234  -2.007  -0.472  0.00  0.00     0.038 A 
HETATM    6  C           1      -1.617  -1.833  -0.521  0.00  0.00     0.081 A 
HETATM    7  C           1      -2.152  -0.588  -0.853  0.00  0.00     0.038 A 
HETATM    8  C           1      -1.303   0.482  -1.137  0.00  0.00     0.010 A 
BRANCH   6   9
HETATM    9  O           1      -2.441  -2.872  -0.245  0.00  0.00    -0.247 OA
BRANCH   9  10
HETATM   10  P           1      -4.034  -2.617  -0.315  0.00  0.00     0.411 P 
HETATM   11  O           1      -4.409  -1.562   0.653  0.00  0.00    -0.624 OA
HETATM   12  O           1      -4.750  -3.869   0.017  0.00  0.00    -0.624 OA
BRANCH  10  13
HETATM   13  O           1      -4.437  -2.144  -1.806  0.00  0.00    -0.300 OA
HETATM   14  H           1      -5.370  -2.014  -1.777  0.00  0.00     0.223 HD
ENDBRANCH  10  13
ENDBRANCH   9  10
ENDBRANCH   6   9
ENDBRANCH   2   3
ENDBRANCH   1   2
BRANCH   1  15
HETATM   15  C           1       3.299   1.802  -2.218  0.00  0.00     0.197 C 
HETATM   16  O           1       2.781   2.678  -2.944  0.00  0.00    -0.646 OA
HETATM   17  O           1       4.529   1.588  -2.277  0.00  0.00    -0.646 OA
ENDBRANCH   1  15
BRANCH   1  18
HETATM   18  N           1       2.896   1.212   0.090  0.00  0.00    -0.344 N 
HETATM   19  C           1       2.264   0.584   1.129  0.00  0.00     0.249 C 
HETATM   20  O           1       2.636  -0.505   1.493  0.00  0.00    -0.271 OA
HETATM   21  H           1       3.683   1.822   0.271  0.00  0.00     0.163 HD
BRANCH  19  22
HETATM   22  C           1       1.101   1.254   1.819  0.00  0.00     0.284 C 
BRANCH  22  23
HETATM   23  C           1       0.581   0.352   2.931  0.00  0.00     0.155 C 
BRANCH  23  24
HETATM   24  C           1       0.128  -0.962   2.343  0.00  0.00     0.175 C 
HETATM   25  O           1      -1.055  -1.102   1.963  0.00  0.00    -0.648 OA
HETATM   26  O           1       0.935  -1.911   2.236  0.00  0.00    -0.648 OA
ENDBRANCH  23  24
ENDBRANCH  22  23
BRANCH  22  27
HETATM   27  N           1       0.005   1.502   0.825  0.00  0.00    -0.066 N 
HETATM   28  H           1      -0.801   1.965   1.302  0.00  0.00     0.275 HD
HETATM   29  H           1       0.361   2.121   0.063  0.00  0.00     0.275 HD
HETATM   30  H           1      -0.308   0.592   0.418  0.00  0.00     0.275 HD
ENDBRANCH  22  27
ENDBRANCH  19  22
ENDBRANCH   1  18
TORSDOF 11
