REMARK  5 active torsions:
REMARK  status: ('A' for Active; 'I' for Inactive)
REMARK    1  A    between atoms: C_5  and  C_19 
REMARK    2  A    between atoms: N_8  and  C_18 
REMARK    3  A    between atoms: C_13  and  C_15 
REMARK       I    between atoms: N_16  and  C_17 
REMARK    4  A    between atoms: C_17  and  C_18 
REMARK    5  A    between atoms: C_18  and  C_19 
ROOT
HETATM    1  C           1      -2.647  -1.039  -0.355  0.00  0.00     0.038 C 
HETATM    2  O           1      -0.031   1.871   0.854  0.00  0.00    -0.271 OA
HETATM    3  C           1      -0.335  -1.632   0.023  0.00  0.00     0.127 C 
HETATM    4  C           1      -1.547  -1.986  -0.821  0.00  0.00     0.022 C 
HETATM    5  C           1      -2.008  -0.198   0.737  0.00  0.00     0.188 C 
HETATM    6  N           1      -0.582  -0.250   0.427  0.00  0.00    -0.336 N 
HETATM    7  C           1       0.325   0.772   0.499  0.00  0.00     0.251 C 
ENDROOT
BRANCH   7   8
HETATM    8  C           1       1.769   0.527   0.136  0.00  0.00     0.284 C 
BRANCH   8   9
HETATM    9  N           1       1.854   0.068  -1.289  0.00  0.00    -0.066 N 
HETATM   10  H           1       2.854  -0.102  -1.541  0.00  0.00     0.275 HD
HETATM   11  H           1       1.312  -0.818  -1.402  0.00  0.00     0.275 HD
HETATM   12  H           1       1.457   0.803  -1.916  0.00  0.00     0.275 HD
ENDBRANCH   8   9
BRANCH   8  13
HETATM   13  C           1       2.560   1.818   0.301  0.00  0.00     0.155 C 
BRANCH  13  14
HETATM   14  C           1       1.988   2.880  -0.606  0.00  0.00     0.175 C 
HETATM   15  O           1       2.493   4.023  -0.627  0.00  0.00    -0.648 OA
HETATM   16  O           1       1.008   2.616  -1.336  0.00  0.00    -0.648 OA
ENDBRANCH  13  14
ENDBRANCH   8  13
ENDBRANCH   7   8
BRANCH   5  17
HETATM   17  C           1      -2.284  -0.786   2.099  0.00  0.00     0.196 C 
HETATM   18  O           1      -3.454  -0.828   2.537  0.00  0.00    -0.646 OA
HETATM   19  O           1      -1.342  -1.232   2.789  0.00  0.00    -0.646 OA
ENDBRANCH   5  17
TORSDOF 5
