REMARK  9 active torsions:
REMARK  status: ('A' for Active; 'I' for Inactive)
REMARK    1  A    between atoms: N_7  and  C_27 
REMARK       I    between atoms: N_9  and  C_11 
REMARK    2  A    between atoms: C_11  and  C_28 
REMARK    3  A    between atoms: O_12  and  C_19 
REMARK    4  A    between atoms: C_16  and  C_20 
REMARK    5  A    between atoms: C_20  and  C_21 
REMARK    6  A    between atoms: C_21  and  C_22 
REMARK    7  A    between atoms: C_21  and  N_25 
REMARK       I    between atoms: N_25  and  C_26 
REMARK    8  A    between atoms: C_26  and  C_27 
REMARK    9  A    between atoms: C_27  and  C_28 
ROOT
HETATM    1  H           1       0.309  -1.065   1.268  0.00  0.00     0.163 HD
HETATM    2  O           1      -2.342  -0.603  -0.345  0.00  0.00    -0.271 OA
HETATM    3  N           1      -0.316  -1.066   0.471  0.00  0.00    -0.344 N 
HETATM    4  C           1      -1.597  -0.601   0.605  0.00  0.00     0.249 C 
ENDROOT
BRANCH   3   5
HETATM    5  C           1       0.145  -1.561  -0.811  0.00  0.00     0.189 C 
BRANCH   5   6
HETATM    6  C           1       1.594  -2.014  -0.688  0.00  0.00     0.074 C 
BRANCH   6   7
HETATM    7  C           1       2.505  -0.866  -0.993  0.00  0.00    -0.056 A 
HETATM    8  C           1       1.970   0.379  -1.325  0.00  0.00     0.010 A 
HETATM    9  C           1       2.818   1.449  -1.609  0.00  0.00     0.037 A 
HETATM   10  C           1       4.201   1.275  -1.560  0.00  0.00     0.065 A 
HETATM   11  C           1       4.736   0.030  -1.228  0.00  0.00     0.037 A 
HETATM   12  C           1       3.888  -1.040  -0.944  0.00  0.00     0.010 A 
BRANCH  10  13
HETATM   13  O           1       5.025   2.314  -1.836  0.00  0.00    -0.361 OA
HETATM   14  H           1       4.474   3.088  -2.043  0.00  0.00     0.217 HD
ENDBRANCH  10  13
ENDBRANCH   6   7
ENDBRANCH   5   6
BRANCH   5  15
HETATM   15  C           1      -0.713  -2.727  -1.238  0.00  0.00     0.197 C 
HETATM   16  O           1      -1.942  -2.572  -1.399  0.00  0.00    -0.646 OA
HETATM   17  O           1      -0.193  -3.848  -1.430  0.00  0.00    -0.646 OA
ENDBRANCH   5  15
ENDBRANCH   3   5
BRANCH   4  18
HETATM   18  C           1      -2.077  -0.086   1.940  0.00  0.00     0.283 C 
BRANCH  18  19
HETATM   19  N           1      -1.225   1.073   2.364  0.00  0.00    -0.066 N 
HETATM   20  H           1      -0.231   0.761   2.448  0.00  0.00     0.275 HD
HETATM   21  H           1      -1.293   1.834   1.651  0.00  0.00     0.275 HD
HETATM   22  H           1      -1.556   1.430   3.288  0.00  0.00     0.275 HD
ENDBRANCH  18  19
BRANCH  18  23
HETATM   23  C           1      -3.526   0.367   1.818  0.00  0.00     0.145 C 
BRANCH  23  24
HETATM   24  C           1      -3.624   1.468   0.790  0.00  0.00     0.217 C 
HETATM   25  O           1      -2.633   1.847   0.215  0.00  0.00    -0.274 OA
HETATM   26  N           1      -4.838   2.035   0.510  0.00  0.00    -0.370 N 
HETATM   27  H           1      -4.905   2.773  -0.180  0.00  0.00     0.159 HD
HETATM   28  H           1      -5.669   1.717   0.992  0.00  0.00     0.159 HD
ENDBRANCH  23  24
ENDBRANCH  18  23
ENDBRANCH   4  18
TORSDOF 9
