REMARK  11 active torsions:
REMARK  status: ('A' for Active; 'I' for Inactive)
REMARK    1  A    between atoms: N_5  and  C_23 
REMARK       I    between atoms: C_6  and  N_7 
REMARK    2  A    between atoms: C_6  and  C_23 
REMARK    3  A    between atoms: N_7  and  C_14 
REMARK    4  A    between atoms: C_12  and  C_17 
REMARK    5  A    between atoms: C_12  and  C_13 
REMARK    6  A    between atoms: C_13  and  C_14 
REMARK    7  A    between atoms: C_14  and  C_15 
REMARK    8  A    between atoms: C_17  and  C_18 
REMARK    9  A    between atoms: C_18  and  N_20 
REMARK   10  A    between atoms: C_21  and  C_22 
REMARK   11  A    between atoms: C_22  and  C_23 
ROOT
HETATM    1  O           1      -0.741   2.590   0.205  0.00  0.00    -0.271 OA
HETATM    2  C           1      -1.345   1.544   0.205  0.00  0.00     0.249 C 
HETATM    3  N           1      -0.660   0.358   0.205  0.00  0.00    -0.345 N 
HETATM    4  H           1      -1.166  -0.518   0.206  0.00  0.00     0.163 HD
ENDROOT
BRANCH   3   5
HETATM    5  C           1       0.790   0.358   0.205  0.00  0.00     0.185 C 
BRANCH   5   6
HETATM    6  C           1       1.297  -1.078   0.206  0.00  0.00     0.036 C 
BRANCH   6   7
HETATM    7  C           1       2.820  -1.080   0.205  0.00  0.00     0.004 C 
BRANCH   7   8
HETATM    8  C           1       3.327  -1.798  -1.038  0.00  0.00     0.027 C 
BRANCH   8   9
HETATM    9  C           1       2.818  -3.234  -1.038  0.00  0.00     0.229 C 
BRANCH   9  10
HETATM   10  N           1       1.318  -3.234  -1.038  0.00  0.00    -0.079 N 
HETATM   11  H           1       0.970  -2.741  -1.892  0.00  0.00     0.274 HD
HETATM   12  H           1       0.971  -2.742  -0.185  0.00  0.00     0.274 HD
HETATM   13  H           1       0.970  -4.219  -1.038  0.00  0.00     0.274 HD
ENDBRANCH   9  10
ENDBRANCH   8   9
ENDBRANCH   7   8
ENDBRANCH   6   7
ENDBRANCH   5   6
BRANCH   5  14
HETATM   14  C           1       1.292   1.069  -1.027  0.00  0.00     0.196 C 
HETATM   15  O           1       2.010   0.462  -1.850  0.00  0.00    -0.646 OA
HETATM   16  O           1       0.990   2.266  -1.225  0.00  0.00    -0.646 OA
ENDBRANCH   5  14
ENDBRANCH   3   5
BRANCH   2  17
HETATM   17  C           1      -2.854   1.544   0.205  0.00  0.00     0.284 C 
BRANCH  17  18
HETATM   18  N           1      -3.353   0.837   1.431  0.00  0.00    -0.066 N 
HETATM   19  H           1      -3.004   1.331   2.283  0.00  0.00     0.275 HD
HETATM   20  H           1      -3.005  -0.148   1.431  0.00  0.00     0.275 HD
HETATM   21  H           1      -4.398   0.837   1.432  0.00  0.00     0.275 HD
ENDBRANCH  17  18
BRANCH  17  22
HETATM   22  C           1      -3.362   2.979   0.205  0.00  0.00     0.155 C 
BRANCH  22  23
HETATM   23  C           1      -2.860   3.692   1.437  0.00  0.00     0.175 C 
HETATM   24  O           1      -3.163   4.888   1.634  0.00  0.00    -0.648 OA
HETATM   25  O           1      -2.141   3.085   2.260  0.00  0.00    -0.648 OA
ENDBRANCH  22  23
ENDBRANCH  17  22
ENDBRANCH   2  17
TORSDOF 11
