REMARK  10 active torsions:
REMARK  status: ('A' for Active; 'I' for Inactive)
REMARK    1  A    between atoms: N_7  and  C_21 
REMARK       I    between atoms: N_7  and  C_8 
REMARK    2  A    between atoms: C_8  and  C_9 
REMARK    3  A    between atoms: C_9  and  C_10 
REMARK    4  A    between atoms: C_9  and  N_14 
REMARK    5  A    between atoms: C_10  and  C_11 
REMARK       I    between atoms: C_11  and  N_12 
REMARK    6  A    between atoms: C_19  and  C_21 
REMARK    7  A    between atoms: C_21  and  C_22 
REMARK    8  A    between atoms: C_22  and  O_23 
REMARK    9  A    between atoms: O_23  and  P_24 
REMARK   10  A    between atoms: P_24  and  O_26 
ROOT
HETATM    1  N           1       0.360  -1.590   0.540  0.00  0.00    -0.343 N 
HETATM    2  C           1       1.142  -0.488   0.323  0.00  0.00     0.249 C 
HETATM    3  O           1       1.138   0.422   1.118  0.00  0.00    -0.271 OA
HETATM    4  H           1       0.364  -2.352  -0.126  0.00  0.00     0.163 HD
ENDROOT
BRANCH   1   5
HETATM    5  C           1      -0.472  -1.667   1.724  0.00  0.00     0.210 C 
BRANCH   5   6
HETATM    6  C           1      -1.227  -2.974   1.724  0.00  0.00     0.198 C 
HETATM    7  O           1      -2.477  -2.974   1.724  0.00  0.00    -0.646 OA
HETATM    8  O           1      -0.602  -4.056   1.724  0.00  0.00    -0.646 OA
ENDBRANCH   5   6
BRANCH   5   9
HETATM    9  C           1      -1.461  -0.509   1.724  0.00  0.00     0.217 C 
BRANCH   9  10
HETATM   10  O           1      -2.268  -0.582   0.580  0.00  0.00    -0.287 OA
BRANCH  10  11
HETATM   11  P           1      -3.380   0.579   0.422  0.00  0.00     0.406 P 
HETATM   12  O           1      -4.303   0.539   1.578  0.00  0.00    -0.624 OA
HETATM   13  O           1      -2.712   1.898   0.369  0.00  0.00    -0.624 OA
BRANCH  11  14
HETATM   14  O           1      -4.212   0.343  -0.942  0.00  0.00    -0.300 OA
HETATM   15  H           1      -4.837   1.048  -0.971  0.00  0.00     0.223 HD
ENDBRANCH  11  14
ENDBRANCH  10  11
ENDBRANCH   9  10
ENDBRANCH   5   9
ENDBRANCH   1   5
BRANCH   2  16
HETATM   16  C           1       2.008  -0.408  -0.910  0.00  0.00     0.283 C 
BRANCH  16  17
HETATM   17  C           1       2.771   0.911  -0.912  0.00  0.00     0.145 C 
BRANCH  17  18
HETATM   18  C           1       1.791   2.059  -0.911  0.00  0.00     0.217 C 
HETATM   19  N           1       2.249   3.349  -0.912  0.00  0.00    -0.370 N 
HETATM   20  H           1       1.592   4.119  -0.912  0.00  0.00     0.159 HD
HETATM   21  H           1       3.244   3.533  -0.913  0.00  0.00     0.159 HD
HETATM   22  O           1       0.603   1.839  -0.910  0.00  0.00    -0.274 OA
ENDBRANCH  17  18
ENDBRANCH  16  17
BRANCH  16  23
HETATM   23  N           1       1.144  -0.486  -2.134  0.00  0.00    -0.066 N 
HETATM   24  H           1       1.744  -0.431  -2.988  0.00  0.00     0.275 HD
HETATM   25  H           1       0.622  -1.391  -2.133  0.00  0.00     0.275 HD
HETATM   26  H           1       0.466   0.308  -2.133  0.00  0.00     0.275 HD
ENDBRANCH  16  23
ENDBRANCH   2  16
TORSDOF 10
