REMARK  8 active torsions:
REMARK  status: ('A' for Active; 'I' for Inactive)
REMARK    1  A    between atoms: N_2  and  C_18 
REMARK       I    between atoms: N_2  and  C_3 
REMARK    2  A    between atoms: C_3  and  C_4 
REMARK    3  A    between atoms: C_4  and  C_5 
REMARK    4  A    between atoms: C_4  and  N_14 
REMARK    5  A    between atoms: C_5  and  C_9 
REMARK    6  A    between atoms: C_17  and  C_18 
REMARK    7  A    between atoms: C_18  and  C_20 
REMARK    8  A    between atoms: O_19  and  C_20 
ROOT
HETATM    1  N           1       0.084   0.140  -0.568  0.00  0.00    -0.343 N 
HETATM    2  C           1       0.650  -0.284   0.604  0.00  0.00     0.249 C 
HETATM    3  H           1       0.228   1.091  -0.884  0.00  0.00     0.163 HD
HETATM    4  O           1       0.479  -1.419   0.981  0.00  0.00    -0.271 OA
ENDROOT
BRANCH   2   5
HETATM    5  C           1       1.489   0.665   1.424  0.00  0.00     0.284 C 
BRANCH   5   6
HETATM    6  C           1       1.997  -0.051   2.669  0.00  0.00     0.155 C 
BRANCH   6   7
HETATM    7  C           1       0.824  -0.524   3.492  0.00  0.00     0.175 C 
HETATM    8  O           1       1.019  -1.140   4.562  0.00  0.00    -0.648 OA
HETATM    9  O           1      -0.343  -0.300   3.103  0.00  0.00    -0.648 OA
ENDBRANCH   6   7
ENDBRANCH   5   6
BRANCH   5  10
HETATM   10  N           1       0.656   1.843   1.831  0.00  0.00    -0.066 N 
HETATM   11  H           1       1.236   2.501   2.399  0.00  0.00     0.275 HD
HETATM   12  H           1       0.308   2.335   0.977  0.00  0.00     0.275 HD
HETATM   13  H           1      -0.157   1.515   2.401  0.00  0.00     0.275 HD
ENDBRANCH   5  10
ENDBRANCH   2   5
BRANCH   1  14
HETATM   14  C           1      -0.722  -0.772  -1.356  0.00  0.00     0.214 C 
BRANCH  14  15
HETATM   15  C           1       0.116  -1.958  -1.765  0.00  0.00     0.199 C 
HETATM   16  O           1       0.294  -2.210  -2.976  0.00  0.00    -0.646 OA
HETATM   17  O           1       0.633  -2.689  -0.892  0.00  0.00    -0.646 OA
ENDBRANCH  14  15
BRANCH  14  18
HETATM   18  C           1      -1.229  -0.054  -2.600  0.00  0.00     0.147 C 
HETATM   19  C           1      -2.752  -0.054  -2.600  0.00  0.00     0.042 C 
BRANCH  18  20
HETATM   20  O           1      -0.761   1.267  -2.600  0.00  0.00    -0.393 OA
HETATM   21  H           1       0.180   1.225  -2.600  0.00  0.00     0.210 HD
ENDBRANCH  18  20
ENDBRANCH  14  18
ENDBRANCH   1  14
TORSDOF 8
