REMARK  5 active torsions:
REMARK  status: ('A' for Active; 'I' for Inactive)
REMARK    1  A    between atoms: C_2  and  C_17 
REMARK       I    between atoms: N_3  and  C_4 
REMARK    2  A    between atoms: C_4  and  C_11 
REMARK       I    between atoms: N_8  and  C_9 
REMARK    3  A    between atoms: C_9  and  C_10 
REMARK    4  A    between atoms: C_10  and  C_11 
REMARK    5  A    between atoms: C_11  and  N_12 
ROOT
HETATM    1  C           1       1.589   0.227   0.177  0.00  0.00     0.283 C 
ENDROOT
BRANCH   1   2
HETATM    2  C           1       0.145   0.472   0.540  0.00  0.00     0.251 C 
HETATM    3  N           1      -0.762  -0.551   0.467  0.00  0.00    -0.336 N 
HETATM    4  C           1      -2.188  -0.498   0.777  0.00  0.00     0.188 C 
HETATM    5  C           1      -0.514  -1.932   0.063  0.00  0.00     0.127 C 
HETATM    6  C           1      -2.827  -1.340  -0.314  0.00  0.00     0.038 C 
HETATM    7  C           1      -1.727  -2.286  -0.781  0.00  0.00     0.022 C 
HETATM    8  O           1      -0.211   1.571   0.894  0.00  0.00    -0.271 OA
BRANCH   4   9
HETATM    9  C           1      -2.463  -1.087   2.139  0.00  0.00     0.196 C 
HETATM   10  O           1      -3.633  -1.128   2.577  0.00  0.00    -0.646 OA
HETATM   11  O           1      -1.521  -1.533   2.830  0.00  0.00    -0.646 OA
ENDBRANCH   4   9
ENDBRANCH   1   2
BRANCH   1  12
HETATM   12  C           1       2.381   1.518   0.341  0.00  0.00     0.145 C 
BRANCH  12  13
HETATM   13  C           1       1.808   2.579  -0.565  0.00  0.00     0.217 C 
HETATM   14  O           1       0.861   2.324  -1.271  0.00  0.00    -0.274 OA
HETATM   15  N           1       2.361   3.831  -0.588  0.00  0.00    -0.370 N 
HETATM   16  H           1       1.977   4.543  -1.196  0.00  0.00     0.159 HD
HETATM   17  H           1       3.154   4.045   0.003  0.00  0.00     0.159 HD
ENDBRANCH  12  13
ENDBRANCH   1  12
BRANCH   1  18
HETATM   18  N           1       1.674  -0.232  -1.249  0.00  0.00    -0.066 N 
HETATM   19  H           1       2.674  -0.402  -1.501  0.00  0.00     0.275 HD
HETATM   20  H           1       1.132  -1.118  -1.362  0.00  0.00     0.275 HD
HETATM   21  H           1       1.277   0.503  -1.876  0.00  0.00     0.275 HD
ENDBRANCH   1  18
TORSDOF 5
