REMARK  11 active torsions:
REMARK  status: ('A' for Active; 'I' for Inactive)
REMARK    1  A    between atoms: N_3  and  C_21 
REMARK    2  A    between atoms: C_11  and  C_27 
REMARK    3  A    between atoms: C_11  and  C_12 
REMARK    4  A    between atoms: C_12  and  C_13 
REMARK    5  A    between atoms: C_13  and  C_14 
REMARK    6  A    between atoms: C_14  and  C_15 
REMARK    7  A    between atoms: C_14  and  N_23 
REMARK       I    between atoms: N_18  and  C_19 
REMARK    8  A    between atoms: C_19  and  C_20 
REMARK    9  A    between atoms: C_20  and  C_21 
REMARK   10  A    between atoms: C_21  and  C_22 
REMARK       I    between atoms: C_22  and  N_23 
REMARK   11  A    between atoms: N_25  and  C_27 
ROOT
HETATM    1  O           1      -0.569   2.305   0.116  0.00  0.00    -0.271 OA
HETATM    2  H           1      -0.995  -0.803   0.117  0.00  0.00     0.163 HD
HETATM    3  C           1      -1.173   1.259   0.117  0.00  0.00     0.249 C 
HETATM    4  N           1      -0.489   0.073   0.117  0.00  0.00    -0.345 N 
ENDROOT
BRANCH   4   5
HETATM    5  C           1       0.961   0.073   0.117  0.00  0.00     0.185 C 
BRANCH   5   6
HETATM    6  C           1       1.468  -1.363   0.117  0.00  0.00     0.036 C 
BRANCH   6   7
HETATM    7  C           1       2.991  -1.364   0.116  0.00  0.00     0.004 C 
BRANCH   7   8
HETATM    8  C           1       3.498  -2.083  -1.127  0.00  0.00     0.027 C 
BRANCH   8   9
HETATM    9  C           1       2.990  -3.519  -1.127  0.00  0.00     0.229 C 
BRANCH   9  10
HETATM   10  N           1       1.490  -3.519  -1.127  0.00  0.00    -0.079 N 
HETATM   11  H           1       1.141  -3.026  -1.980  0.00  0.00     0.274 HD
HETATM   12  H           1       1.142  -3.027  -0.273  0.00  0.00     0.274 HD
HETATM   13  H           1       1.141  -4.504  -1.127  0.00  0.00     0.274 HD
ENDBRANCH   9  10
ENDBRANCH   8   9
ENDBRANCH   7   8
ENDBRANCH   6   7
ENDBRANCH   5   6
BRANCH   5  14
HETATM   14  C           1       1.463   0.784  -1.116  0.00  0.00     0.196 C 
HETATM   15  O           1       1.162   1.981  -1.313  0.00  0.00    -0.646 OA
HETATM   16  O           1       2.181   0.177  -1.939  0.00  0.00    -0.646 OA
ENDBRANCH   5  14
ENDBRANCH   4   5
BRANCH   3  17
HETATM   17  C           1      -2.682   1.259   0.117  0.00  0.00     0.283 C 
BRANCH  17  18
HETATM   18  N           1      -3.182   0.553   1.342  0.00  0.00    -0.066 N 
HETATM   19  H           1      -4.227   0.552   1.343  0.00  0.00     0.275 HD
HETATM   20  H           1      -2.833  -0.433   1.342  0.00  0.00     0.275 HD
HETATM   21  H           1      -2.833   1.046   2.195  0.00  0.00     0.275 HD
ENDBRANCH  17  18
BRANCH  17  22
HETATM   22  C           1      -3.191   2.694   0.116  0.00  0.00     0.145 C 
BRANCH  22  23
HETATM   23  C           1      -2.689   3.407   1.348  0.00  0.00     0.217 C 
HETATM   24  O           1      -1.994   2.821   2.144  0.00  0.00    -0.274 OA
HETATM   25  N           1      -3.020   4.717   1.564  0.00  0.00    -0.370 N 
HETATM   26  H           1      -3.602   5.208   0.897  0.00  0.00     0.159 HD
HETATM   27  H           1      -2.683   5.195   2.390  0.00  0.00     0.159 HD
ENDBRANCH  22  23
ENDBRANCH  17  22
ENDBRANCH   3  17
TORSDOF 11
