REMARK  8 active torsions:
REMARK  status: ('A' for Active; 'I' for Inactive)
REMARK    1  A    between atoms: N_1  and  C_11 
REMARK       I    between atoms: N_1  and  C_2 
REMARK    2  A    between atoms: C_2  and  C_3 
REMARK    3  A    between atoms: C_3  and  C_4 
REMARK    4  A    between atoms: C_3  and  N_8 
REMARK    5  A    between atoms: C_4  and  C_5 
REMARK       I    between atoms: C_5  and  N_6 
REMARK    6  A    between atoms: C_9  and  O_10 
REMARK    7  A    between atoms: C_9  and  C_11 
REMARK    8  A    between atoms: C_11  and  C_12 
ROOT
HETATM    1  N           1       0.010   0.236  -0.900  0.00  0.00    -0.343 N 
HETATM    2  C           1       0.577  -0.189   0.271  0.00  0.00     0.249 C 
HETATM    3  O           1       0.405  -1.324   0.649  0.00  0.00    -0.271 OA
HETATM    4  H           1       0.154   1.186  -1.216  0.00  0.00     0.163 HD
ENDROOT
BRANCH   2   5
HETATM    5  C           1       1.415   0.760   1.092  0.00  0.00     0.283 C 
BRANCH   5   6
HETATM    6  C           1       1.923   0.044   2.336  0.00  0.00     0.145 C 
BRANCH   6   7
HETATM    7  C           1       0.750  -0.429   3.159  0.00  0.00     0.217 C 
HETATM    8  N           1       0.963  -1.103   4.331  0.00  0.00    -0.370 N 
HETATM    9  H           1       0.177  -1.420   4.883  0.00  0.00     0.159 HD
HETATM   10  H           1       1.908  -1.284   4.646  0.00  0.00     0.159 HD
HETATM   11  O           1      -0.378  -0.212   2.783  0.00  0.00    -0.274 OA
ENDBRANCH   6   7
ENDBRANCH   5   6
BRANCH   5  12
HETATM   12  N           1       0.582   1.939   1.499  0.00  0.00    -0.066 N 
HETATM   13  H           1       1.162   2.597   2.067  0.00  0.00     0.275 HD
HETATM   14  H           1       0.234   2.431   0.645  0.00  0.00     0.275 HD
HETATM   15  H           1      -0.231   1.611   2.068  0.00  0.00     0.275 HD
ENDBRANCH   5  12
ENDBRANCH   2   5
BRANCH   1  16
HETATM   16  C           1      -0.796  -0.676  -1.688  0.00  0.00     0.214 C 
BRANCH  16  17
HETATM   17  C           1      -1.303   0.041  -2.933  0.00  0.00     0.147 C 
HETATM   18  C           1      -2.826   0.041  -2.933  0.00  0.00     0.042 C 
BRANCH  17  19
HETATM   19  O           1      -0.835   1.363  -2.933  0.00  0.00    -0.393 OA
HETATM   20  H           1       0.106   1.320  -2.933  0.00  0.00     0.210 HD
ENDBRANCH  17  19
ENDBRANCH  16  17
BRANCH  16  21
HETATM   21  C           1       0.043  -1.862  -2.097  0.00  0.00     0.199 C 
HETATM   22  O           1       0.559  -2.593  -1.225  0.00  0.00    -0.646 OA
HETATM   23  O           1       0.220  -2.114  -3.309  0.00  0.00    -0.646 OA
ENDBRANCH  16  21
ENDBRANCH   1  16
TORSDOF 8
