REMARK  8 active torsions:
REMARK  status: ('A' for Active; 'I' for Inactive)
REMARK    1  A    between atoms: C_4  and  C_16 
REMARK    2  A    between atoms: N_6  and  C_16 
REMARK       I    between atoms: N_6  and  C_13 
REMARK    3  A    between atoms: C_10  and  C_11 
REMARK    4  A    between atoms: C_11  and  C_12 
REMARK    5  A    between atoms: C_12  and  C_13 
REMARK    6  A    between atoms: C_12  and  N_25 
REMARK    7  A    between atoms: C_16  and  C_17 
REMARK    8  A    between atoms: C_17  and  C_18 
ROOT
HETATM    1  N           1       1.538   1.499  -0.148  0.00  0.00    -0.344 N 
HETATM    2  H           1       2.062   2.337   0.072  0.00  0.00     0.163 HD
HETATM    3  C           1       1.397   0.513   0.791  0.00  0.00     0.249 C 
HETATM    4  O           1       2.210  -0.378   0.858  0.00  0.00    -0.271 OA
ENDROOT
BRANCH   1   5
HETATM    5  C           1       0.936   1.344  -1.458  0.00  0.00     0.191 C 
BRANCH   5   6
HETATM    6  C           1       1.237   2.562  -2.297  0.00  0.00     0.197 C 
HETATM    7  O           1       2.422   2.873  -2.544  0.00  0.00    -0.646 OA
HETATM    8  O           1       0.301   3.260  -2.744  0.00  0.00    -0.646 OA
ENDBRANCH   5   6
BRANCH   5   9
HETATM    9  C           1      -0.572   1.191  -1.308  0.00  0.00     0.094 C 
BRANCH   9  10
HETATM   10  C           1      -0.915  -0.259  -1.163  0.00  0.00     0.028 A 
HETATM   11  C           1       0.002  -1.283  -1.168  0.00  0.00     0.114 A 
HETATM   12  N           1      -0.738  -2.422  -1.011  0.00  0.00    -0.360 N 
HETATM   13  H           1      -0.366  -3.404  -0.969  0.00  0.00     0.166 HD
HETATM   14  C           1      -2.049  -2.051  -0.920  0.00  0.00     0.180 A 
HETATM   15  N           1      -2.186  -0.748  -1.009  0.00  0.00    -0.354 N 
ATOM     16  HN          1      -3.054  -0.213  -0.971  1.00  0.00     0.166 HD
ENDBRANCH   9  10
ENDBRANCH   5   9
ENDBRANCH   1   5
BRANCH   3  17
HETATM   17  C           1       0.227   0.540   1.744  0.00  0.00     0.284 C 
BRANCH  17  18
HETATM   18  C           1       0.305  -0.660   2.679  0.00  0.00     0.155 C 
BRANCH  18  19
HETATM   19  C           1       0.266  -1.933   1.869  0.00  0.00     0.175 C 
HETATM   20  O           1      -0.831  -2.473   1.608  0.00  0.00    -0.648 OA
HETATM   21  O           1       1.329  -2.447   1.460  0.00  0.00    -0.648 OA
ENDBRANCH  18  19
ENDBRANCH  17  18
BRANCH  17  22
HETATM   22  N           1      -1.053   0.482   0.964  0.00  0.00    -0.066 N 
HETATM   23  H           1      -1.864   0.501   1.622  0.00  0.00     0.275 HD
HETATM   24  H           1      -1.107   1.306   0.322  0.00  0.00     0.275 HD
HETATM   25  H           1      -1.080  -0.399   0.403  0.00  0.00     0.275 HD
ENDBRANCH  17  22
ENDBRANCH   3  17
TORSDOF 8
