REMARK  10 active torsions:
REMARK  status: ('A' for Active; 'I' for Inactive)
REMARK       I    between atoms: N_3  and  C_24 
REMARK       I    between atoms: N_4  and  C_24 
REMARK    1  A    between atoms: N_4  and  C_18 
REMARK    2  A    between atoms: N_7  and  C_16 
REMARK       I    between atoms: N_7  and  C_9 
REMARK    3  A    between atoms: C_9  and  C_10 
REMARK    4  A    between atoms: C_10  and  C_11 
REMARK    5  A    between atoms: C_10  and  N_15 
REMARK    6  A    between atoms: C_11  and  C_12 
REMARK       I    between atoms: C_12  and  N_13 
REMARK    7  A    between atoms: C_16  and  C_22 
REMARK    8  A    between atoms: C_16  and  C_25 
REMARK    9  A    between atoms: C_17  and  C_18 
REMARK   10  A    between atoms: C_17  and  C_22 
ROOT
HETATM    1  C           1       1.767   0.472   0.343  0.00  0.00     0.185 C 
ENDROOT
BRANCH   1   2
HETATM    2  N           1       1.128   0.193  -0.928  0.00  0.00    -0.345 N 
HETATM    3  C           1       0.313   1.130  -1.504  0.00  0.00     0.249 C 
HETATM    4  O           1       0.126   2.189  -0.954  0.00  0.00    -0.271 OA
HETATM    5  H           1       1.284  -0.694  -1.389  0.00  0.00     0.163 HD
BRANCH   3   6
HETATM    6  C           1      -0.352   0.840  -2.827  0.00  0.00     0.283 C 
BRANCH   6   7
HETATM    7  C           1      -1.198   2.036  -3.244  0.00  0.00     0.145 C 
BRANCH   7   8
HETATM    8  C           1      -2.254   2.295  -2.198  0.00  0.00     0.217 C 
HETATM    9  N           1      -3.138   3.329  -2.359  0.00  0.00    -0.370 N 
HETATM   10  H           1      -3.846   3.503  -1.657  0.00  0.00     0.159 HD
HETATM   11  H           1      -3.083   3.918  -3.179  0.00  0.00     0.159 HD
HETATM   12  O           1      -2.319   1.592  -1.218  0.00  0.00    -0.274 OA
ENDBRANCH   7   8
ENDBRANCH   6   7
BRANCH   6  13
HETATM   13  N           1      -1.230  -0.369  -2.691  0.00  0.00    -0.066 N 
HETATM   14  H           1      -1.691  -0.571  -3.607  0.00  0.00     0.275 HD
HETATM   15  H           1      -0.650  -1.190  -2.405  0.00  0.00     0.275 HD
HETATM   16  H           1      -1.960  -0.189  -1.965  0.00  0.00     0.275 HD
ENDBRANCH   6  13
ENDBRANCH   3   6
ENDBRANCH   1   2
BRANCH   1  17
HETATM   17  C           1       2.612  -0.725   0.759  0.00  0.00     0.038 C 
BRANCH  17  18
HETATM   18  C           1       1.766  -1.682   1.588  0.00  0.00     0.023 C 
BRANCH  18  19
HETATM   19  C           1       1.257  -0.964   2.832  0.00  0.00     0.138 C 
BRANCH  19  20
HETATM   20  N           1      -0.213  -0.964   2.832  0.00  0.00    -0.227 N 
HETATM   21  C           1      -0.846  -2.060   2.832  0.00  0.00     0.665 C 
HETATM   22  N           1      -0.213  -3.157   2.832  0.00  0.00    -0.235 N 
HETATM   23  N           1      -2.146  -2.060   2.832  0.00  0.00    -0.235 N 
HETATM   24  H           1       0.837  -3.157   2.832  0.00  0.00     0.174 HD
HETATM   25  H           1      -0.738  -4.066   2.832  0.00  0.00     0.174 HD
HETATM   26  H           1      -2.668  -2.965   2.832  0.00  0.00     0.174 HD
HETATM   27  H           1      -2.668  -1.155   2.832  0.00  0.00     0.174 HD
HETATM   28  H           1      -0.738  -0.055   2.832  0.00  0.00     0.177 HD
ENDBRANCH  19  20
ENDBRANCH  18  19
ENDBRANCH  17  18
ENDBRANCH   1  17
BRANCH   1  29
HETATM   29  C           1       2.649   1.688   0.206  0.00  0.00     0.196 C 
HETATM   30  O           1       2.153   2.786  -0.129  0.00  0.00    -0.646 OA
HETATM   31  O           1       3.876   1.599   0.428  0.00  0.00    -0.646 OA
ENDBRANCH   1  29
TORSDOF 10
