REMARK  8 active torsions:
REMARK  status: ('A' for Active; 'I' for Inactive)
REMARK    1  A    between atoms: C_2  and  C_6 
REMARK    2  A    between atoms: C_4  and  C_5 
REMARK    3  A    between atoms: C_5  and  C_6 
REMARK    4  A    between atoms: C_6  and  N_10 
REMARK       I    between atoms: N_10  and  C_11 
REMARK    5  A    between atoms: C_11  and  C_18 
REMARK    6  A    between atoms: N_16  and  C_18 
REMARK    7  A    between atoms: C_18  and  C_24 
REMARK    8  A    between atoms: C_23  and  C_24 
ROOT
HETATM    1  N           1       2.235   0.858  -0.001  0.00  0.00    -0.344 N 
HETATM    2  C           1       1.602   0.230   1.038  0.00  0.00     0.249 C 
HETATM    3  O           1       1.975  -0.860   1.403  0.00  0.00    -0.271 OA
HETATM    4  H           1       3.022   1.468   0.180  0.00  0.00     0.163 HD
ENDROOT
BRANCH   1   5
HETATM    5  C           1       1.777   0.648  -1.361  0.00  0.00     0.189 C 
BRANCH   5   6
HETATM    6  C           1       2.637   1.448  -2.309  0.00  0.00     0.197 C 
HETATM    7  O           1       2.120   2.324  -3.035  0.00  0.00    -0.646 OA
HETATM    8  O           1       3.867   1.234  -2.368  0.00  0.00    -0.646 OA
ENDBRANCH   5   6
BRANCH   5   9
HETATM    9  C           1       0.328   1.102  -1.484  0.00  0.00     0.074 C 
BRANCH   9  10
HETATM   10  C           1      -0.582  -0.047  -1.179  0.00  0.00    -0.056 A 
HETATM   11  C           1      -0.047  -1.291  -0.847  0.00  0.00     0.007 A 
HETATM   12  C           1      -0.896  -2.362  -0.563  0.00  0.00     0.001 A 
HETATM   13  C           1      -2.279  -2.187  -0.611  0.00  0.00     0.000 A 
HETATM   14  C           1      -2.813  -0.943  -0.944  0.00  0.00     0.001 A 
HETATM   15  C           1      -1.965   0.128  -1.228  0.00  0.00     0.007 A 
ENDBRANCH   9  10
ENDBRANCH   5   9
ENDBRANCH   1   5
BRANCH   2  16
HETATM   16  C           1       0.439   0.900   1.729  0.00  0.00     0.284 C 
BRANCH  16  17
HETATM   17  N           1      -0.656   1.147   0.734  0.00  0.00    -0.066 N 
HETATM   18  H           1      -1.462   1.611   1.211  0.00  0.00     0.275 HD
HETATM   19  H           1      -0.300   1.767  -0.028  0.00  0.00     0.275 HD
HETATM   20  H           1      -0.970   0.237   0.327  0.00  0.00     0.275 HD
ENDBRANCH  16  17
BRANCH  16  21
HETATM   21  C           1      -0.080  -0.003   2.840  0.00  0.00     0.155 C 
BRANCH  21  22
HETATM   22  C           1      -0.534  -1.316   2.253  0.00  0.00     0.175 C 
HETATM   23  O           1      -1.716  -1.456   1.873  0.00  0.00    -0.648 OA
HETATM   24  O           1       0.273  -2.265   2.145  0.00  0.00    -0.648 OA
ENDBRANCH  21  22
ENDBRANCH  16  21
ENDBRANCH   2  16
TORSDOF 8
