REMARK  7 active torsions:
REMARK  status: ('A' for Active; 'I' for Inactive)
REMARK    1  A    between atoms: C_4  and  C_15 
REMARK    2  A    between atoms: N_7  and  C_20 
REMARK       I    between atoms: C_9  and  N_19 
REMARK    3  A    between atoms: C_9  and  C_20 
REMARK    4  A    between atoms: C_13  and  C_15 
REMARK    5  A    between atoms: C_15  and  N_19 
REMARK    6  A    between atoms: C_17  and  C_20 
REMARK    7  A    between atoms: C_17  and  C_18 
ROOT
HETATM    1  H           1       0.290   0.959  -0.716  0.00  0.00     0.163 HD
HETATM    2  O           1       0.541  -1.551   1.149  0.00  0.00    -0.271 OA
HETATM    3  C           1       0.713  -0.416   0.772  0.00  0.00     0.249 C 
HETATM    4  N           1       0.146   0.009  -0.400  0.00  0.00    -0.344 N 
ENDROOT
BRANCH   3   5
HETATM    5  C           1       1.552   0.533   1.592  0.00  0.00     0.284 C 
BRANCH   5   6
HETATM    6  N           1       0.718   1.712   1.999  0.00  0.00    -0.066 N 
HETATM    7  H           1       0.370   2.203   1.145  0.00  0.00     0.275 HD
HETATM    8  H           1       1.298   2.370   2.567  0.00  0.00     0.275 HD
HETATM    9  H           1      -0.095   1.383   2.568  0.00  0.00     0.275 HD
ENDBRANCH   5   6
BRANCH   5  10
HETATM   10  C           1       2.059  -0.183   2.837  0.00  0.00     0.155 C 
BRANCH  10  11
HETATM   11  C           1       0.886  -0.656   3.659  0.00  0.00     0.175 C 
HETATM   12  O           1      -0.281  -0.432   3.271  0.00  0.00    -0.648 OA
HETATM   13  O           1       1.081  -1.272   4.730  0.00  0.00    -0.648 OA
ENDBRANCH  10  11
ENDBRANCH   5  10
ENDBRANCH   3   5
BRANCH   4  14
HETATM   14  C           1      -0.660  -0.903  -1.188  0.00  0.00     0.189 C 
BRANCH  14  15
HETATM   15  C           1       0.179  -2.089  -1.597  0.00  0.00     0.197 C 
HETATM   16  O           1       0.695  -2.820  -0.724  0.00  0.00    -0.646 OA
HETATM   17  O           1       0.357  -2.341  -2.808  0.00  0.00    -0.646 OA
ENDBRANCH  14  15
BRANCH  14  18
HETATM   18  C           1      -1.167  -0.186  -2.432  0.00  0.00     0.010 C 
HETATM   19  C           1      -2.690  -0.186  -2.432  0.00  0.00     0.012 C 
HETATM   20  C           1      -0.658   1.250  -2.432  0.00  0.00     0.012 C 
ENDBRANCH  14  18
ENDBRANCH   4  14
TORSDOF 7
