REMARK  9 active torsions:
REMARK  status: ('A' for Active; 'I' for Inactive)
REMARK    1  A    between atoms: C_3  and  C_21 
REMARK    2  A    between atoms: C_3  and  C_4 
REMARK    3  A    between atoms: C_3  and  N_19 
REMARK    4  A    between atoms: C_5  and  C_22 
REMARK    5  A    between atoms: C_5  and  C_24 
REMARK    6  A    between atoms: C_7  and  C_8 
REMARK    7  A    between atoms: C_7  and  C_21 
REMARK       I    between atoms: C_8  and  N_9 
REMARK       I    between atoms: C_10  and  N_19 
REMARK    8  A    between atoms: C_10  and  C_22 
REMARK    9  A    between atoms: N_13  and  C_22 
ROOT
HETATM    1  H           1       0.065   1.452  -0.986  0.00  0.00     0.163 HD
HETATM    2  C           1      -0.837   0.920   0.799  0.00  0.00     0.249 C 
HETATM    3  O           1      -0.844   0.121   1.705  0.00  0.00    -0.271 OA
HETATM    4  N           1       0.059   0.783  -0.227  0.00  0.00    -0.345 N 
ENDROOT
BRANCH   4   5
HETATM    5  C           1       0.999  -0.321  -0.226  0.00  0.00     0.186 C 
BRANCH   5   6
HETATM    6  C           1       1.875  -0.241  -1.470  0.00  0.00     0.045 C 
BRANCH   6   7
HETATM    7  C           1       2.865  -1.399  -1.470  0.00  0.00     0.105 C 
BRANCH   7   8
HETATM    8  C           1       2.110  -2.706  -1.470  0.00  0.00     0.215 C 
HETATM    9  O           1       0.902  -2.706  -1.470  0.00  0.00    -0.274 OA
HETATM   10  N           1       2.795  -3.891  -1.470  0.00  0.00    -0.370 N 
HETATM   11  H           1       3.807  -3.891  -1.470  0.00  0.00     0.159 HD
HETATM   12  H           1       2.289  -4.768  -1.470  0.00  0.00     0.159 HD
ENDBRANCH   7   8
ENDBRANCH   6   7
ENDBRANCH   5   6
BRANCH   5  13
HETATM   13  C           1       1.866  -0.241   1.006  0.00  0.00     0.196 C 
HETATM   14  O           1       1.344  -0.288   2.141  0.00  0.00    -0.646 OA
HETATM   15  O           1       3.106  -0.128   0.893  0.00  0.00    -0.646 OA
ENDBRANCH   5  13
ENDBRANCH   4   5
BRANCH   2  16
HETATM   16  C           1      -1.816   2.068   0.798  0.00  0.00     0.284 C 
BRANCH  16  17
HETATM   17  C           1      -2.692   1.990   2.041  0.00  0.00     0.155 C 
BRANCH  17  18
HETATM   18  C           1      -3.450   0.685   2.042  0.00  0.00     0.175 C 
HETATM   19  O           1      -3.294  -0.129   1.105  0.00  0.00    -0.648 OA
HETATM   20  O           1      -4.232   0.416   2.979  0.00  0.00    -0.648 OA
ENDBRANCH  17  18
ENDBRANCH  16  17
BRANCH  16  21
HETATM   21  N           1      -2.678   1.989  -0.427  0.00  0.00    -0.066 N 
HETATM   22  H           1      -3.356   2.784  -0.428  0.00  0.00     0.275 HD
HETATM   23  H           1      -2.076   2.043  -1.279  0.00  0.00     0.275 HD
HETATM   24  H           1      -3.201   1.084  -0.426  0.00  0.00     0.275 HD
ENDBRANCH  16  21
ENDBRANCH   2  16
TORSDOF 9
