REMARK  8 active torsions:
REMARK  status: ('A' for Active; 'I' for Inactive)
REMARK    1  A    between atoms: N_1  and  C_9 
REMARK    2  A    between atoms: O_3  and  C_4 
REMARK    3  A    between atoms: C_4  and  C_19 
REMARK    4  A    between atoms: N_7  and  C_19 
REMARK       I    between atoms: N_7  and  C_8 
REMARK    5  A    between atoms: C_8  and  C_9 
REMARK    6  A    between atoms: C_9  and  C_10 
REMARK    7  A    between atoms: C_10  and  C_11 
REMARK       I    between atoms: C_11  and  N_12 
REMARK    8  A    between atoms: C_18  and  C_19 
ROOT
HETATM    1  H           1      -0.063  -1.923   0.282  0.00  0.00     0.163 HD
HETATM    2  N           1      -0.568  -1.046   0.282  0.00  0.00    -0.343 N 
HETATM    3  C           1       0.118   0.139   0.282  0.00  0.00     0.249 C 
HETATM    4  O           1      -0.485   1.186   0.281  0.00  0.00    -0.271 OA
ENDROOT
BRANCH   3   5
HETATM    5  C           1       1.627   0.138   0.283  0.00  0.00     0.283 C 
BRANCH   5   6
HETATM    6  N           1       2.126  -0.569  -0.942  0.00  0.00    -0.066 N 
HETATM    7  H           1       3.171  -0.571  -0.943  0.00  0.00     0.275 HD
HETATM    8  H           1       1.776  -1.554  -0.942  0.00  0.00     0.275 HD
HETATM    9  H           1       1.778  -0.076  -1.795  0.00  0.00     0.275 HD
ENDBRANCH   5   6
BRANCH   5  10
HETATM   10  C           1       2.136   1.573   0.283  0.00  0.00     0.145 C 
BRANCH  10  11
HETATM   11  C           1       1.636   2.285  -0.950  0.00  0.00     0.217 C 
HETATM   12  N           1       1.969   3.595  -1.166  0.00  0.00    -0.370 N 
HETATM   13  H           1       1.633   4.073  -1.992  0.00  0.00     0.159 HD
HETATM   14  H           1       2.551   4.086  -0.499  0.00  0.00     0.159 HD
HETATM   15  O           1       0.941   1.700  -1.745  0.00  0.00    -0.274 OA
ENDBRANCH  10  11
ENDBRANCH   5  10
ENDBRANCH   3   5
BRANCH   2  16
HETATM   16  C           1      -2.018  -1.044   0.281  0.00  0.00     0.209 C 
BRANCH  16  17
HETATM   17  C           1      -2.527  -2.480   0.281  0.00  0.00     0.200 C 
BRANCH  17  18
HETATM   18  O           1      -3.929  -2.480   0.281  0.00  0.00    -0.398 OA
HETATM   19  H           1      -4.202  -3.381   0.281  0.00  0.00     0.209 HD
ENDBRANCH  17  18
ENDBRANCH  16  17
BRANCH  16  20
HETATM   20  C           1      -2.520  -0.332   1.513  0.00  0.00     0.198 C 
HETATM   21  O           1      -3.239  -0.939   2.336  0.00  0.00    -0.646 OA
HETATM   22  O           1      -2.218   0.865   1.710  0.00  0.00    -0.646 OA
ENDBRANCH  16  20
ENDBRANCH   2  16
TORSDOF 8
