REMARK  8 active torsions:
REMARK  status: ('A' for Active; 'I' for Inactive)
REMARK    1  A    between atoms: N_3  and  C_9 
REMARK       I    between atoms: N_3  and  C_6 
REMARK    2  A    between atoms: C_4  and  C_5 
REMARK    3  A    between atoms: C_4  and  C_13 
REMARK    4  A    between atoms: C_5  and  C_6 
REMARK    5  A    between atoms: C_5  and  N_16 
REMARK    6  A    between atoms: S_7  and  C_8 
REMARK    7  A    between atoms: C_8  and  C_9 
REMARK    8  A    between atoms: C_9  and  C_10 
REMARK       I    between atoms: C_13  and  N_14 
ROOT
HETATM    1  C           1       1.651   0.153   0.283  0.00  0.00     0.283 C 
ENDROOT
BRANCH   1   2
HETATM    2  C           1       2.161   1.588   0.283  0.00  0.00     0.145 C 
BRANCH   2   3
HETATM    3  C           1       1.660   2.301  -0.950  0.00  0.00     0.217 C 
HETATM    4  N           1       1.993   3.611  -1.166  0.00  0.00    -0.370 N 
HETATM    5  H           1       1.658   4.089  -1.992  0.00  0.00     0.159 HD
HETATM    6  H           1       2.576   4.102  -0.499  0.00  0.00     0.159 HD
HETATM    7  O           1       0.965   1.715  -1.745  0.00  0.00    -0.274 OA
ENDBRANCH   2   3
ENDBRANCH   1   2
BRANCH   1   8
HETATM    8  C           1       0.142   0.155   0.282  0.00  0.00     0.249 C 
HETATM    9  N           1      -0.543  -1.030   0.282  0.00  0.00    -0.344 N 
HETATM   10  H           1      -0.038  -1.907   0.282  0.00  0.00     0.163 HD
HETATM   11  O           1      -0.461   1.202   0.281  0.00  0.00    -0.271 OA
BRANCH   9  12
HETATM   12  C           1      -1.993  -1.029   0.281  0.00  0.00     0.194 C 
BRANCH  12  13
HETATM   13  C           1      -2.502  -2.464   0.281  0.00  0.00     0.106 C 
BRANCH  13  14
HETATM   14  S           1      -4.317  -2.464   0.281  0.00  0.00    -0.180 SA
HETATM   15  H           1      -4.457  -3.802   0.281  0.00  0.00     0.101 HD
ENDBRANCH  13  14
ENDBRANCH  12  13
BRANCH  12  16
HETATM   16  C           1      -2.496  -0.316   1.513  0.00  0.00     0.197 C 
HETATM   17  O           1      -2.193   0.880   1.710  0.00  0.00    -0.646 OA
HETATM   18  O           1      -3.215  -0.923   2.336  0.00  0.00    -0.646 OA
ENDBRANCH  12  16
ENDBRANCH   9  12
ENDBRANCH   1   8
BRANCH   1  19
HETATM   19  N           1       2.151  -0.554  -0.942  0.00  0.00    -0.066 N 
HETATM   20  H           1       3.196  -0.555  -0.943  0.00  0.00     0.275 HD
HETATM   21  H           1       1.801  -1.539  -0.942  0.00  0.00     0.275 HD
HETATM   22  H           1       1.803  -0.060  -1.795  0.00  0.00     0.275 HD
ENDBRANCH   1  19
TORSDOF 8
