REMARK  8 active torsions:
REMARK  status: ('A' for Active; 'I' for Inactive)
REMARK    1  A    between atoms: O_1  and  C_2 
REMARK    2  A    between atoms: C_2  and  C_3 
REMARK    3  A    between atoms: C_3  and  C_14 
REMARK    4  A    between atoms: C_3  and  N_5 
REMARK       I    between atoms: N_5  and  C_11 
REMARK    5  A    between atoms: C_8  and  C_9 
REMARK    6  A    between atoms: C_9  and  C_10 
REMARK    7  A    between atoms: C_10  and  C_11 
REMARK    8  A    between atoms: C_10  and  N_15 
ROOT
HETATM    1  N           1      -0.405  -0.727   0.186  0.00  0.00    -0.343 N 
HETATM    2  C           1       0.280   0.458   0.186  0.00  0.00     0.249 C 
HETATM    3  O           1      -0.322   1.505   0.186  0.00  0.00    -0.271 OA
HETATM    4  H           1       0.100  -1.604   0.187  0.00  0.00     0.163 HD
ENDROOT
BRANCH   2   5
HETATM    5  C           1       1.789   0.457   0.187  0.00  0.00     0.284 C 
BRANCH   5   6
HETATM    6  C           1       2.299   1.892   0.187  0.00  0.00     0.155 C 
BRANCH   6   7
HETATM    7  C           1       1.798   2.604  -1.045  0.00  0.00     0.175 C 
HETATM    8  O           1       1.079   1.998  -1.869  0.00  0.00    -0.648 OA
HETATM    9  O           1       2.103   3.801  -1.242  0.00  0.00    -0.648 OA
ENDBRANCH   6   7
ENDBRANCH   5   6
BRANCH   5  10
HETATM   10  N           1       2.289  -0.251  -1.038  0.00  0.00    -0.066 N 
HETATM   11  H           1       3.334  -0.252  -1.038  0.00  0.00     0.275 HD
HETATM   12  H           1       1.939  -1.235  -1.037  0.00  0.00     0.275 HD
HETATM   13  H           1       1.941   0.243  -1.891  0.00  0.00     0.275 HD
ENDBRANCH   5  10
ENDBRANCH   2   5
BRANCH   1  14
HETATM   14  C           1      -1.855  -0.725   0.185  0.00  0.00     0.209 C 
BRANCH  14  15
HETATM   15  C           1      -2.364  -2.161   0.185  0.00  0.00     0.200 C 
BRANCH  15  16
HETATM   16  O           1      -3.766  -2.161   0.185  0.00  0.00    -0.398 OA
HETATM   17  H           1      -4.039  -3.062   0.185  0.00  0.00     0.209 HD
ENDBRANCH  15  16
ENDBRANCH  14  15
BRANCH  14  18
HETATM   18  C           1      -2.358  -0.013   1.417  0.00  0.00     0.198 C 
HETATM   19  O           1      -3.076  -0.620   2.240  0.00  0.00    -0.646 OA
HETATM   20  O           1      -2.055   1.184   1.614  0.00  0.00    -0.646 OA
ENDBRANCH  14  18
ENDBRANCH   1  14
TORSDOF 8
