REMARK  6 active torsions:
REMARK  status: ('A' for Active; 'I' for Inactive)
REMARK    1  A    between atoms: C_1  and  C_2 
REMARK    2  A    between atoms: C_1  and  C_17 
REMARK    3  A    between atoms: C_1  and  N_10 
REMARK       I    between atoms: C_2  and  N_3 
REMARK    4  A    between atoms: N_3  and  C_19 
REMARK    5  A    between atoms: C_12  and  C_19 
REMARK       I    between atoms: N_15  and  C_16 
REMARK    6  A    between atoms: C_16  and  C_17 
ROOT
HETATM    1  C           1      -0.790   0.776  -0.488  0.00  0.00     0.283 C 
ENDROOT
BRANCH   1   2
HETATM    2  C           1       0.190  -0.372  -0.488  0.00  0.00     0.249 C 
HETATM    3  N           1      -0.267  -1.662  -0.488  0.00  0.00    -0.349 N 
HETATM    4  H           1      -1.262  -1.847  -0.488  0.00  0.00     0.163 HD
HETATM    5  O           1       1.378  -0.152  -0.488  0.00  0.00    -0.271 OA
BRANCH   3   6
HETATM    6  C           1       0.675  -2.765  -0.488  0.00  0.00     0.235 C 
BRANCH   6   7
HETATM    7  C           1      -0.080  -4.072  -0.488  0.00  0.00     0.191 C 
HETATM    8  O           1      -1.330  -4.072  -0.488  0.00  0.00    -0.647 OA
HETATM    9  O           1       0.545  -5.154  -0.488  0.00  0.00    -0.647 OA
ENDBRANCH   6   7
ENDBRANCH   3   6
ENDBRANCH   1   2
BRANCH   1  10
HETATM   10  C           1      -0.029   2.095  -0.488  0.00  0.00     0.145 C 
BRANCH  10  11
HETATM   11  C           1       0.839   2.175   0.744  0.00  0.00     0.217 C 
HETATM   12  O           1       0.845   1.266   1.540  0.00  0.00    -0.274 OA
HETATM   13  N           1       1.620   3.279   0.960  0.00  0.00    -0.370 N 
HETATM   14  H           1       1.616   4.040   0.294  0.00  0.00     0.159 HD
HETATM   15  H           1       2.202   3.333   1.787  0.00  0.00     0.159 HD
ENDBRANCH  10  11
ENDBRANCH   1  10
BRANCH   1  16
HETATM   16  N           1      -1.652   0.697   0.738  0.00  0.00    -0.066 N 
HETATM   17  H           1      -1.050   0.752   1.591  0.00  0.00     0.275 HD
HETATM   18  H           1      -2.175  -0.208   0.738  0.00  0.00     0.275 HD
HETATM   19  H           1      -2.331   1.491   0.739  0.00  0.00     0.275 HD
ENDBRANCH   1  16
TORSDOF 6
