REMARK  9 active torsions:
REMARK  status: ('A' for Active; 'I' for Inactive)
REMARK    1  A    between atoms: Se_7  and  C_8 
REMARK    2  A    between atoms: C_8  and  C_9 
REMARK    3  A    between atoms: C_9  and  C_10 
REMARK    4  A    between atoms: C_10  and  C_11 
REMARK    5  A    between atoms: C_10  and  N_23 
REMARK    6  A    between atoms: N_16  and  C_21 
REMARK       I    between atoms: N_18  and  C_19 
REMARK    7  A    between atoms: C_19  and  C_20 
REMARK    8  A    between atoms: C_20  and  C_21 
REMARK    9  A    between atoms: C_21  and  C_22 
REMARK       I    between atoms: C_22  and  N_23 
ROOT
HETATM    1  H           1      -1.384  -0.098  -0.005  0.00  0.00     0.163 HD
HETATM    2  O           1       1.507  -1.183  -0.558  0.00  0.00    -0.271 OA
HETATM    3  C           1       0.330  -0.989  -0.748  0.00  0.00     0.249 C 
HETATM    4  N           1      -0.398  -0.260   0.154  0.00  0.00    -0.345 N 
ENDROOT
BRANCH   3   5
HETATM    5  C           1      -0.339  -1.551  -1.979  0.00  0.00     0.283 C 
BRANCH   5   6
HETATM    6  N           1      -0.906  -0.428  -2.795  0.00  0.00    -0.066 N 
HETATM    7  H           1      -1.369  -0.816  -3.648  0.00  0.00     0.275 HD
HETATM    8  H           1      -1.609   0.096  -2.226  0.00  0.00     0.275 HD
HETATM    9  H           1      -0.136   0.219  -3.081  0.00  0.00     0.275 HD
ENDBRANCH   5   6
BRANCH   5  10
HETATM   10  C           1       0.685  -2.314  -2.809  0.00  0.00     0.145 C 
BRANCH  10  11
HETATM   11  C           1       1.796  -1.381  -3.222  0.00  0.00     0.217 C 
HETATM   12  O           1       1.768  -0.221  -2.884  0.00  0.00    -0.274 OA
HETATM   13  N           1       2.836  -1.848  -3.980  0.00  0.00    -0.370 N 
HETATM   14  H           1       3.581  -1.221  -4.258  0.00  0.00     0.159 HD
HETATM   15  H           1       2.859  -2.819  -4.264  0.00  0.00     0.159 HD
ENDBRANCH  10  11
ENDBRANCH   5  10
ENDBRANCH   3   5
BRANCH   4  16
HETATM   16  C           1       0.244   0.280   1.337  0.00  0.00     0.185 C 
BRANCH  16  17
HETATM   17  C           1      -0.781   1.043   2.166  0.00  0.00     0.036 C 
BRANCH  17  18
HETATM   18  C           1      -0.108   1.610   3.409  0.00  0.00     0.003 C 
BRANCH  18  19
HETATM   19 Se           1      -0.271   3.552   3.409  0.00  0.00     0.000 Se
HETATM   20  C           1      -2.220   3.552   3.409  0.00  0.00     0.000 C 
ENDBRANCH  18  19
ENDBRANCH  17  18
ENDBRANCH  16  17
BRANCH  16  21
HETATM   21  C           1       0.815  -0.850   2.157  0.00  0.00     0.196 C 
HETATM   22  O           1       1.679  -1.607   1.664  0.00  0.00    -0.646 OA
HETATM   23  O           1       0.425  -1.030   3.331  0.00  0.00    -0.646 OA
ENDBRANCH  16  21
ENDBRANCH   4  16
TORSDOF 9
