REMARK  8 active torsions:
REMARK  status: ('A' for Active; 'I' for Inactive)
REMARK    1  A    between atoms: C_1  and  C_9 
REMARK       I    between atoms: C_3  and  N_4 
REMARK    2  A    between atoms: C_3  and  C_15 
REMARK    3  A    between atoms: N_4  and  C_9 
REMARK    4  A    between atoms: O_8  and  C_10 
REMARK    5  A    between atoms: C_9  and  C_10 
REMARK    6  A    between atoms: S_13  and  C_14 
REMARK    7  A    between atoms: C_14  and  C_15 
REMARK    8  A    between atoms: C_15  and  N_16 
ROOT
HETATM    1  H           1       0.140  -1.535   0.113  0.00  0.00     0.163 HD
HETATM    2  C           1       0.321   0.527   0.113  0.00  0.00     0.249 C 
HETATM    3  N           1      -0.365  -0.658   0.113  0.00  0.00    -0.343 N 
HETATM    4  O           1      -0.282   1.574   0.112  0.00  0.00    -0.271 OA
ENDROOT
BRANCH   2   5
HETATM    5  C           1       1.830   0.526   0.114  0.00  0.00     0.283 C 
BRANCH   5   6
HETATM    6  C           1       2.339   1.961   0.114  0.00  0.00     0.113 C 
BRANCH   6   7
HETATM    7  S           1       1.737   2.818  -1.369  0.00  0.00    -0.180 SA
HETATM    8  H           1       2.323   3.998  -1.096  0.00  0.00     0.101 HD
ENDBRANCH   6   7
ENDBRANCH   5   6
BRANCH   5   9
HETATM    9  N           1       2.329  -0.181  -1.111  0.00  0.00    -0.066 N 
HETATM   10  H           1       1.979  -1.166  -1.111  0.00  0.00     0.275 HD
HETATM   11  H           1       3.374  -0.183  -1.112  0.00  0.00     0.275 HD
HETATM   12  H           1       1.981   0.312  -1.964  0.00  0.00     0.275 HD
ENDBRANCH   5   9
ENDBRANCH   2   5
BRANCH   3  13
HETATM   13  C           1      -1.815  -0.656   0.112  0.00  0.00     0.209 C 
BRANCH  13  14
HETATM   14  C           1      -2.317   0.056   1.344  0.00  0.00     0.198 C 
HETATM   15  O           1      -2.015   1.253   1.541  0.00  0.00    -0.646 OA
HETATM   16  O           1      -3.036  -0.551   2.167  0.00  0.00    -0.646 OA
ENDBRANCH  13  14
BRANCH  13  17
HETATM   17  C           1      -2.324  -2.092   0.112  0.00  0.00     0.200 C 
BRANCH  17  18
HETATM   18  O           1      -3.726  -2.092   0.112  0.00  0.00    -0.398 OA
HETATM   19  H           1      -3.999  -2.993   0.112  0.00  0.00     0.209 HD
ENDBRANCH  17  18
ENDBRANCH  13  17
ENDBRANCH   3  13
TORSDOF 8
