REMARK  11 active torsions:
REMARK  status: ('A' for Active; 'I' for Inactive)
REMARK    1  A    between atoms: C_1  and  C_6 
REMARK    2  A    between atoms: C_5  and  C_18 
REMARK    3  A    between atoms: C_5  and  C_6 
REMARK    4  A    between atoms: C_5  and  N_13 
REMARK    5  A    between atoms: O_7  and  P_27 
REMARK    6  A    between atoms: S_10  and  C_11 
REMARK    7  A    between atoms: C_11  and  C_12 
REMARK    8  A    between atoms: C_12  and  C_26 
REMARK    9  A    between atoms: C_12  and  N_16 
REMARK       I    between atoms: N_13  and  C_26 
REMARK   10  A    between atoms: O_19  and  C_21 
REMARK   11  A    between atoms: O_19  and  P_27 
ROOT
HETATM    1  C           1       2.447   0.978  -1.246  0.00  0.00     0.189 C 
ENDROOT
BRANCH   1   2
HETATM    2  C           1       3.307   1.777  -2.194  0.00  0.00     0.197 C 
HETATM    3  O           1       2.789   2.653  -2.920  0.00  0.00    -0.646 OA
HETATM    4  O           1       4.537   1.564  -2.253  0.00  0.00    -0.646 OA
ENDBRANCH   1   2
BRANCH   1   5
HETATM    5  C           1       0.998   1.431  -1.369  0.00  0.00     0.074 C 
BRANCH   5   6
HETATM    6  C           1       0.088   0.283  -1.064  0.00  0.00    -0.056 A 
HETATM    7  C           1       0.622  -0.962  -0.732  0.00  0.00     0.010 A 
HETATM    8  C           1      -0.226  -2.032  -0.448  0.00  0.00     0.038 A 
HETATM    9  C           1      -1.609  -1.858  -0.497  0.00  0.00     0.081 A 
HETATM   10  C           1      -2.144  -0.613  -0.829  0.00  0.00     0.038 A 
HETATM   11  C           1      -1.295   0.457  -1.113  0.00  0.00     0.010 A 
BRANCH   9  12
HETATM   12  O           1      -2.433  -2.897  -0.221  0.00  0.00    -0.247 OA
BRANCH  12  13
HETATM   13  P           1      -4.026  -2.641  -0.292  0.00  0.00     0.411 P 
HETATM   14  O           1      -4.742  -3.893   0.041  0.00  0.00    -0.624 OA
HETATM   15  O           1      -4.401  -1.587   0.677  0.00  0.00    -0.624 OA
BRANCH  13  16
HETATM   16  O           1      -4.429  -2.169  -1.783  0.00  0.00    -0.300 OA
HETATM   17  H           1      -5.362  -2.039  -1.753  0.00  0.00     0.223 HD
ENDBRANCH  13  16
ENDBRANCH  12  13
ENDBRANCH   9  12
ENDBRANCH   5   6
ENDBRANCH   1   5
BRANCH   1  18
HETATM   18  N           1       2.904   1.187   0.114  0.00  0.00    -0.344 N 
HETATM   19  C           1       2.272   0.560   1.153  0.00  0.00     0.249 C 
HETATM   20  O           1       2.644  -0.530   1.517  0.00  0.00    -0.271 OA
HETATM   21  H           1       3.691   1.797   0.295  0.00  0.00     0.163 HD
BRANCH  19  22
HETATM   22  C           1       1.109   1.229   1.843  0.00  0.00     0.283 C 
BRANCH  22  23
HETATM   23  C           1       0.590   0.327   2.955  0.00  0.00     0.113 C 
BRANCH  23  24
HETATM   24  S           1       0.044  -1.253   2.248  0.00  0.00    -0.180 SA
HETATM   25  H           1      -0.339  -1.804   3.414  0.00  0.00     0.101 HD
ENDBRANCH  23  24
ENDBRANCH  22  23
BRANCH  22  26
HETATM   26  N           1       0.013   1.477   0.849  0.00  0.00    -0.066 N 
HETATM   27  H           1      -0.792   1.941   1.326  0.00  0.00     0.275 HD
HETATM   28  H           1       0.369   2.096   0.086  0.00  0.00     0.275 HD
HETATM   29  H           1      -0.300   0.567   0.442  0.00  0.00     0.275 HD
ENDBRANCH  22  26
ENDBRANCH  19  22
ENDBRANCH   1  18
TORSDOF 11
