REMARK  8 active torsions:
REMARK  status: ('A' for Active; 'I' for Inactive)
REMARK    1  A    between atoms: C_4  and  C_5 
REMARK    2  A    between atoms: C_5  and  C_6 
REMARK    3  A    between atoms: C_5  and  N_16 
REMARK    4  A    between atoms: C_6  and  Se_7 
REMARK    5  A    between atoms: N_9  and  C_14 
REMARK    6  A    between atoms: S_12  and  C_13 
REMARK    7  A    between atoms: C_13  and  C_14 
REMARK    8  A    between atoms: C_14  and  C_15 
REMARK       I    between atoms: C_15  and  N_16 
ROOT
HETATM    1  H           1       0.177  -1.512   0.113  0.00  0.00     0.163 HD
HETATM    2  O           1      -0.245   1.597   0.112  0.00  0.00    -0.271 OA
HETATM    3  C           1       0.358   0.550   0.113  0.00  0.00     0.249 C 
HETATM    4  N           1      -0.328  -0.635   0.113  0.00  0.00    -0.345 N 
ENDROOT
BRANCH   3   5
HETATM    5  C           1       1.867   0.548   0.114  0.00  0.00     0.283 C 
BRANCH   5   6
HETATM    6  N           1       2.366  -0.159  -1.111  0.00  0.00    -0.066 N 
HETATM    7  H           1       2.017  -1.144  -1.111  0.00  0.00     0.275 HD
HETATM    8  H           1       3.411  -0.160  -1.112  0.00  0.00     0.275 HD
HETATM    9  H           1       2.019   0.335  -1.964  0.00  0.00     0.275 HD
ENDBRANCH   5   6
BRANCH   5  10
HETATM   10  C           1       2.377   1.984   0.114  0.00  0.00     0.113 C 
BRANCH  10  11
HETATM   11  S           1       1.774   2.840  -1.369  0.00  0.00    -0.180 SA
HETATM   12  H           1       2.360   4.020  -1.096  0.00  0.00     0.101 HD
ENDBRANCH  10  11
ENDBRANCH   5  10
ENDBRANCH   3   5
BRANCH   4  13
HETATM   13  C           1      -1.778  -0.633   0.112  0.00  0.00     0.185 C 
BRANCH  13  14
HETATM   14  C           1      -2.280   0.079   1.344  0.00  0.00     0.196 C 
HETATM   15  O           1      -1.977   1.275   1.541  0.00  0.00    -0.646 OA
HETATM   16  O           1      -2.999  -0.528   2.167  0.00  0.00    -0.646 OA
ENDBRANCH  13  14
BRANCH  13  17
HETATM   17  C           1      -2.286  -2.069   0.112  0.00  0.00     0.039 C 
BRANCH  17  18
HETATM   18 Se           1      -4.235  -2.069   0.112  0.00  0.00     0.000 Se
HETATM   19  H           1      -4.351  -3.537   0.112  0.00  0.00     0.000 HD
ENDBRANCH  17  18
ENDBRANCH  13  17
ENDBRANCH   4  13
TORSDOF 8
