REMARK  9 active torsions:
REMARK  status: ('A' for Active; 'I' for Inactive)
REMARK    1  A    between atoms: N_2  and  C_20 
REMARK       I    between atoms: N_2  and  C_3 
REMARK    2  A    between atoms: C_3  and  C_4 
REMARK    3  A    between atoms: C_4  and  C_5 
REMARK    4  A    between atoms: C_4  and  N_6 
REMARK    5  A    between atoms: C_5  and  S_9 
REMARK       I    between atoms: C_13  and  N_23 
REMARK    6  A    between atoms: C_13  and  C_22 
REMARK    7  A    between atoms: C_19  and  C_20 
REMARK    8  A    between atoms: C_20  and  C_21 
REMARK    9  A    between atoms: C_21  and  C_22 
ROOT
HETATM    1  N           1      -0.042   0.780  -0.199  0.00  0.00    -0.345 N 
HETATM    2  C           1      -0.937   0.917   0.828  0.00  0.00     0.249 C 
HETATM    3  O           1      -0.944   0.118   1.734  0.00  0.00    -0.271 OA
HETATM    4  H           1      -0.036   1.449  -0.958  0.00  0.00     0.163 HD
ENDROOT
BRANCH   1   5
HETATM    5  C           1       0.899  -0.323  -0.198  0.00  0.00     0.186 C 
BRANCH   5   6
HETATM    6  C           1       1.765  -0.244   1.035  0.00  0.00     0.196 C 
HETATM    7  O           1       3.005  -0.130   0.921  0.00  0.00    -0.646 OA
HETATM    8  O           1       1.244  -0.291   2.170  0.00  0.00    -0.646 OA
ENDBRANCH   5   6
BRANCH   5   9
HETATM    9  C           1       1.775  -0.244  -1.441  0.00  0.00     0.045 C 
BRANCH   9  10
HETATM   10  C           1       2.764  -1.402  -1.441  0.00  0.00     0.105 C 
BRANCH  10  11
HETATM   11  C           1       2.009  -2.709  -1.441  0.00  0.00     0.215 C 
HETATM   12  O           1       0.801  -2.709  -1.441  0.00  0.00    -0.274 OA
HETATM   13  N           1       2.694  -3.894  -1.441  0.00  0.00    -0.370 N 
HETATM   14  H           1       3.706  -3.894  -1.441  0.00  0.00     0.159 HD
HETATM   15  H           1       2.188  -4.771  -1.441  0.00  0.00     0.159 HD
ENDBRANCH  10  11
ENDBRANCH   9  10
ENDBRANCH   5   9
ENDBRANCH   1   5
BRANCH   2  16
HETATM   16  C           1      -1.916   2.066   0.827  0.00  0.00     0.283 C 
BRANCH  16  17
HETATM   17  C           1      -2.793   1.987   2.070  0.00  0.00     0.113 C 
BRANCH  17  18
HETATM   18  S           1      -3.704   0.417   2.071  0.00  0.00    -0.180 SA
HETATM   19  H           1      -4.354   0.632   3.228  0.00  0.00     0.101 HD
ENDBRANCH  17  18
ENDBRANCH  16  17
BRANCH  16  20
HETATM   20  N           1      -2.778   1.986  -0.398  0.00  0.00    -0.066 N 
HETATM   21  H           1      -3.457   2.781  -0.400  0.00  0.00     0.275 HD
HETATM   22  H           1      -2.177   2.040  -1.251  0.00  0.00     0.275 HD
HETATM   23  H           1      -3.302   1.082  -0.397  0.00  0.00     0.275 HD
ENDBRANCH  16  20
ENDBRANCH   2  16
TORSDOF 9
