REMARK  9 active torsions:
REMARK  status: ('A' for Active; 'I' for Inactive)
REMARK    1  A    between atoms: C_1  and  C_2 
REMARK    2  A    between atoms: C_1  and  S_16 
REMARK    3  A    between atoms: C_2  and  C_3 
REMARK    4  A    between atoms: C_2  and  N_15 
REMARK       I    between atoms: C_3  and  N_18 
REMARK    5  A    between atoms: C_4  and  C_5 
REMARK    6  A    between atoms: C_4  and  C_7 
REMARK    7  A    between atoms: C_4  and  N_18 
REMARK    8  A    between atoms: C_5  and  C_8 
REMARK    9  A    between atoms: C_8  and  Se_9 
ROOT
HETATM    1  C           1       0.590  -1.124  -1.113  0.00  0.00     0.249 C 
HETATM    2  H           1      -1.124  -0.233  -0.370  0.00  0.00     0.163 HD
HETATM    3  O           1       1.768  -1.318  -0.923  0.00  0.00    -0.271 OA
HETATM    4  N           1      -0.137  -0.395  -0.211  0.00  0.00    -0.345 N 
ENDROOT
BRANCH   1   5
HETATM    5  C           1      -0.078  -1.686  -2.344  0.00  0.00     0.283 C 
BRANCH   5   6
HETATM    6  C           1       0.946  -2.450  -3.174  0.00  0.00     0.113 C 
BRANCH   6   7
HETATM    7  S           1       2.282  -1.327  -3.671  0.00  0.00    -0.180 SA
HETATM    8  H           1       2.990  -2.244  -4.353  0.00  0.00     0.101 HD
ENDBRANCH   6   7
ENDBRANCH   5   6
BRANCH   5   9
HETATM    9  N           1      -0.645  -0.563  -3.160  0.00  0.00    -0.066 N 
HETATM   10  H           1      -1.348  -0.039  -2.591  0.00  0.00     0.275 HD
HETATM   11  H           1       0.125   0.084  -3.446  0.00  0.00     0.275 HD
HETATM   12  H           1      -1.108  -0.951  -4.013  0.00  0.00     0.275 HD
ENDBRANCH   5   9
ENDBRANCH   1   5
BRANCH   4  13
HETATM   13  C           1       0.505   0.145   0.972  0.00  0.00     0.185 C 
BRANCH  13  14
HETATM   14  C           1      -0.520   0.908   1.801  0.00  0.00     0.036 C 
BRANCH  14  15
HETATM   15  C           1       0.153   1.474   3.044  0.00  0.00     0.003 C 
BRANCH  15  16
HETATM   16 Se           1      -0.010   3.417   3.044  0.00  0.00     0.000 Se
HETATM   17  C           1      -1.959   3.417   3.044  0.00  0.00     0.000 C 
ENDBRANCH  15  16
ENDBRANCH  14  15
ENDBRANCH  13  14
BRANCH  13  18
HETATM   18  C           1       1.076  -0.985   1.793  0.00  0.00     0.196 C 
HETATM   19  O           1       1.940  -1.742   1.299  0.00  0.00    -0.646 OA
HETATM   20  O           1       0.686  -1.165   2.966  0.00  0.00    -0.646 OA
ENDBRANCH  13  18
ENDBRANCH   4  13
TORSDOF 9
