REMARK  11 active torsions:
REMARK  status: ('A' for Active; 'I' for Inactive)
REMARK    1  A    between atoms: C_4  and  C_23 
REMARK    2  A    between atoms: C_5  and  C_6 
REMARK    3  A    between atoms: C_5  and  S_10 
REMARK    4  A    between atoms: C_6  and  C_16 
REMARK    5  A    between atoms: C_6  and  N_11 
REMARK       I    between atoms: C_16  and  N_17 
REMARK    6  A    between atoms: N_17  and  C_23 
REMARK    7  A    between atoms: C_19  and  C_20 
REMARK    8  A    between atoms: C_19  and  C_24 
REMARK    9  A    between atoms: C_20  and  C_21 
REMARK   10  A    between atoms: C_21  and  N_22 
REMARK   11  A    between atoms: C_23  and  C_24 
ROOT
HETATM    1  H           1      -1.223  -0.440   0.268  0.00  0.00     0.163 HD
HETATM    2  O           1      -0.798   2.668   0.267  0.00  0.00    -0.271 OA
HETATM    3  C           1      -1.402   1.622   0.267  0.00  0.00     0.249 C 
HETATM    4  N           1      -0.717   0.436   0.267  0.00  0.00    -0.345 N 
ENDROOT
BRANCH   4   5
HETATM    5  C           1       0.733   0.436   0.267  0.00  0.00     0.185 C 
BRANCH   5   6
HETATM    6  C           1       1.235   1.147  -0.965  0.00  0.00     0.196 C 
HETATM    7  O           1       0.933   2.344  -1.163  0.00  0.00    -0.646 OA
HETATM    8  O           1       1.953   0.540  -1.788  0.00  0.00    -0.646 OA
ENDBRANCH   5   6
BRANCH   5   9
HETATM    9  C           1       1.239  -1.000   0.268  0.00  0.00     0.036 C 
BRANCH   9  10
HETATM   10  C           1       2.762  -1.002   0.267  0.00  0.00     0.004 C 
BRANCH  10  11
HETATM   11  C           1       3.269  -1.720  -0.977  0.00  0.00     0.027 C 
BRANCH  11  12
HETATM   12  C           1       2.761  -3.156  -0.977  0.00  0.00     0.229 C 
BRANCH  12  13
HETATM   13  N           1       1.261  -3.156  -0.977  0.00  0.00    -0.079 N 
HETATM   14  H           1       0.912  -4.141  -0.977  0.00  0.00     0.274 HD
HETATM   15  H           1       0.913  -2.664  -0.123  0.00  0.00     0.274 HD
HETATM   16  H           1       0.913  -2.663  -1.830  0.00  0.00     0.274 HD
ENDBRANCH  12  13
ENDBRANCH  11  12
ENDBRANCH  10  11
ENDBRANCH   9  10
ENDBRANCH   5   9
ENDBRANCH   4   5
BRANCH   3  17
HETATM   17  C           1      -2.911   1.622   0.267  0.00  0.00     0.283 C 
BRANCH  17  18
HETATM   18  C           1      -3.419   3.057   0.267  0.00  0.00     0.113 C 
BRANCH  18  19
HETATM   19  S           1      -2.815   3.914   1.748  0.00  0.00    -0.180 SA
HETATM   20  H           1      -3.400   5.095   1.476  0.00  0.00     0.101 HD
ENDBRANCH  18  19
ENDBRANCH  17  18
BRANCH  17  21
HETATM   21  N           1      -3.410   0.915   1.493  0.00  0.00    -0.066 N 
HETATM   22  H           1      -4.455   0.915   1.494  0.00  0.00     0.275 HD
HETATM   23  H           1      -3.062  -0.070   1.493  0.00  0.00     0.275 HD
HETATM   24  H           1      -3.062   1.409   2.345  0.00  0.00     0.275 HD
ENDBRANCH  17  21
ENDBRANCH   3  17
TORSDOF 11
