REMARK  8 active torsions:
REMARK  status: ('A' for Active; 'I' for Inactive)
REMARK    1  A    between atoms: C_6  and  C_11 
REMARK    2  A    between atoms: C_6  and  C_19 
REMARK    3  A    between atoms: C_6  and  N_20 
REMARK    4  A    between atoms: S_7  and  C_15 
REMARK    5  A    between atoms: N_8  and  C_9 
REMARK    6  A    between atoms: C_9  and  C_10 
REMARK    7  A    between atoms: C_9  and  C_15 
REMARK       I    between atoms: C_10  and  N_20 
REMARK    8  A    between atoms: C_11  and  C_13 
REMARK       I    between atoms: N_12  and  C_13 
ROOT
HETATM    1  H           1       1.389  -0.038   0.101  0.00  0.00     0.163 HD
HETATM    2  O           1      -1.515   1.151   0.100  0.00  0.00    -0.271 OA
HETATM    3  C           1      -0.307   1.149   0.101  0.00  0.00     0.249 C 
HETATM    4  N           1       0.377  -0.037   0.101  0.00  0.00    -0.344 N 
ENDROOT
BRANCH   4   5
HETATM    5  C           1      -0.350  -1.292   0.100  0.00  0.00     0.194 C 
BRANCH   5   6
HETATM    6  C           1       0.640  -2.450   0.100  0.00  0.00     0.138 C 
BRANCH   6   7
HETATM    7  C           1      -0.115  -3.757   0.100  0.00  0.00     0.217 C 
HETATM    8  N           1       0.570  -4.943   0.100  0.00  0.00    -0.370 N 
HETATM    9  H           1       1.582  -4.943   0.100  0.00  0.00     0.159 HD
HETATM   10  H           1       0.064  -5.819   0.100  0.00  0.00     0.159 HD
HETATM   11  O           1      -1.323  -3.757   0.100  0.00  0.00    -0.274 OA
ENDBRANCH   6   7
ENDBRANCH   5   6
BRANCH   5  12
HETATM   12  C           1      -1.218  -1.371   1.332  0.00  0.00     0.197 C 
HETATM   13  O           1      -1.052  -2.297   2.155  0.00  0.00    -0.646 OA
HETATM   14  O           1      -2.102  -0.510   1.529  0.00  0.00    -0.646 OA
ENDBRANCH   5  12
ENDBRANCH   4   5
BRANCH   3  15
HETATM   15  C           1       0.449   2.455   0.102  0.00  0.00     0.283 C 
BRANCH  15  16
HETATM   16  N           1       1.311   2.534  -1.123  0.00  0.00    -0.066 N 
HETATM   17  H           1       1.835   3.438  -1.124  0.00  0.00     0.275 HD
HETATM   18  H           1       1.990   1.739  -1.123  0.00  0.00     0.275 HD
HETATM   19  H           1       0.710   2.480  -1.976  0.00  0.00     0.275 HD
ENDBRANCH  15  16
BRANCH  15  20
HETATM   20  C           1      -0.539   3.614   0.102  0.00  0.00     0.113 C 
BRANCH  20  21
HETATM   21  S           1      -1.582   3.521  -1.380  0.00  0.00    -0.180 SA
HETATM   22  H           1      -2.311   4.618  -1.108  0.00  0.00     0.101 HD
ENDBRANCH  20  21
ENDBRANCH  15  20
ENDBRANCH   3  15
TORSDOF 8
