REMARK  8 active torsions:
REMARK  status: ('A' for Active; 'I' for Inactive)
REMARK    1  A    between atoms: N_1  and  C_8 
REMARK       I    between atoms: N_1  and  C_14 
REMARK    2  A    between atoms: N_6  and  C_13 
REMARK    3  A    between atoms: C_8  and  C_16 
REMARK    4  A    between atoms: C_8  and  C_18 
REMARK    5  A    between atoms: C_12  and  C_13 
REMARK    6  A    between atoms: C_12  and  S_15 
REMARK    7  A    between atoms: C_13  and  C_14 
REMARK    8  A    between atoms: C_16  and  O_20 
ROOT
HETATM    1  N           1       0.070   0.135  -0.466  0.00  0.00    -0.343 N 
HETATM    2  O           1       0.464  -1.425   1.083  0.00  0.00    -0.271 OA
HETATM    3  H           1       0.214   1.085  -0.782  0.00  0.00     0.163 HD
HETATM    4  C           1       0.636  -0.290   0.706  0.00  0.00     0.249 C 
ENDROOT
BRANCH   1   5
HETATM    5  C           1      -0.736  -0.777  -1.254  0.00  0.00     0.214 C 
BRANCH   5   6
HETATM    6  C           1      -1.243  -0.060  -2.498  0.00  0.00     0.147 C 
HETATM    7  C           1      -2.766  -0.060  -2.498  0.00  0.00     0.042 C 
BRANCH   6   8
HETATM    8  O           1      -0.775   1.262  -2.498  0.00  0.00    -0.393 OA
HETATM    9  H           1       0.166   1.219  -2.498  0.00  0.00     0.210 HD
ENDBRANCH   6   8
ENDBRANCH   5   6
BRANCH   5  10
HETATM   10  C           1       0.102  -1.964  -1.663  0.00  0.00     0.199 C 
HETATM   11  O           1       0.280  -2.215  -2.874  0.00  0.00    -0.646 OA
HETATM   12  O           1       0.618  -2.694  -0.790  0.00  0.00    -0.646 OA
ENDBRANCH   5  10
ENDBRANCH   1   5
BRANCH   4  13
HETATM   13  C           1       1.475   0.659   1.526  0.00  0.00     0.283 C 
BRANCH  13  14
HETATM   14  N           1       0.641   1.838   1.933  0.00  0.00    -0.066 N 
HETATM   15  H           1      -0.171   1.509   2.503  0.00  0.00     0.275 HD
HETATM   16  H           1       0.293   2.329   1.079  0.00  0.00     0.275 HD
HETATM   17  H           1       1.221   2.495   2.502  0.00  0.00     0.275 HD
ENDBRANCH  13  14
BRANCH  13  18
HETATM   18  C           1       1.982  -0.057   2.771  0.00  0.00     0.113 C 
BRANCH  18  19
HETATM   19  S           1       0.571  -0.626   3.761  0.00  0.00    -0.180 SA
HETATM   20  H           1       1.303  -1.189   4.739  0.00  0.00     0.101 HD
ENDBRANCH  18  19
ENDBRANCH  13  18
ENDBRANCH   4  13
TORSDOF 8
