REMARK  10 active torsions:
REMARK  status: ('A' for Active; 'I' for Inactive)
REMARK    1  A    between atoms: P_2  and  O_3 
REMARK    2  A    between atoms: P_2  and  O_13 
REMARK    3  A    between atoms: O_3  and  C_20 
REMARK    4  A    between atoms: N_4  and  C_17 
REMARK    5  A    between atoms: C_9  and  C_21 
REMARK    6  A    between atoms: N_15  and  C_21 
REMARK       I    between atoms: N_15  and  C_16 
REMARK    7  A    between atoms: C_16  and  C_17 
REMARK    8  A    between atoms: C_17  and  C_18 
REMARK    9  A    between atoms: C_18  and  S_19 
REMARK   10  A    between atoms: C_20  and  C_21 
ROOT
HETATM    1  O           1       1.323   0.744   1.023  0.00  0.00    -0.271 OA
HETATM    2  N           1       0.545  -1.268   0.446  0.00  0.00    -0.343 N 
HETATM    3  C           1       1.327  -0.165   0.228  0.00  0.00     0.249 C 
HETATM    4  H           1       0.549  -2.030  -0.221  0.00  0.00     0.163 HD
ENDROOT
BRANCH   2   5
HETATM    5  C           1      -0.287  -1.345   1.630  0.00  0.00     0.210 C 
BRANCH   5   6
HETATM    6  C           1      -1.042  -2.652   1.630  0.00  0.00     0.198 C 
HETATM    7  O           1      -2.292  -2.652   1.630  0.00  0.00    -0.646 OA
HETATM    8  O           1      -0.417  -3.734   1.630  0.00  0.00    -0.646 OA
ENDBRANCH   5   6
BRANCH   5   9
HETATM    9  C           1      -1.276  -0.187   1.630  0.00  0.00     0.217 C 
BRANCH   9  10
HETATM   10  O           1      -2.083  -0.260   0.486  0.00  0.00    -0.287 OA
BRANCH  10  11
HETATM   11  P           1      -3.194   0.901   0.327  0.00  0.00     0.406 P 
HETATM   12  O           1      -2.527   2.221   0.275  0.00  0.00    -0.624 OA
HETATM   13  O           1      -4.117   0.861   1.484  0.00  0.00    -0.624 OA
BRANCH  11  14
HETATM   14  O           1      -4.027   0.665  -1.036  0.00  0.00    -0.300 OA
HETATM   15  H           1      -4.651   1.370  -1.066  0.00  0.00     0.223 HD
ENDBRANCH  11  14
ENDBRANCH  10  11
ENDBRANCH   9  10
ENDBRANCH   5   9
ENDBRANCH   2   5
BRANCH   3  16
HETATM   16  C           1       2.193  -0.086  -1.005  0.00  0.00     0.283 C 
BRANCH  16  17
HETATM   17  N           1       1.329  -0.164  -2.228  0.00  0.00    -0.066 N 
HETATM   18  H           1       1.929  -0.109  -3.082  0.00  0.00     0.275 HD
HETATM   19  H           1       0.807  -1.069  -2.228  0.00  0.00     0.275 HD
HETATM   20  H           1       0.651   0.631  -2.227  0.00  0.00     0.275 HD
ENDBRANCH  16  17
BRANCH  16  21
HETATM   21  C           1       2.956   1.233  -1.006  0.00  0.00     0.113 C 
BRANCH  21  22
HETATM   22  S           1       1.778   2.613  -1.005  0.00  0.00    -0.180 SA
HETATM   23  H           1       2.704   3.589  -1.007  0.00  0.00     0.101 HD
ENDBRANCH  21  22
ENDBRANCH  16  21
ENDBRANCH   3  16
TORSDOF 10
