REMARK  8 active torsions:
REMARK  status: ('A' for Active; 'I' for Inactive)
REMARK    1  A    between atoms: C_8  and  C_14 
REMARK    2  A    between atoms: C_8  and  C_12 
REMARK    3  A    between atoms: C_8  and  N_16 
REMARK    4  A    between atoms: C_12  and  C_26 
REMARK       I    between atoms: C_13  and  N_16 
REMARK    5  A    between atoms: C_13  and  C_22 
REMARK    6  A    between atoms: N_19  and  C_22 
REMARK    7  A    between atoms: S_20  and  C_21 
REMARK    8  A    between atoms: C_21  and  C_22 
ROOT
HETATM    1  C           1      -2.127  -0.118   1.669  0.00  0.00     0.190 C 
ENDROOT
BRANCH   1   2
HETATM    2  C           1      -3.153   0.551   2.551  0.00  0.00     0.197 C 
HETATM    3  O           1      -4.073  -0.124   3.062  0.00  0.00    -0.646 OA
HETATM    4  O           1      -3.082   1.779   2.772  0.00  0.00    -0.646 OA
ENDBRANCH   1   2
BRANCH   1   5
HETATM    5  C           1      -1.125   0.918   1.179  0.00  0.00     0.077 C 
BRANCH   5   6
HETATM    6  C           1       0.205   0.265   0.964  0.00  0.00    -0.028 A 
HETATM    7  C           1       1.391   0.906   0.509  0.00  0.00    -0.002 A 
HETATM    8  C           1       1.711   2.226   0.141  0.00  0.00     0.014 A 
HETATM    9  C           1       2.388  -0.068   0.452  0.00  0.00     0.042 A 
HETATM   10  C           1       3.015   2.525  -0.272  0.00  0.00     0.001 A 
HETATM   11  C           1       3.991   1.532  -0.320  0.00  0.00     0.002 A 
HETATM   12  C           1       3.696   0.213   0.041  0.00  0.00     0.030 A 
HETATM   13  N           1       1.819  -1.254   0.858  0.00  0.00    -0.365 N 
HETATM   14  H           1       2.324  -2.173   0.919  0.00  0.00     0.165 HD
HETATM   15  C           1       0.498  -1.064   1.170  0.00  0.00     0.096 A 
ENDBRANCH   5   6
ENDBRANCH   1   5
BRANCH   1  16
HETATM   16  N           1      -2.791  -0.723   0.531  0.00  0.00    -0.344 N 
HETATM   17  H           1      -3.796  -0.651   0.434  0.00  0.00     0.163 HD
HETATM   18  C           1      -2.059  -1.391  -0.413  0.00  0.00     0.249 C 
HETATM   19  O           1      -1.851  -2.575  -0.290  0.00  0.00    -0.271 OA
BRANCH  18  20
HETATM   20  C           1      -1.511  -0.649  -1.608  0.00  0.00     0.283 C 
BRANCH  20  21
HETATM   21  N           1      -0.592   0.440  -1.140  0.00  0.00    -0.066 N 
HETATM   22  H           1      -0.212   0.954  -1.967  0.00  0.00     0.275 HD
HETATM   23  H           1      -1.121   1.103  -0.531  0.00  0.00     0.275 HD
HETATM   24  H           1       0.197   0.021  -0.598  0.00  0.00     0.275 HD
ENDBRANCH  20  21
BRANCH  20  25
HETATM   25  C           1      -0.741  -1.616  -2.497  0.00  0.00     0.113 C 
BRANCH  25  26
HETATM   26  S           1       0.631  -2.343  -1.557  0.00  0.00    -0.180 SA
HETATM   27  H           1       1.097  -3.110  -2.558  0.00  0.00     0.101 HD
ENDBRANCH  25  26
ENDBRANCH  20  25
ENDBRANCH  18  20
ENDBRANCH   1  16
TORSDOF 8
