REMARK  8 active torsions:
REMARK  status: ('A' for Active; 'I' for Inactive)
REMARK    1  A    between atoms: C_1  and  C_17 
REMARK    2  A    between atoms: C_1  and  C_2 
REMARK    3  A    between atoms: N_8  and  C_17 
REMARK       I    between atoms: N_8  and  C_9 
REMARK    4  A    between atoms: C_9  and  C_18 
REMARK    5  A    between atoms: C_15  and  C_17 
REMARK    6  A    between atoms: C_18  and  C_19 
REMARK    7  A    between atoms: C_18  and  N_20 
REMARK    8  A    between atoms: C_19  and  S_23 
ROOT
HETATM    1  N           1       1.543   1.447  -0.133  0.00  0.00    -0.344 N 
HETATM    2  C           1       1.403   0.461   0.807  0.00  0.00     0.249 C 
HETATM    3  O           1       2.215  -0.431   0.873  0.00  0.00    -0.271 OA
HETATM    4  H           1       2.067   2.284   0.087  0.00  0.00     0.163 HD
ENDROOT
BRANCH   1   5
HETATM    5  C           1       0.941   1.291  -1.443  0.00  0.00     0.191 C 
BRANCH   5   6
HETATM    6  C           1      -0.567   1.138  -1.292  0.00  0.00     0.094 C 
BRANCH   6   7
HETATM    7  C           1      -0.909  -0.312  -1.148  0.00  0.00     0.028 A 
HETATM    8  C           1       0.008  -1.336  -1.152  0.00  0.00     0.114 A 
HETATM    9  N           1      -0.732  -2.475  -0.996  0.00  0.00    -0.360 N 
HETATM   10  C           1      -2.043  -2.103  -0.905  0.00  0.00     0.180 A 
HETATM   11  H           1      -0.361  -3.456  -0.953  0.00  0.00     0.166 HD
HETATM   12  N           1      -2.181  -0.801  -0.993  0.00  0.00    -0.354 N 
ATOM     13  HN          1      -3.049  -0.267  -0.954  1.00  0.00     0.166 HD
ENDBRANCH   6   7
ENDBRANCH   5   6
BRANCH   5  14
HETATM   14  C           1       1.242   2.509  -2.281  0.00  0.00     0.197 C 
HETATM   15  O           1       0.307   3.207  -2.729  0.00  0.00    -0.646 OA
HETATM   16  O           1       2.428   2.820  -2.529  0.00  0.00    -0.646 OA
ENDBRANCH   5  14
ENDBRANCH   1   5
BRANCH   2  17
HETATM   17  C           1       0.232   0.487   1.759  0.00  0.00     0.283 C 
BRANCH  17  18
HETATM   18  C           1       0.311  -0.713   2.694  0.00  0.00     0.113 C 
BRANCH  18  19
HETATM   19  S           1       0.263  -2.244   1.720  0.00  0.00    -0.180 SA
HETATM   20  H           1       0.345  -3.080   2.770  0.00  0.00     0.101 HD
ENDBRANCH  18  19
ENDBRANCH  17  18
BRANCH  17  21
HETATM   21  N           1      -1.047   0.430   0.979  0.00  0.00    -0.066 N 
HETATM   22  H           1      -1.859   0.448   1.638  0.00  0.00     0.275 HD
HETATM   23  H           1      -1.101   1.253   0.338  0.00  0.00     0.275 HD
HETATM   24  H           1      -1.074  -0.452   0.418  0.00  0.00     0.275 HD
ENDBRANCH  17  21
ENDBRANCH   2  17
TORSDOF 8
