REMARK  9 active torsions:
REMARK  status: ('A' for Active; 'I' for Inactive)
REMARK    1  A    between atoms: C_1  and  C_2 
REMARK    2  A    between atoms: C_2  and  C_3 
REMARK    3  A    between atoms: C_2  and  N_12 
REMARK    4  A    between atoms: C_3  and  C_15 
REMARK    5  A    between atoms: S_4  and  C_15 
REMARK    6  A    between atoms: N_7  and  C_10 
REMARK    7  A    between atoms: S_8  and  C_9 
REMARK    8  A    between atoms: C_9  and  C_10 
REMARK    9  A    between atoms: C_10  and  C_11 
REMARK       I    between atoms: C_11  and  N_12 
ROOT
HETATM    1  C           1       0.600  -1.094  -1.113  0.00  0.00     0.249 C 
HETATM    2  N           1      -0.147  -0.385  -0.211  0.00  0.00    -0.345 N 
HETATM    3  O           1       1.782  -1.257  -0.923  0.00  0.00    -0.271 OA
HETATM    4  H           1      -1.137  -0.248  -0.370  0.00  0.00     0.163 HD
ENDROOT
BRANCH   1   5
HETATM    5  C           1      -0.053  -1.673  -2.344  0.00  0.00     0.283 C 
BRANCH   5   6
HETATM    6  N           1      -0.650  -0.565  -3.160  0.00  0.00    -0.066 N 
HETATM    7  H           1      -1.102  -0.965  -4.013  0.00  0.00     0.275 HD
HETATM    8  H           1      -1.366  -0.060  -2.591  0.00  0.00     0.275 HD
HETATM    9  H           1       0.103   0.101  -3.446  0.00  0.00     0.275 HD
ENDBRANCH   5   6
BRANCH   5  10
HETATM   10  C           1       0.990  -2.410  -3.174  0.00  0.00     0.113 C 
BRANCH  10  11
HETATM   11  S           1       2.296  -1.252  -3.671  0.00  0.00    -0.180 SA
HETATM   12  H           1       3.028  -2.151  -4.353  0.00  0.00     0.101 HD
ENDBRANCH  10  11
ENDBRANCH   5  10
ENDBRANCH   1   5
BRANCH   2  13
HETATM   13  C           1       0.481   0.172   0.972  0.00  0.00     0.186 C 
BRANCH  13  14
HETATM   14  C           1       1.082  -0.943   1.793  0.00  0.00     0.196 C 
HETATM   15  O           1       1.965  -1.676   1.299  0.00  0.00    -0.646 OA
HETATM   16  O           1       0.696  -1.132   2.966  0.00  0.00    -0.646 OA
ENDBRANCH  13  14
BRANCH  13  17
HETATM   17  C           1      -0.563   0.908   1.801  0.00  0.00     0.046 C 
BRANCH  17  18
HETATM   18  C           1       0.095   1.492   3.044  0.00  0.00     0.076 C 
BRANCH  18  19
HETATM   19  S           1      -0.104   3.296   3.044  0.00  0.00    -0.173 SA
HETATM   20  C           1      -1.919   3.296   3.044  0.00  0.00     0.089 C 
ENDBRANCH  18  19
ENDBRANCH  17  18
ENDBRANCH  13  17
ENDBRANCH   2  13
TORSDOF 9
