REMARK  7 active torsions:
REMARK  status: ('A' for Active; 'I' for Inactive)
REMARK    1  A    between atoms: C_2  and  C_14 
REMARK    2  A    between atoms: C_2  and  S_3 
REMARK    3  A    between atoms: N_4  and  C_14 
REMARK    4  A    between atoms: C_7  and  C_12 
REMARK    5  A    between atoms: C_12  and  C_19 
REMARK    6  A    between atoms: C_12  and  N_16 
REMARK    7  A    between atoms: C_14  and  C_15 
REMARK       I    between atoms: C_15  and  N_16 
ROOT
HETATM    1  H           1       0.279   0.949  -0.615  0.00  0.00     0.163 HD
HETATM    2  O           1       0.530  -1.561   1.250  0.00  0.00    -0.271 OA
HETATM    3  C           1       0.701  -0.426   0.873  0.00  0.00     0.249 C 
HETATM    4  N           1       0.135  -0.001  -0.299  0.00  0.00    -0.344 N 
ENDROOT
BRANCH   3   5
HETATM    5  C           1       1.540   0.523   1.693  0.00  0.00     0.283 C 
BRANCH   5   6
HETATM    6  C           1       2.048  -0.193   2.938  0.00  0.00     0.113 C 
BRANCH   6   7
HETATM    7  S           1       0.637  -0.762   3.927  0.00  0.00    -0.180 SA
HETATM    8  H           1       1.369  -1.324   4.905  0.00  0.00     0.101 HD
ENDBRANCH   6   7
ENDBRANCH   5   6
BRANCH   5   9
HETATM    9  N           1       0.707   1.702   2.100  0.00  0.00    -0.066 N 
HETATM   10  H           1       1.287   2.360   2.668  0.00  0.00     0.275 HD
HETATM   11  H           1       0.359   2.194   1.246  0.00  0.00     0.275 HD
HETATM   12  H           1      -0.106   1.374   2.669  0.00  0.00     0.275 HD
ENDBRANCH   5   9
ENDBRANCH   3   5
BRANCH   4  13
HETATM   13  C           1      -0.671  -0.913  -1.087  0.00  0.00     0.189 C 
BRANCH  13  14
HETATM   14  C           1      -1.178  -0.196  -2.331  0.00  0.00     0.010 C 
HETATM   15  C           1      -2.701  -0.196  -2.331  0.00  0.00     0.012 C 
HETATM   16  C           1      -0.670   1.240  -2.331  0.00  0.00     0.012 C 
ENDBRANCH  13  14
BRANCH  13  17
HETATM   17  C           1       0.167  -2.099  -1.496  0.00  0.00     0.197 C 
HETATM   18  O           1       0.345  -2.351  -2.707  0.00  0.00    -0.646 OA
HETATM   19  O           1       0.684  -2.830  -0.623  0.00  0.00    -0.646 OA
ENDBRANCH  13  17
ENDBRANCH   4  13
TORSDOF 7
