REMARK  8 active torsions:
REMARK  status: ('A' for Active; 'I' for Inactive)
REMARK    1  A    between atoms: C_2  and  C_4 
REMARK    2  A    between atoms: C_4  and  C_5 
REMARK    3  A    between atoms: C_5  and  C_14 
REMARK    4  A    between atoms: C_5  and  N_11 
REMARK    5  A    between atoms: N_8  and  C_20 
REMARK    6  A    between atoms: S_9  and  C_16 
REMARK       I    between atoms: N_11  and  C_19 
REMARK    7  A    between atoms: C_16  and  C_20 
REMARK    8  A    between atoms: C_19  and  C_20 
ROOT
HETATM    1  O           1       1.388  -1.817  -0.627  0.00  0.00    -0.271 OA
HETATM    2  H           1       0.064   0.059   1.511  0.00  0.00     0.163 HD
HETATM    3  N           1       0.309  -0.289   0.593  0.00  0.00    -0.345 N 
HETATM    4  C           1       1.096  -1.402   0.470  0.00  0.00     0.249 C 
ENDROOT
BRANCH   3   5
HETATM    5  C           1      -0.174   0.393  -0.593  0.00  0.00     0.185 C 
BRANCH   5   6
HETATM    6  C           1      -1.020   1.590  -0.180  0.00  0.00     0.040 C 
BRANCH   6   7
HETATM    7  C           1      -1.527   2.307  -1.424  0.00  0.00    -0.020 C 
HETATM    8  C           1      -3.050   2.307  -1.424  0.00  0.00     0.009 C 
HETATM    9  C           1      -1.019   3.743  -1.424  0.00  0.00     0.009 C 
ENDBRANCH   6   7
ENDBRANCH   5   6
BRANCH   5  10
HETATM   10  C           1       1.001   0.865  -1.414  0.00  0.00     0.196 C 
HETATM   11  O           1       1.148   2.084  -1.651  0.00  0.00    -0.646 OA
HETATM   12  O           1       1.827   0.038  -1.856  0.00  0.00    -0.646 OA
ENDBRANCH   5  10
ENDBRANCH   3   5
BRANCH   4  13
HETATM   13  C           1       1.598  -2.111   1.703  0.00  0.00     0.283 C 
BRANCH  13  14
HETATM   14  N           1       0.430  -2.581   2.519  0.00  0.00    -0.066 N 
HETATM   15  H           1       0.777  -3.073   3.374  0.00  0.00     0.275 HD
HETATM   16  H           1      -0.150  -1.760   2.802  0.00  0.00     0.275 HD
HETATM   17  H           1      -0.149  -3.239   1.950  0.00  0.00     0.275 HD
ENDBRANCH  13  14
BRANCH  13  18
HETATM   18  C           1       2.444  -3.309   1.292  0.00  0.00     0.113 C 
BRANCH  18  19
HETATM   19  S           1       1.438  -4.452   0.306  0.00  0.00    -0.180 SA
HETATM   20  H           1       2.411  -5.358   0.104  0.00  0.00     0.101 HD
ENDBRANCH  18  19
ENDBRANCH  13  18
ENDBRANCH   4  13
TORSDOF 8
