REMARK  9 active torsions:
REMARK  status: ('A' for Active; 'I' for Inactive)
REMARK       I    between atoms: C_5  and  N_10 
REMARK    1  A    between atoms: C_5  and  C_6 
REMARK    2  A    between atoms: C_6  and  C_7 
REMARK    3  A    between atoms: C_6  and  N_8 
REMARK    4  A    between atoms: C_7  and  S_21 
REMARK    5  A    between atoms: N_10  and  C_15 
REMARK    6  A    between atoms: C_13  and  C_20 
REMARK    7  A    between atoms: C_13  and  C_14 
REMARK    8  A    between atoms: C_14  and  C_15 
REMARK    9  A    between atoms: C_15  and  C_16 
ROOT
HETATM    1  C           1      -0.731   0.615   0.728  0.00  0.00     0.249 C 
HETATM    2  O           1      -0.738  -0.184   1.635  0.00  0.00    -0.271 OA
HETATM    3  N           1       0.165   0.478  -0.298  0.00  0.00    -0.345 N 
HETATM    4  H           1       0.171   1.147  -1.057  0.00  0.00     0.163 HD
ENDROOT
BRANCH   3   5
HETATM    5  C           1       1.106  -0.626  -0.297  0.00  0.00     0.186 C 
BRANCH   5   6
HETATM    6  C           1       1.982  -0.546  -1.540  0.00  0.00     0.046 C 
BRANCH   6   7
HETATM    7  C           1       2.971  -1.704  -1.540  0.00  0.00     0.116 C 
BRANCH   7   8
HETATM    8  C           1       2.216  -3.011  -1.540  0.00  0.00     0.172 C 
HETATM    9  O           1       2.841  -4.093  -1.540  0.00  0.00    -0.648 OA
HETATM   10  O           1       0.966  -3.011  -1.540  0.00  0.00    -0.648 OA
ENDBRANCH   7   8
ENDBRANCH   6   7
ENDBRANCH   5   6
BRANCH   5  11
HETATM   11  C           1       1.972  -0.546   0.936  0.00  0.00     0.196 C 
HETATM   12  O           1       1.450  -0.593   2.071  0.00  0.00    -0.646 OA
HETATM   13  O           1       3.212  -0.433   0.822  0.00  0.00    -0.646 OA
ENDBRANCH   5  11
ENDBRANCH   3   5
BRANCH   1  14
HETATM   14  C           1      -1.710   1.763   0.727  0.00  0.00     0.283 C 
BRANCH  14  15
HETATM   15  C           1      -2.586   1.685   1.970  0.00  0.00     0.113 C 
BRANCH  15  16
HETATM   16  S           1      -3.497   0.115   1.971  0.00  0.00    -0.180 SA
HETATM   17  H           1      -4.147   0.330   3.129  0.00  0.00     0.101 HD
ENDBRANCH  15  16
ENDBRANCH  14  15
BRANCH  14  18
HETATM   18  N           1      -2.572   1.684  -0.498  0.00  0.00    -0.066 N 
HETATM   19  H           1      -3.095   0.779  -0.497  0.00  0.00     0.275 HD
HETATM   20  H           1      -1.970   1.738  -1.350  0.00  0.00     0.275 HD
HETATM   21  H           1      -3.250   2.479  -0.499  0.00  0.00     0.275 HD
ENDBRANCH  14  18
ENDBRANCH   1  14
TORSDOF 9
