REMARK  10 active torsions:
REMARK  status: ('A' for Active; 'I' for Inactive)
REMARK    1  A    between atoms: C_1  and  C_2 
REMARK    2  A    between atoms: C_1  and  S_20 
REMARK    3  A    between atoms: C_2  and  C_3 
REMARK    4  A    between atoms: C_2  and  N_19 
REMARK       I    between atoms: C_3  and  N_22 
REMARK    5  A    between atoms: C_8  and  C_9 
REMARK    6  A    between atoms: C_8  and  C_11 
REMARK    7  A    between atoms: C_8  and  N_22 
REMARK    8  A    between atoms: C_9  and  C_13 
REMARK    9  A    between atoms: C_13  and  C_14 
REMARK   10  A    between atoms: C_14  and  N_15 
ROOT
HETATM    1  C           1       0.809   1.153   1.297  0.00  0.00     0.249 C 
HETATM    2  O           1       1.997   1.042   1.107  0.00  0.00    -0.271 OA
HETATM    3  N           1      -0.080   0.632   0.396  0.00  0.00    -0.345 N 
HETATM    4  H           1      -1.075   0.726   0.555  0.00  0.00     0.163 HD
ENDROOT
BRANCH   3   5
HETATM    5  C           1       0.404  -0.053  -0.787  0.00  0.00     0.185 C 
BRANCH   5   6
HETATM    6  C           1      -0.780  -0.531  -1.616  0.00  0.00     0.038 C 
BRANCH   6   7
HETATM    7  C           1      -0.273  -1.250  -2.860  0.00  0.00     0.030 C 
BRANCH   7   8
HETATM    8  C           1      -0.782  -2.685  -2.860  0.00  0.00     0.230 C 
BRANCH   8   9
HETATM    9  N           1      -2.282  -2.685  -2.860  0.00  0.00    -0.079 N 
HETATM   10  H           1      -2.630  -2.193  -2.006  0.00  0.00     0.274 HD
HETATM   11  H           1      -2.631  -3.671  -2.860  0.00  0.00     0.274 HD
HETATM   12  H           1      -2.630  -2.193  -3.713  0.00  0.00     0.274 HD
ENDBRANCH   8   9
ENDBRANCH   7   8
ENDBRANCH   6   7
ENDBRANCH   5   6
BRANCH   5  13
HETATM   13  C           1       1.244   0.895  -1.608  0.00  0.00     0.196 C 
HETATM   14  O           1       2.271   1.408  -1.114  0.00  0.00    -0.646 OA
HETATM   15  O           1       0.912   1.168  -2.782  0.00  0.00    -0.646 OA
ENDBRANCH   5  13
ENDBRANCH   3   5
BRANCH   1  16
HETATM   16  C           1       0.306   1.866   2.528  0.00  0.00     0.283 C 
BRANCH  16  17
HETATM   17  C           1       1.489   2.345   3.358  0.00  0.00     0.113 C 
BRANCH  17  18
HETATM   18  S           1       2.497   0.919   3.856  0.00  0.00    -0.180 SA
HETATM   19  H           1       3.415   1.627   4.538  0.00  0.00     0.101 HD
ENDBRANCH  17  18
ENDBRANCH  16  17
BRANCH  16  20
HETATM   20  N           1      -0.528   0.923   3.345  0.00  0.00    -0.066 N 
HETATM   21  H           1       0.052   0.103   3.630  0.00  0.00     0.275 HD
HETATM   22  H           1      -1.341   0.595   2.775  0.00  0.00     0.275 HD
HETATM   23  H           1      -0.878   1.416   4.198  0.00  0.00     0.275 HD
ENDBRANCH  16  20
ENDBRANCH   1  16
TORSDOF 10
