REMARK  8 active torsions:
REMARK  status: ('A' for Active; 'I' for Inactive)
REMARK    1  A    between atoms: N_4  and  C_7 
REMARK    2  A    between atoms: S_5  and  C_6 
REMARK    3  A    between atoms: C_6  and  C_7 
REMARK    4  A    between atoms: C_7  and  C_8 
REMARK       I    between atoms: C_8  and  N_9 
REMARK    5  A    between atoms: N_9  and  C_18 
REMARK    6  A    between atoms: C_18  and  C_20 
REMARK    7  A    between atoms: C_18  and  C_22 
REMARK    8  A    between atoms: C_22  and  C_23 
ROOT
HETATM    1  C           1       1.592   0.191   1.063  0.00  0.00     0.249 C 
HETATM    2  N           1       2.225   0.819   0.024  0.00  0.00    -0.344 N 
HETATM    3  O           1       1.965  -0.899   1.427  0.00  0.00    -0.271 OA
HETATM    4  H           1       3.011   1.429   0.205  0.00  0.00     0.163 HD
ENDROOT
BRANCH   2   5
HETATM    5  C           1       1.767   0.610  -1.336  0.00  0.00     0.189 C 
BRANCH   5   6
HETATM    6  C           1       2.627   1.409  -2.284  0.00  0.00     0.197 C 
HETATM    7  O           1       3.857   1.195  -2.343  0.00  0.00    -0.646 OA
HETATM    8  O           1       2.110   2.285  -3.010  0.00  0.00    -0.646 OA
ENDBRANCH   5   6
BRANCH   5   9
HETATM    9  C           1       0.318   1.063  -1.459  0.00  0.00     0.074 C 
BRANCH   9  10
HETATM   10  C           1      -0.592  -0.086  -1.154  0.00  0.00    -0.056 A 
HETATM   11  C           1      -0.057  -1.330  -0.822  0.00  0.00     0.007 A 
HETATM   12  C           1      -0.906  -2.401  -0.538  0.00  0.00     0.001 A 
HETATM   13  C           1      -2.289  -2.226  -0.587  0.00  0.00     0.000 A 
HETATM   14  C           1      -2.823  -0.981  -0.919  0.00  0.00     0.001 A 
HETATM   15  C           1      -1.975   0.089  -1.203  0.00  0.00     0.007 A 
ENDBRANCH   9  10
ENDBRANCH   5   9
ENDBRANCH   2   5
BRANCH   1  16
HETATM   16  C           1       0.429   0.861   1.753  0.00  0.00     0.283 C 
BRANCH  16  17
HETATM   17  N           1      -0.666   1.109   0.759  0.00  0.00    -0.066 N 
HETATM   18  H           1      -1.472   1.572   1.236  0.00  0.00     0.275 HD
HETATM   19  H           1      -0.310   1.728  -0.003  0.00  0.00     0.275 HD
HETATM   20  H           1      -0.980   0.198   0.352  0.00  0.00     0.275 HD
ENDBRANCH  16  17
BRANCH  16  21
HETATM   21  C           1      -0.090  -0.042   2.865  0.00  0.00     0.113 C 
BRANCH  21  22
HETATM   22  S           1      -0.636  -1.622   2.158  0.00  0.00    -0.180 SA
HETATM   23  H           1      -1.019  -2.172   3.324  0.00  0.00     0.101 HD
ENDBRANCH  21  22
ENDBRANCH  16  21
ENDBRANCH   1  16
TORSDOF 8
