REMARK  10 active torsions:
REMARK  status: ('A' for Active; 'I' for Inactive)
REMARK    1  A    between atoms: S_5  and  C_6 
REMARK    2  A    between atoms: C_6  and  C_28 
REMARK    3  A    between atoms: C_7  and  C_8 
REMARK    4  A    between atoms: C_7  and  C_19 
REMARK    5  A    between atoms: C_7  and  N_15 
REMARK    6  A    between atoms: C_8  and  C_9 
REMARK    7  A    between atoms: C_9  and  C_10 
REMARK    8  A    between atoms: C_10  and  N_11 
REMARK       I    between atoms: N_11  and  C_13 
REMARK       I    between atoms: N_12  and  C_13 
REMARK       I    between atoms: C_14  and  N_15 
REMARK    9  A    between atoms: C_14  and  C_28 
REMARK   10  A    between atoms: N_21  and  C_28 
ROOT
HETATM    1  C           1       1.526   0.706   0.185  0.00  0.00     0.185 C 
ENDROOT
BRANCH   1   2
HETATM    2  C           1       2.371  -0.491   0.601  0.00  0.00     0.038 C 
BRANCH   2   3
HETATM    3  C           1       1.525  -1.448   1.430  0.00  0.00     0.023 C 
BRANCH   3   4
HETATM    4  C           1       1.017  -0.730   2.673  0.00  0.00     0.138 C 
BRANCH   4   5
HETATM    5  N           1      -0.453  -0.730   2.673  0.00  0.00    -0.227 N 
HETATM    6  C           1      -1.086  -1.826   2.673  0.00  0.00     0.665 C 
HETATM    7  N           1      -0.453  -2.923   2.673  0.00  0.00    -0.235 N 
HETATM    8  N           1      -2.386  -1.826   2.673  0.00  0.00    -0.235 N 
HETATM    9  H           1       0.597  -2.923   2.673  0.00  0.00     0.174 HD
HETATM   10  H           1      -0.978  -3.832   2.673  0.00  0.00     0.174 HD
HETATM   11  H           1      -2.909  -0.921   2.673  0.00  0.00     0.174 HD
HETATM   12  H           1      -2.909  -2.731   2.673  0.00  0.00     0.174 HD
HETATM   13  H           1      -0.978   0.179   2.673  0.00  0.00     0.177 HD
ENDBRANCH   4   5
ENDBRANCH   3   4
ENDBRANCH   2   3
ENDBRANCH   1   2
BRANCH   1  14
HETATM   14  C           1       2.408   1.922   0.048  0.00  0.00     0.196 C 
HETATM   15  O           1       3.635   1.833   0.269  0.00  0.00    -0.646 OA
HETATM   16  O           1       1.912   3.019  -0.288  0.00  0.00    -0.646 OA
ENDBRANCH   1  14
BRANCH   1  17
HETATM   17  N           1       0.887   0.427  -1.086  0.00  0.00    -0.345 N 
HETATM   18  H           1       1.044  -0.460  -1.548  0.00  0.00     0.163 HD
HETATM   19  C           1       0.072   1.364  -1.663  0.00  0.00     0.249 C 
HETATM   20  O           1      -0.115   2.423  -1.112  0.00  0.00    -0.271 OA
BRANCH  19  21
HETATM   21  C           1      -0.593   1.074  -2.986  0.00  0.00     0.283 C 
BRANCH  21  22
HETATM   22  C           1      -1.439   2.270  -3.403  0.00  0.00     0.113 C 
BRANCH  22  23
HETATM   23  S           1      -2.709   2.582  -2.144  0.00  0.00    -0.180 SA
HETATM   24  H           1      -3.264   3.639  -2.763  0.00  0.00     0.101 HD
ENDBRANCH  22  23
ENDBRANCH  21  22
BRANCH  21  25
HETATM   25  N           1      -1.471  -0.135  -2.849  0.00  0.00    -0.066 N 
HETATM   26  H           1      -0.890  -0.956  -2.564  0.00  0.00     0.275 HD
HETATM   27  H           1      -1.932  -0.337  -3.765  0.00  0.00     0.275 HD
HETATM   28  H           1      -2.201   0.045  -2.124  0.00  0.00     0.275 HD
ENDBRANCH  21  25
ENDBRANCH  19  21
ENDBRANCH   1  17
TORSDOF 10
