REMARK  8 active torsions:
REMARK  status: ('A' for Active; 'I' for Inactive)
REMARK       I    between atoms: C_1  and  N_6 
REMARK    1  A    between atoms: C_1  and  C_15 
REMARK    2  A    between atoms: C_5  and  C_20 
REMARK    3  A    between atoms: N_6  and  C_20 
REMARK    4  A    between atoms: C_12  and  C_17 
REMARK    5  A    between atoms: S_13  and  C_14 
REMARK    6  A    between atoms: C_14  and  C_15 
REMARK    7  A    between atoms: C_15  and  N_16 
REMARK    8  A    between atoms: C_17  and  C_20 
ROOT
HETATM    1  C           1      -0.239   0.731   0.109  0.00  0.00     0.249 C 
HETATM    2  O           1      -1.447   0.733   0.108  0.00  0.00    -0.271 OA
HETATM    3  H           1       1.456  -0.456   0.109  0.00  0.00     0.163 HD
HETATM    4  N           1       0.444  -0.455   0.108  0.00  0.00    -0.344 N 
ENDROOT
BRANCH   1   5
HETATM    5  C           1       0.516   2.037   0.109  0.00  0.00     0.283 C 
BRANCH   5   6
HETATM    6  C           1      -0.472   3.197   0.109  0.00  0.00     0.113 C 
BRANCH   6   7
HETATM    7  S           1      -1.515   3.103  -1.373  0.00  0.00    -0.180 SA
HETATM    8  H           1      -2.244   4.200  -1.101  0.00  0.00     0.101 HD
ENDBRANCH   6   7
ENDBRANCH   5   6
BRANCH   5   9
HETATM    9  N           1       1.379   2.116  -1.116  0.00  0.00    -0.066 N 
HETATM   10  H           1       1.902   3.020  -1.116  0.00  0.00     0.275 HD
HETATM   11  H           1       2.057   1.321  -1.115  0.00  0.00     0.275 HD
HETATM   12  H           1       0.777   2.062  -1.969  0.00  0.00     0.275 HD
ENDBRANCH   5   9
ENDBRANCH   1   5
BRANCH   4  13
HETATM   13  C           1      -0.282  -1.710   0.107  0.00  0.00     0.195 C 
BRANCH  13  14
HETATM   14  C           1      -1.150  -1.789   1.339  0.00  0.00     0.197 C 
HETATM   15  O           1      -2.035  -0.928   1.537  0.00  0.00    -0.646 OA
HETATM   16  O           1      -0.985  -2.715   2.163  0.00  0.00    -0.646 OA
ENDBRANCH  13  14
BRANCH  13  17
HETATM   17  C           1       0.707  -2.868   0.107  0.00  0.00     0.149 C 
BRANCH  17  18
HETATM   18  C           1      -0.048  -4.175   0.107  0.00  0.00     0.175 C 
HETATM   19  O           1      -1.298  -4.175   0.107  0.00  0.00    -0.648 OA
HETATM   20  O           1       0.577  -5.257   0.107  0.00  0.00    -0.648 OA
ENDBRANCH  17  18
ENDBRANCH  13  17
ENDBRANCH   4  13
TORSDOF 8
