REMARK  6 active torsions:
REMARK  status: ('A' for Active; 'I' for Inactive)
REMARK    1  A    between atoms: N_2  and  C_9 
REMARK       I    between atoms: N_2  and  C_15 
REMARK    2  A    between atoms: C_9  and  C_10 
REMARK    3  A    between atoms: C_13  and  C_14 
REMARK    4  A    between atoms: C_13  and  S_16 
REMARK    5  A    between atoms: C_14  and  C_15 
REMARK    6  A    between atoms: C_14  and  N_17 
ROOT
HETATM    1  O           1       1.212   0.560  -0.737  0.00  0.00    -0.271 OA
HETATM    2  N           1      -0.919   0.227  -0.159  0.00  0.00    -0.345 N 
HETATM    3  H           1      -1.577  -0.157   0.507  0.00  0.00     0.163 HD
HETATM    4  C           1       0.427   0.102   0.058  0.00  0.00     0.249 C 
ENDROOT
BRANCH   4   5
HETATM    5  C           1       0.929  -0.609   1.291  0.00  0.00     0.283 C 
BRANCH   5   6
HETATM    6  C           1       2.452  -0.609   1.292  0.00  0.00     0.113 C 
BRANCH   6   7
HETATM    7  S           1       3.059  -1.466  -0.188  0.00  0.00    -0.180 SA
HETATM    8  H           1       4.367  -1.310   0.085  0.00  0.00     0.101 HD
ENDBRANCH   6   7
ENDBRANCH   5   6
BRANCH   5   9
HETATM    9  N           1       0.429  -2.023   1.290  0.00  0.00    -0.066 N 
HETATM   10  H           1       0.776  -2.516   2.144  0.00  0.00     0.275 HD
HETATM   11  H           1      -0.616  -2.022   1.290  0.00  0.00     0.275 HD
HETATM   12  H           1       0.778  -2.515   0.437  0.00  0.00     0.275 HD
ENDBRANCH   5   9
ENDBRANCH   4   5
BRANCH   2  13
HETATM   13  C           1      -1.402   0.910  -1.344  0.00  0.00     0.181 C 
HETATM   14  C           1      -2.925   0.910  -1.344  0.00  0.00     0.043 C 
BRANCH  13  15
HETATM   15  C           1      -0.898   2.333  -1.344  0.00  0.00     0.196 C 
HETATM   16  O           1      -1.710   3.283  -1.344  0.00  0.00    -0.646 OA
HETATM   17  O           1       0.331   2.561  -1.344  0.00  0.00    -0.646 OA
ENDBRANCH  13  15
ENDBRANCH   2  13
TORSDOF 6
