REMARK  6 active torsions:
REMARK  status: ('A' for Active; 'I' for Inactive)
REMARK    1  A    between atoms: C_5  and  C_13 
REMARK    2  A    between atoms: C_5  and  N_6 
REMARK       I    between atoms: N_6  and  C_7 
REMARK    3  A    between atoms: C_7  and  C_8 
REMARK    4  A    between atoms: C_8  and  C_9 
REMARK    5  A    between atoms: C_8  and  N_11 
REMARK    6  A    between atoms: C_9  and  S_10 
ROOT
HETATM    1  N           1      -0.049  -1.257  -0.316  0.00  0.00    -0.349 N 
HETATM    2  C           1       0.408   0.033  -0.316  0.00  0.00     0.249 C 
HETATM    3  O           1       1.595   0.253  -0.316  0.00  0.00    -0.271 OA
HETATM    4  H           1      -1.044  -1.442  -0.316  0.00  0.00     0.163 HD
ENDROOT
BRANCH   2   5
HETATM    5  C           1      -0.572   1.180  -0.316  0.00  0.00     0.283 C 
BRANCH   5   6
HETATM    6  C           1       0.189   2.499  -0.316  0.00  0.00     0.113 C 
BRANCH   6   7
HETATM    7  S           1       1.233   2.596   1.166  0.00  0.00    -0.180 SA
HETATM    8  H           1       1.751   3.808   0.894  0.00  0.00     0.101 HD
ENDBRANCH   6   7
ENDBRANCH   5   6
BRANCH   5   9
HETATM    9  N           1      -1.434   1.101   0.910  0.00  0.00    -0.066 N 
HETATM   10  H           1      -2.113   1.896   0.911  0.00  0.00     0.275 HD
HETATM   11  H           1      -1.957   0.197   0.909  0.00  0.00     0.275 HD
HETATM   12  H           1      -0.832   1.157   1.762  0.00  0.00     0.275 HD
ENDBRANCH   5   9
ENDBRANCH   2   5
BRANCH   1  13
HETATM   13  C           1       0.892  -2.360  -0.316  0.00  0.00     0.235 C 
BRANCH  13  14
HETATM   14  C           1       0.138  -3.667  -0.316  0.00  0.00     0.191 C 
HETATM   15  O           1       0.763  -4.749  -0.316  0.00  0.00    -0.647 OA
HETATM   16  O           1      -1.112  -3.667  -0.316  0.00  0.00    -0.647 OA
ENDBRANCH  13  14
ENDBRANCH   1  13
TORSDOF 6
