REMARK  8 active torsions:
REMARK  status: ('A' for Active; 'I' for Inactive)
REMARK    1  A    between atoms: C_1  and  C_13 
REMARK    2  A    between atoms: C_1  and  C_3 
REMARK    3  A    between atoms: C_3  and  C_4 
REMARK    4  A    between atoms: C_3  and  N_9 
REMARK    5  A    between atoms: N_6  and  C_14 
REMARK       I    between atoms: N_9  and  C_19 
REMARK    6  A    between atoms: C_14  and  C_19 
REMARK    7  A    between atoms: C_14  and  C_15 
REMARK    8  A    between atoms: C_15  and  S_16 
ROOT
HETATM    1  O           1      -0.023   1.538  -1.697  0.00  0.00    -0.271 OA
HETATM    2  N           1       0.375  -0.023  -0.149  0.00  0.00    -0.344 N 
HETATM    3  H           1       0.232  -0.974   0.166  0.00  0.00     0.163 HD
HETATM    4  C           1      -0.193   0.402  -1.320  0.00  0.00     0.249 C 
ENDROOT
BRANCH   2   5
HETATM    5  C           1       1.180   0.889   0.639  0.00  0.00     0.189 C 
BRANCH   5   6
HETATM    6  C           1       1.689   0.171   1.883  0.00  0.00     0.014 C 
HETATM    7  C           1       1.182   0.890   3.126  0.00  0.00     0.012 C 
BRANCH   6   8
HETATM    8  C           1       1.180  -1.264   1.883  0.00  0.00     0.002 C 
HETATM    9  C           1      -0.343  -1.264   1.883  0.00  0.00     0.005 C 
ENDBRANCH   6   8
ENDBRANCH   5   6
BRANCH   5  10
HETATM   10  C           1       2.353   1.363  -0.184  0.00  0.00     0.197 C 
HETATM   11  O           1       2.157   1.981  -1.253  0.00  0.00    -0.646 OA
HETATM   12  O           1       3.520   1.139   0.204  0.00  0.00    -0.646 OA
ENDBRANCH   5  10
ENDBRANCH   2   5
BRANCH   4  13
HETATM   13  C           1      -1.031  -0.547  -2.141  0.00  0.00     0.283 C 
BRANCH  13  14
HETATM   14  N           1      -2.197  -1.017  -1.323  0.00  0.00    -0.066 N 
HETATM   15  H           1      -2.779  -1.675  -1.890  0.00  0.00     0.275 HD
HETATM   16  H           1      -1.848  -1.510  -0.470  0.00  0.00     0.275 HD
HETATM   17  H           1      -2.778  -0.196  -1.039  0.00  0.00     0.275 HD
ENDBRANCH  13  14
BRANCH  13  18
HETATM   18  C           1      -1.540   0.170  -3.384  0.00  0.00     0.113 C 
BRANCH  18  19
HETATM   19  S           1      -2.550   1.596  -2.892  0.00  0.00    -0.180 SA
HETATM   20  H           1      -2.839   2.001  -4.141  0.00  0.00     0.101 HD
ENDBRANCH  18  19
ENDBRANCH  13  18
ENDBRANCH   4  13
TORSDOF 8
