REMARK  5 active torsions:
REMARK  status: ('A' for Active; 'I' for Inactive)
REMARK    1  A    between atoms: N_3  and  C_6 
REMARK    2  A    between atoms: S_4  and  C_5 
REMARK    3  A    between atoms: C_5  and  C_6 
REMARK    4  A    between atoms: C_6  and  C_7 
REMARK       I    between atoms: C_7  and  N_8 
REMARK    5  A    between atoms: C_14  and  C_18 
ROOT
HETATM    1  C           1      -0.303  -1.547  -0.025  0.00  0.00     0.127 C 
HETATM    2  O           1       0.001   1.955   0.806  0.00  0.00    -0.271 OA
HETATM    3  C           1       0.356   0.857   0.451  0.00  0.00     0.252 C 
HETATM    4  N           1      -0.551  -0.166   0.379  0.00  0.00    -0.336 N 
HETATM    5  C           1      -2.615  -0.955  -0.402  0.00  0.00     0.038 C 
HETATM    6  C           1      -1.516  -1.902  -0.869  0.00  0.00     0.022 C 
HETATM    7  C           1      -1.977  -0.114   0.689  0.00  0.00     0.188 C 
ENDROOT
BRANCH   3   8
HETATM    8  C           1       1.800   0.612   0.088  0.00  0.00     0.283 C 
BRANCH   8   9
HETATM    9  N           1       1.886   0.152  -1.337  0.00  0.00    -0.066 N 
HETATM   10  H           1       2.885  -0.018  -1.589  0.00  0.00     0.275 HD
HETATM   11  H           1       1.343  -0.734  -1.450  0.00  0.00     0.275 HD
HETATM   12  H           1       1.488   0.888  -1.964  0.00  0.00     0.275 HD
ENDBRANCH   8   9
BRANCH   8  13
HETATM   13  C           1       2.592   1.902   0.253  0.00  0.00     0.113 C 
BRANCH  13  14
HETATM   14  S           1       1.903   3.179  -0.837  0.00  0.00    -0.180 SA
HETATM   15  H           1       2.767   4.147  -0.484  0.00  0.00     0.101 HD
ENDBRANCH  13  14
ENDBRANCH   8  13
ENDBRANCH   3   8
BRANCH   7  16
HETATM   16  C           1      -2.252  -0.702   2.051  0.00  0.00     0.196 C 
HETATM   17  O           1      -1.310  -1.148   2.741  0.00  0.00    -0.646 OA
HETATM   18  O           1      -3.422  -0.744   2.489  0.00  0.00    -0.646 OA
ENDBRANCH   7  16
TORSDOF 5
