REMARK  8 active torsions:
REMARK  status: ('A' for Active; 'I' for Inactive)
REMARK    1  A    between atoms: C_2  and  C_3 
REMARK    2  A    between atoms: C_3  and  C_6 
REMARK    3  A    between atoms: C_3  and  N_17 
REMARK    4  A    between atoms: C_12  and  C_23 
REMARK       I    between atoms: C_12  and  N_20 
REMARK    5  A    between atoms: N_14  and  C_19 
REMARK       I    between atoms: N_17  and  C_22 
REMARK    6  A    between atoms: C_18  and  C_19 
REMARK    7  A    between atoms: C_18  and  C_23 
REMARK    8  A    between atoms: C_19  and  C_22 
ROOT
HETATM    1  C           1       1.497   0.887   1.008  0.00  0.00     0.275 C 
ENDROOT
BRANCH   1   2
HETATM    2  N           1       0.663   2.066   1.415  0.00  0.00    -0.066 N 
HETATM    3  H           1      -0.149   1.738   1.984  0.00  0.00     0.275 HD
HETATM    4  H           1       0.316   2.558   0.561  0.00  0.00     0.275 HD
HETATM    5  H           1       1.243   2.724   1.983  0.00  0.00     0.275 HD
ENDBRANCH   1   2
BRANCH   1   6
HETATM    6  C           1       2.005   0.171   2.253  0.00  0.00     0.052 C 
BRANCH   6   7
HETATM    7  C           1       0.821  -0.306   3.083  0.00  0.00     0.105 C 
BRANCH   7   8
HETATM    8  C           1       0.876  -1.808   3.223  0.00  0.00     0.215 C 
HETATM    9  N           1      -0.092  -2.465   3.933  0.00  0.00    -0.370 N 
HETATM   10  H           1      -0.055  -3.472   4.027  0.00  0.00     0.159 HD
HETATM   11  H           1      -0.845  -1.944   4.365  0.00  0.00     0.159 HD
HETATM   12  O           1       1.774  -2.429   2.708  0.00  0.00    -0.274 OA
ENDBRANCH   7   8
ENDBRANCH   6   7
ENDBRANCH   1   6
BRANCH   1  13
HETATM   13  C           1       0.658  -0.062   0.188  0.00  0.00     0.249 C 
HETATM   14  O           1       0.486  -1.197   0.565  0.00  0.00    -0.271 OA
HETATM   15  N           1       0.092   0.363  -0.984  0.00  0.00    -0.344 N 
HETATM   16  H           1       0.236   1.313  -1.300  0.00  0.00     0.163 HD
BRANCH  15  17
HETATM   17  C           1      -0.714  -0.549  -1.772  0.00  0.00     0.189 C 
BRANCH  17  18
HETATM   18  C           1       0.124  -1.735  -2.181  0.00  0.00     0.197 C 
HETATM   19  O           1       0.302  -1.987  -3.392  0.00  0.00    -0.646 OA
HETATM   20  O           1       0.641  -2.466  -1.308  0.00  0.00    -0.646 OA
ENDBRANCH  17  18
BRANCH  17  21
HETATM   21  C           1      -1.221   0.168  -3.016  0.00  0.00     0.010 C 
HETATM   22  C           1      -2.744   0.168  -3.016  0.00  0.00     0.012 C 
HETATM   23  C           1      -0.713   1.604  -3.016  0.00  0.00     0.012 C 
ENDBRANCH  17  21
ENDBRANCH  15  17
ENDBRANCH   1  13
TORSDOF 8
