REMARK  9 active torsions:
REMARK  status: ('A' for Active; 'I' for Inactive)
REMARK       I    between atoms: N_2  and  C_3 
REMARK    1  A    between atoms: C_3  and  C_4 
REMARK    2  A    between atoms: C_4  and  C_5 
REMARK    3  A    between atoms: C_5  and  C_6 
REMARK    4  A    between atoms: C_6  and  C_7 
REMARK    5  A    between atoms: C_6  and  N_18 
REMARK       I    between atoms: C_7  and  N_24 
REMARK    6  A    between atoms: C_9  and  C_16 
REMARK    7  A    between atoms: C_9  and  C_22 
REMARK    8  A    between atoms: C_9  and  N_24 
REMARK    9  A    between atoms: O_10  and  C_16 
ROOT
HETATM    1  C           1       1.441   1.020   0.831  0.00  0.00     0.275 C 
ENDROOT
BRANCH   1   2
HETATM    2  C           1       1.948   0.304   2.075  0.00  0.00     0.052 C 
BRANCH   2   3
HETATM    3  C           1       0.764  -0.173   2.906  0.00  0.00     0.105 C 
BRANCH   3   4
HETATM    4  C           1       0.820  -1.674   3.045  0.00  0.00     0.215 C 
HETATM    5  O           1       1.718  -2.296   2.531  0.00  0.00    -0.274 OA
HETATM    6  N           1      -0.149  -2.332   3.756  0.00  0.00    -0.370 N 
HETATM    7  H           1      -0.111  -3.339   3.850  0.00  0.00     0.159 HD
HETATM    8  H           1      -0.901  -1.811   4.187  0.00  0.00     0.159 HD
ENDBRANCH   3   4
ENDBRANCH   2   3
ENDBRANCH   1   2
BRANCH   1   9
HETATM    9  C           1       0.602   0.071   0.010  0.00  0.00     0.249 C 
HETATM   10  N           1       0.035   0.496  -1.161  0.00  0.00    -0.343 N 
HETATM   11  H           1       0.179   1.447  -1.477  0.00  0.00     0.163 HD
HETATM   12  O           1       0.430  -1.063   0.388  0.00  0.00    -0.271 OA
BRANCH  10  13
HETATM   13  C           1      -0.771  -0.416  -1.950  0.00  0.00     0.214 C 
BRANCH  13  14
HETATM   14  C           1      -1.277   0.301  -3.194  0.00  0.00     0.147 C 
HETATM   15  C           1      -2.800   0.301  -3.194  0.00  0.00     0.042 C 
BRANCH  14  16
HETATM   16  O           1      -0.809   1.623  -3.194  0.00  0.00    -0.393 OA
HETATM   17  H           1       0.132   1.580  -3.194  0.00  0.00     0.210 HD
ENDBRANCH  14  16
ENDBRANCH  13  14
BRANCH  13  18
HETATM   18  C           1       0.068  -1.602  -2.358  0.00  0.00     0.199 C 
HETATM   19  O           1       0.584  -2.333  -1.486  0.00  0.00    -0.646 OA
HETATM   20  O           1       0.246  -1.854  -3.570  0.00  0.00    -0.646 OA
ENDBRANCH  13  18
ENDBRANCH  10  13
ENDBRANCH   1   9
BRANCH   1  21
HETATM   21  N           1       0.607   2.199   1.238  0.00  0.00    -0.066 N 
HETATM   22  H           1      -0.205   1.871   1.807  0.00  0.00     0.275 HD
HETATM   23  H           1       1.187   2.857   1.806  0.00  0.00     0.275 HD
HETATM   24  H           1       0.259   2.691   0.384  0.00  0.00     0.275 HD
ENDBRANCH   1  21
TORSDOF 9
