REMARK  7 active torsions:
REMARK  status: ('A' for Active; 'I' for Inactive)
REMARK    1  A    between atoms: C_1  and  C_7 
REMARK    2  A    between atoms: C_1  and  C_21 
REMARK    3  A    between atoms: C_1  and  N_6 
REMARK    4  A    between atoms: N_3  and  C_10 
REMARK       I    between atoms: N_3  and  C_7 
REMARK    5  A    between atoms: C_10  and  C_16 
REMARK       I    between atoms: N_18  and  C_19 
REMARK    6  A    between atoms: C_19  and  C_20 
REMARK    7  A    between atoms: C_20  and  C_21 
ROOT
HETATM    1  C           1       0.179  -0.449   1.554  0.00  0.00     0.275 C 
ENDROOT
BRANCH   1   2
HETATM    2  C           1      -0.324   0.262   0.322  0.00  0.00     0.249 C 
HETATM    3  N           1      -1.669   0.387   0.104  0.00  0.00    -0.345 N 
HETATM    4  H           1      -2.327   0.003   0.770  0.00  0.00     0.163 HD
HETATM    5  O           1       0.462   0.721  -0.473  0.00  0.00    -0.271 OA
BRANCH   3   6
HETATM    6  C           1      -2.152   1.070  -1.080  0.00  0.00     0.181 C 
HETATM    7  C           1      -3.675   1.070  -1.080  0.00  0.00     0.043 C 
BRANCH   6   8
HETATM    8  C           1      -1.648   2.493  -1.080  0.00  0.00     0.196 C 
HETATM    9  O           1      -2.460   3.443  -1.080  0.00  0.00    -0.646 OA
HETATM   10  O           1      -0.419   2.721  -1.080  0.00  0.00    -0.646 OA
ENDBRANCH   6   8
ENDBRANCH   3   6
ENDBRANCH   1   2
BRANCH   1  11
HETATM   11  C           1       1.702  -0.449   1.556  0.00  0.00     0.052 C 
BRANCH  11  12
HETATM   12  C           1       2.211  -1.168   0.313  0.00  0.00     0.105 C 
BRANCH  12  13
HETATM   13  C           1       3.051  -0.221  -0.508  0.00  0.00     0.215 C 
HETATM   14  O           1       3.222   0.915  -0.133  0.00  0.00    -0.274 OA
HETATM   15  N           1       3.618  -0.649  -1.678  0.00  0.00    -0.370 N 
HETATM   16  H           1       3.475  -1.600  -1.992  0.00  0.00     0.159 HD
HETATM   17  H           1       4.182  -0.013  -2.229  0.00  0.00     0.159 HD
ENDBRANCH  12  13
ENDBRANCH  11  12
ENDBRANCH   1  11
BRANCH   1  18
HETATM   18  N           1      -0.321  -1.863   1.554  0.00  0.00    -0.066 N 
HETATM   19  H           1       0.026  -2.356   2.407  0.00  0.00     0.275 HD
HETATM   20  H           1      -1.366  -1.862   1.554  0.00  0.00     0.275 HD
HETATM   21  H           1       0.028  -2.355   0.701  0.00  0.00     0.275 HD
ENDBRANCH   1  18
TORSDOF 7
