REMARK  10 active torsions:
REMARK  status: ('A' for Active; 'I' for Inactive)
REMARK       I    between atoms: C_3  and  N_4 
REMARK    1  A    between atoms: C_3  and  C_17 
REMARK    2  A    between atoms: N_4  and  C_12 
REMARK    3  A    between atoms: C_6  and  O_10 
REMARK    4  A    between atoms: C_11  and  C_12 
REMARK    5  A    between atoms: C_12  and  C_28 
REMARK    6  A    between atoms: C_13  and  C_28 
REMARK    7  A    between atoms: C_14  and  C_17 
REMARK    8  A    between atoms: C_14  and  C_25 
REMARK    9  A    between atoms: C_17  and  N_21 
REMARK       I    between atoms: N_23  and  C_24 
REMARK   10  A    between atoms: C_24  and  C_25 
ROOT
HETATM    1  C           1      -1.285  -0.675   0.739  0.00  0.00     0.249 C 
HETATM    2  N           1      -0.004  -1.140   0.605  0.00  0.00    -0.344 N 
HETATM    3  H           1       0.620  -1.138   1.401  0.00  0.00     0.163 HD
HETATM    4  O           1      -2.031  -0.677  -0.212  0.00  0.00    -0.271 OA
ENDROOT
BRANCH   2   5
HETATM    5  C           1       0.457  -1.635  -0.677  0.00  0.00     0.189 C 
BRANCH   5   6
HETATM    6  C           1      -0.401  -2.800  -1.104  0.00  0.00     0.197 C 
HETATM    7  O           1      -1.631  -2.645  -1.265  0.00  0.00    -0.646 OA
HETATM    8  O           1       0.118  -3.921  -1.297  0.00  0.00    -0.646 OA
ENDBRANCH   5   6
BRANCH   5   9
HETATM    9  C           1       1.906  -2.088  -0.554  0.00  0.00     0.074 C 
BRANCH   9  10
HETATM   10  C           1       2.816  -0.939  -0.859  0.00  0.00    -0.056 A 
HETATM   11  C           1       4.199  -1.114  -0.810  0.00  0.00     0.010 A 
HETATM   12  C           1       5.048  -0.044  -1.094  0.00  0.00     0.037 A 
HETATM   13  C           1       4.513   1.201  -1.427  0.00  0.00     0.065 A 
HETATM   14  C           1       3.130   1.376  -1.475  0.00  0.00     0.037 A 
HETATM   15  C           1       2.282   0.305  -1.191  0.00  0.00     0.010 A 
BRANCH  13  16
HETATM   16  O           1       5.337   2.241  -1.703  0.00  0.00    -0.361 OA
HETATM   17  H           1       4.786   3.014  -1.910  0.00  0.00     0.217 HD
ENDBRANCH  13  16
ENDBRANCH   9  10
ENDBRANCH   5   9
ENDBRANCH   2   5
BRANCH   1  18
HETATM   18  C           1      -1.765  -0.160   2.074  0.00  0.00     0.275 C 
BRANCH  18  19
HETATM   19  C           1      -3.214   0.294   1.952  0.00  0.00     0.052 C 
BRANCH  19  20
HETATM   20  C           1      -3.314   1.404   0.915  0.00  0.00     0.105 C 
BRANCH  20  21
HETATM   21  C           1      -4.237   0.973  -0.198  0.00  0.00     0.215 C 
HETATM   22  O           1      -4.761  -0.115  -0.161  0.00  0.00    -0.274 OA
HETATM   23  N           1      -4.481   1.814  -1.250  0.00  0.00    -0.370 N 
HETATM   24  H           1      -4.043   2.725  -1.282  0.00  0.00     0.159 HD
HETATM   25  H           1      -5.101   1.524  -1.996  0.00  0.00     0.159 HD
ENDBRANCH  20  21
ENDBRANCH  19  20
ENDBRANCH  18  19
BRANCH  18  26
HETATM   26  N           1      -0.913   0.999   2.497  0.00  0.00    -0.066 N 
HETATM   27  H           1      -0.981   1.761   1.785  0.00  0.00     0.275 HD
HETATM   28  H           1       0.081   0.688   2.581  0.00  0.00     0.275 HD
HETATM   29  H           1      -1.245   1.357   3.422  0.00  0.00     0.275 HD
ENDBRANCH  18  26
ENDBRANCH   1  18
TORSDOF 10
