REMARK  9 active torsions:
REMARK  status: ('A' for Active; 'I' for Inactive)
REMARK    1  A    between atoms: C_2  and  O_4 
REMARK    2  A    between atoms: C_2  and  C_3 
REMARK    3  A    between atoms: C_3  and  C_21 
REMARK    4  A    between atoms: C_3  and  N_20 
REMARK    5  A    between atoms: C_5  and  C_6 
REMARK    6  A    between atoms: C_5  and  C_11 
REMARK    7  A    between atoms: C_6  and  C_7 
REMARK    8  A    between atoms: C_6  and  N_15 
REMARK       I    between atoms: C_7  and  N_20 
REMARK    9  A    between atoms: C_11  and  C_18 
ROOT
HETATM    1  C           1      -0.031   0.139   0.380  0.00  0.00     0.249 C 
HETATM    2  H           1      -0.212  -1.922   0.381  0.00  0.00     0.163 HD
HETATM    3  O           1      -0.634   1.186   0.380  0.00  0.00    -0.271 OA
HETATM    4  N           1      -0.717  -1.046   0.380  0.00  0.00    -0.343 N 
ENDROOT
BRANCH   1   5
HETATM    5  C           1       1.478   0.138   0.381  0.00  0.00     0.275 C 
BRANCH   5   6
HETATM    6  C           1       1.987   1.573   0.381  0.00  0.00     0.053 C 
BRANCH   6   7
HETATM    7  C           1       1.482   2.292  -0.862  0.00  0.00     0.115 C 
BRANCH   7   8
HETATM    8  C           1       2.657   2.765  -1.683  0.00  0.00     0.172 C 
HETATM    9  O           1       3.823   2.538  -1.294  0.00  0.00    -0.648 OA
HETATM   10  O           1       2.464   3.383  -2.753  0.00  0.00    -0.648 OA
ENDBRANCH   7   8
ENDBRANCH   6   7
ENDBRANCH   5   6
BRANCH   5  11
HETATM   11  N           1       1.977  -0.569  -0.844  0.00  0.00    -0.066 N 
HETATM   12  H           1       1.629  -0.076  -1.697  0.00  0.00     0.275 HD
HETATM   13  H           1       1.628  -1.554  -0.843  0.00  0.00     0.275 HD
HETATM   14  H           1       3.022  -0.571  -0.844  0.00  0.00     0.275 HD
ENDBRANCH   5  11
ENDBRANCH   1   5
BRANCH   4  15
HETATM   15  C           1      -2.167  -1.044   0.379  0.00  0.00     0.209 C 
BRANCH  15  16
HETATM   16  C           1      -2.675  -2.480   0.379  0.00  0.00     0.200 C 
BRANCH  16  17
HETATM   17  O           1      -4.077  -2.480   0.379  0.00  0.00    -0.398 OA
HETATM   18  H           1      -4.351  -3.381   0.379  0.00  0.00     0.209 HD
ENDBRANCH  16  17
ENDBRANCH  15  16
BRANCH  15  19
HETATM   19  C           1      -2.669  -0.332   1.611  0.00  0.00     0.198 C 
HETATM   20  O           1      -3.388  -0.938   2.434  0.00  0.00    -0.646 OA
HETATM   21  O           1      -2.366   0.865   1.809  0.00  0.00    -0.646 OA
ENDBRANCH  15  19
ENDBRANCH   4  15
TORSDOF 9
