REMARK  11 active torsions:
REMARK  status: ('A' for Active; 'I' for Inactive)
REMARK    1  A    between atoms: N_4  and  C_9 
REMARK    2  A    between atoms: N_7  and  C_16 
REMARK       I    between atoms: N_7  and  C_8 
REMARK    3  A    between atoms: C_8  and  C_9 
REMARK    4  A    between atoms: C_9  and  C_10 
REMARK    5  A    between atoms: C_10  and  C_11 
REMARK    6  A    between atoms: C_11  and  C_12 
REMARK    7  A    between atoms: C_14  and  C_15 
REMARK    8  A    between atoms: C_14  and  C_16 
REMARK    9  A    between atoms: C_15  and  C_24 
REMARK   10  A    between atoms: C_16  and  C_23 
REMARK   11  A    between atoms: C_24  and  N_25 
ROOT
HETATM    1  H           1      -1.427   0.619   0.207  0.00  0.00     0.163 HD
HETATM    2  O           1       1.645   0.935   0.759  0.00  0.00    -0.271 OA
HETATM    3  N           1      -0.432   0.525   0.048  0.00  0.00    -0.345 N 
HETATM    4  C           1       0.457   1.046   0.949  0.00  0.00     0.249 C 
ENDROOT
BRANCH   3   5
HETATM    5  C           1       0.052  -0.160  -1.135  0.00  0.00     0.185 C 
BRANCH   5   6
HETATM    6  C           1      -1.133  -0.638  -1.964  0.00  0.00     0.038 C 
BRANCH   6   7
HETATM    7  C           1      -0.626  -1.357  -3.208  0.00  0.00     0.030 C 
BRANCH   7   8
HETATM    8  C           1      -1.134  -2.792  -3.208  0.00  0.00     0.230 C 
BRANCH   8   9
HETATM    9  N           1      -2.634  -2.792  -3.208  0.00  0.00    -0.079 N 
HETATM   10  H           1      -2.982  -2.300  -4.061  0.00  0.00     0.274 HD
HETATM   11  H           1      -2.982  -2.300  -2.354  0.00  0.00     0.274 HD
HETATM   12  H           1      -2.983  -3.777  -3.208  0.00  0.00     0.274 HD
ENDBRANCH   8   9
ENDBRANCH   7   8
ENDBRANCH   6   7
ENDBRANCH   5   6
BRANCH   5  13
HETATM   13  C           1       0.891   0.788  -1.956  0.00  0.00     0.196 C 
HETATM   14  O           1       0.559   1.061  -3.130  0.00  0.00    -0.646 OA
HETATM   15  O           1       1.919   1.301  -1.462  0.00  0.00    -0.646 OA
ENDBRANCH   5  13
ENDBRANCH   3   5
BRANCH   4  16
HETATM   16  C           1      -0.047   1.759   2.180  0.00  0.00     0.275 C 
BRANCH  16  17
HETATM   17  N           1      -0.881   0.816   2.997  0.00  0.00    -0.066 N 
HETATM   18  H           1      -1.693   0.488   2.427  0.00  0.00     0.275 HD
HETATM   19  H           1      -0.300  -0.004   3.282  0.00  0.00     0.275 HD
HETATM   20  H           1      -1.230   1.309   3.849  0.00  0.00     0.275 HD
ENDBRANCH  16  17
BRANCH  16  21
HETATM   21  C           1       1.137   2.238   3.010  0.00  0.00     0.053 C 
BRANCH  21  22
HETATM   22  C           1       1.982   1.042   3.427  0.00  0.00     0.115 C 
BRANCH  22  23
HETATM   23  C           1       3.381   1.199   2.882  0.00  0.00     0.172 C 
HETATM   24  O           1       4.242   0.322   3.109  0.00  0.00    -0.648 OA
HETATM   25  O           1       3.677   2.205   2.203  0.00  0.00    -0.648 OA
ENDBRANCH  22  23
ENDBRANCH  21  22
ENDBRANCH  16  21
ENDBRANCH   4  16
TORSDOF 11
