REMARK  9 active torsions:
REMARK  status: ('A' for Active; 'I' for Inactive)
REMARK    1  A    between atoms: N_1  and  C_19 
REMARK       I    between atoms: N_1  and  C_2 
REMARK    2  A    between atoms: C_2  and  C_3 
REMARK    3  A    between atoms: C_3  and  C_4 
REMARK    4  A    between atoms: C_3  and  N_13 
REMARK    5  A    between atoms: C_4  and  C_5 
REMARK    6  A    between atoms: C_5  and  C_8 
REMARK    7  A    between atoms: C_18  and  C_19 
REMARK    8  A    between atoms: C_19  and  C_20 
REMARK    9  A    between atoms: C_20  and  Se_21 
ROOT
HETATM    1  N           1      -0.685  -1.026   0.380  0.00  0.00    -0.345 N 
HETATM    2  C           1       0.001   0.159   0.380  0.00  0.00     0.249 C 
HETATM    3  O           1      -0.602   1.206   0.380  0.00  0.00    -0.271 OA
HETATM    4  H           1      -0.180  -1.903   0.381  0.00  0.00     0.163 HD
ENDROOT
BRANCH   2   5
HETATM    5  C           1       1.510   0.157   0.381  0.00  0.00     0.275 C 
BRANCH   5   6
HETATM    6  C           1       2.020   1.592   0.381  0.00  0.00     0.053 C 
BRANCH   6   7
HETATM    7  C           1       1.514   2.312  -0.862  0.00  0.00     0.115 C 
BRANCH   7   8
HETATM    8  C           1       2.689   2.784  -1.683  0.00  0.00     0.172 C 
HETATM    9  O           1       2.496   3.402  -2.753  0.00  0.00    -0.648 OA
HETATM   10  O           1       3.855   2.558  -1.294  0.00  0.00    -0.648 OA
ENDBRANCH   7   8
ENDBRANCH   6   7
ENDBRANCH   5   6
BRANCH   5  11
HETATM   11  N           1       2.009  -0.550  -0.844  0.00  0.00    -0.066 N 
HETATM   12  H           1       1.660  -1.535  -0.843  0.00  0.00     0.275 HD
HETATM   13  H           1       1.662  -0.056  -1.697  0.00  0.00     0.275 HD
HETATM   14  H           1       3.054  -0.551  -0.844  0.00  0.00     0.275 HD
ENDBRANCH   5  11
ENDBRANCH   2   5
BRANCH   1  15
HETATM   15  C           1      -2.135  -1.025   0.379  0.00  0.00     0.185 C 
BRANCH  15  16
HETATM   16  C           1      -2.637  -0.312   1.611  0.00  0.00     0.196 C 
HETATM   17  O           1      -3.356  -0.919   2.434  0.00  0.00    -0.646 OA
HETATM   18  O           1      -2.334   0.884   1.809  0.00  0.00    -0.646 OA
ENDBRANCH  15  16
BRANCH  15  19
HETATM   19  C           1      -2.643  -2.460   0.379  0.00  0.00     0.039 C 
BRANCH  19  20
HETATM   20 Se           1      -4.592  -2.460   0.379  0.00  0.00     0.000 Se
HETATM   21  H           1      -4.708  -3.928   0.379  0.00  0.00     0.000 HD
ENDBRANCH  19  20
ENDBRANCH  15  19
ENDBRANCH   1  15
TORSDOF 9
