REMARK  10 active torsions:
REMARK  status: ('A' for Active; 'I' for Inactive)
REMARK    1  A    between atoms: N_1  and  C_5 
REMARK       I    between atoms: N_1  and  C_16 
REMARK    2  A    between atoms: C_4  and  C_5 
REMARK    3  A    between atoms: C_5  and  C_6 
REMARK    4  A    between atoms: C_6  and  C_7 
REMARK    5  A    between atoms: C_7  and  C_24 
REMARK    6  A    between atoms: C_13  and  C_16 
REMARK    7  A    between atoms: C_13  and  C_14 
REMARK    8  A    between atoms: C_13  and  N_17 
REMARK    9  A    between atoms: C_14  and  C_15 
REMARK   10  A    between atoms: C_15  and  C_18 
REMARK       I    between atoms: C_24  and  N_25 
ROOT
HETATM    1  N           1       0.485   0.698  -0.402  0.00  0.00    -0.345 N 
HETATM    2  O           1      -0.418   0.036   1.530  0.00  0.00    -0.271 OA
HETATM    3  C           1      -0.411   0.835   0.624  0.00  0.00     0.249 C 
HETATM    4  H           1       0.490   1.368  -1.161  0.00  0.00     0.163 HD
ENDROOT
BRANCH   1   5
HETATM    5  C           1       1.425  -0.405  -0.401  0.00  0.00     0.186 C 
BRANCH   5   6
HETATM    6  C           1       2.292  -0.325   0.832  0.00  0.00     0.196 C 
HETATM    7  O           1       3.532  -0.212   0.718  0.00  0.00    -0.646 OA
HETATM    8  O           1       1.770  -0.373   1.966  0.00  0.00    -0.646 OA
ENDBRANCH   5   6
BRANCH   5   9
HETATM    9  C           1       2.301  -0.325  -1.644  0.00  0.00     0.045 C 
BRANCH   9  10
HETATM   10  C           1       3.290  -1.484  -1.644  0.00  0.00     0.105 C 
BRANCH  10  11
HETATM   11  C           1       2.536  -2.790  -1.644  0.00  0.00     0.215 C 
HETATM   12  O           1       1.328  -2.790  -1.644  0.00  0.00    -0.274 OA
HETATM   13  N           1       3.220  -3.976  -1.644  0.00  0.00    -0.370 N 
HETATM   14  H           1       2.714  -4.852  -1.644  0.00  0.00     0.159 HD
HETATM   15  H           1       4.232  -3.976  -1.644  0.00  0.00     0.159 HD
ENDBRANCH  10  11
ENDBRANCH   9  10
ENDBRANCH   5   9
ENDBRANCH   1   5
BRANCH   3  16
HETATM   16  C           1      -1.390   1.984   0.623  0.00  0.00     0.275 C 
BRANCH  16  17
HETATM   17  C           1      -2.267   1.905   1.866  0.00  0.00     0.053 C 
BRANCH  17  18
HETATM   18  C           1      -3.031   0.588   1.867  0.00  0.00     0.115 C 
BRANCH  18  19
HETATM   19  C           1      -4.514   0.866   1.866  0.00  0.00     0.172 C 
HETATM   20  O           1      -4.929   2.045   1.864  0.00  0.00    -0.648 OA
HETATM   21  O           1      -5.328  -0.083   1.866  0.00  0.00    -0.648 OA
ENDBRANCH  18  19
ENDBRANCH  17  18
ENDBRANCH  16  17
BRANCH  16  22
HETATM   22  N           1      -2.252   1.904  -0.602  0.00  0.00    -0.066 N 
HETATM   23  H           1      -2.930   2.699  -0.603  0.00  0.00     0.275 HD
HETATM   24  H           1      -1.650   1.958  -1.454  0.00  0.00     0.275 HD
HETATM   25  H           1      -2.775   1.000  -0.601  0.00  0.00     0.275 HD
ENDBRANCH  16  22
ENDBRANCH   3  16
TORSDOF 10
