REMARK  7 active torsions:
REMARK  status: ('A' for Active; 'I' for Inactive)
REMARK    1  A    between atoms: N_5  and  C_11 
REMARK    2  A    between atoms: C_9  and  C_15 
REMARK    3  A    between atoms: C_11  and  C_17 
REMARK    4  A    between atoms: C_11  and  C_12 
REMARK    5  A    between atoms: C_12  and  C_13 
REMARK    6  A    between atoms: C_13  and  C_14 
REMARK    7  A    between atoms: C_15  and  N_18 
REMARK       I    between atoms: C_17  and  N_18 
ROOT
HETATM    1  C           1      -0.685   0.666  -0.594  0.00  0.00     0.275 C 
ENDROOT
BRANCH   1   2
HETATM    2  N           1      -1.546   0.587   0.632  0.00  0.00    -0.066 N 
HETATM    3  H           1      -2.225   1.382   0.633  0.00  0.00     0.275 HD
HETATM    4  H           1      -2.069  -0.317   0.631  0.00  0.00     0.275 HD
HETATM    5  H           1      -0.944   0.643   1.484  0.00  0.00     0.275 HD
ENDBRANCH   1   2
BRANCH   1   6
HETATM    6  C           1       0.295  -0.481  -0.594  0.00  0.00     0.248 C 
HETATM    7  O           1       1.483  -0.261  -0.594  0.00  0.00    -0.271 OA
HETATM    8  N           1      -0.162  -1.771  -0.594  0.00  0.00    -0.349 N 
HETATM    9  H           1      -1.157  -1.956  -0.594  0.00  0.00     0.163 HD
BRANCH   8  10
HETATM   10  C           1       0.780  -2.874  -0.594  0.00  0.00     0.235 C 
BRANCH  10  11
HETATM   11  C           1       0.026  -4.181  -0.594  0.00  0.00     0.191 C 
HETATM   12  O           1      -1.224  -4.181  -0.594  0.00  0.00    -0.647 OA
HETATM   13  O           1       0.651  -5.263  -0.594  0.00  0.00    -0.647 OA
ENDBRANCH  10  11
ENDBRANCH   8  10
ENDBRANCH   1   6
BRANCH   1  14
HETATM   14  C           1       0.077   1.985  -0.594  0.00  0.00     0.053 C 
BRANCH  14  15
HETATM   15  C           1       0.953   2.067   0.649  0.00  0.00     0.115 C 
BRANCH  15  16
HETATM   16  C           1       0.551   3.267   1.471  0.00  0.00     0.172 C 
HETATM   17  O           1      -0.378   4.008   1.082  0.00  0.00    -0.648 OA
HETATM   18  O           1       1.147   3.521   2.540  0.00  0.00    -0.648 OA
ENDBRANCH  15  16
ENDBRANCH  14  15
ENDBRANCH   1  14
TORSDOF 7
