REMARK  12 active torsions:
REMARK  status: ('A' for Active; 'I' for Inactive)
REMARK    1  A    between atoms: N_1  and  C_15 
REMARK    2  A    between atoms: C_2  and  C_14 
REMARK    3  A    between atoms: C_2  and  C_3 
REMARK    4  A    between atoms: C_2  and  N_8 
REMARK    5  A    between atoms: C_3  and  C_4 
REMARK    6  A    between atoms: C_4  and  C_5 
REMARK       I    between atoms: C_5  and  N_6 
REMARK    7  A    between atoms: N_10  and  C_22 
REMARK       I    between atoms: N_10  and  C_14 
REMARK    8  A    between atoms: C_15  and  C_16 
REMARK    9  A    between atoms: C_16  and  C_28 
REMARK   10  A    between atoms: C_17  and  C_22 
REMARK   11  A    between atoms: C_18  and  C_28 
REMARK   12  A    between atoms: C_18  and  C_22 
ROOT
HETATM    1  N           1      -0.192  -0.184  -0.144  0.00  0.00    -0.345 N 
HETATM    2  C           1      -0.877   1.001  -0.144  0.00  0.00     0.249 C 
HETATM    3  H           1      -0.698  -1.061  -0.144  0.00  0.00     0.163 HD
HETATM    4  O           1      -0.273   2.047  -0.144  0.00  0.00    -0.271 OA
ENDROOT
BRANCH   1   5
HETATM    5  C           1       1.258  -0.184  -0.144  0.00  0.00     0.185 C 
BRANCH   5   6
HETATM    6  C           1       1.760   0.527  -1.376  0.00  0.00     0.196 C 
HETATM    7  O           1       1.458   1.724  -1.574  0.00  0.00    -0.646 OA
HETATM    8  O           1       2.478  -0.081  -2.200  0.00  0.00    -0.646 OA
ENDBRANCH   5   6
BRANCH   5   9
HETATM    9  C           1       1.764  -1.621  -0.143  0.00  0.00     0.036 C 
BRANCH   9  10
HETATM   10  C           1       3.287  -1.622  -0.144  0.00  0.00     0.004 C 
BRANCH  10  11
HETATM   11  C           1       3.794  -2.341  -1.388  0.00  0.00     0.027 C 
BRANCH  11  12
HETATM   12  C           1       3.286  -3.777  -1.388  0.00  0.00     0.229 C 
BRANCH  12  13
HETATM   13  N           1       1.786  -3.777  -1.388  0.00  0.00    -0.079 N 
HETATM   14  H           1       1.437  -4.762  -1.388  0.00  0.00     0.274 HD
HETATM   15  H           1       1.438  -3.284  -0.534  0.00  0.00     0.274 HD
HETATM   16  H           1       1.438  -3.284  -2.241  0.00  0.00     0.274 HD
ENDBRANCH  12  13
ENDBRANCH  11  12
ENDBRANCH  10  11
ENDBRANCH   9  10
ENDBRANCH   5   9
ENDBRANCH   1   5
BRANCH   2  17
HETATM   17  C           1      -2.386   1.001  -0.144  0.00  0.00     0.275 C 
BRANCH  17  18
HETATM   18  C           1      -2.894   2.437  -0.144  0.00  0.00     0.052 C 
BRANCH  18  19
HETATM   19  C           1      -2.387   3.156   1.099  0.00  0.00     0.105 C 
BRANCH  19  20
HETATM   20  C           1      -3.561   3.630   1.920  0.00  0.00     0.215 C 
HETATM   21  N           1      -3.348   4.307   3.091  0.00  0.00    -0.370 N 
HETATM   22  H           1      -4.136   4.625   3.642  0.00  0.00     0.159 HD
HETATM   23  H           1      -2.404   4.490   3.405  0.00  0.00     0.159 HD
HETATM   24  O           1      -4.688   3.412   1.545  0.00  0.00    -0.274 OA
ENDBRANCH  19  20
ENDBRANCH  18  19
ENDBRANCH  17  18
BRANCH  17  25
HETATM   25  N           1      -2.885   0.295   1.081  0.00  0.00    -0.066 N 
HETATM   26  H           1      -3.930   0.294   1.082  0.00  0.00     0.275 HD
HETATM   27  H           1      -2.537  -0.690   1.081  0.00  0.00     0.275 HD
HETATM   28  H           1      -2.537   0.788   1.934  0.00  0.00     0.275 HD
ENDBRANCH  17  25
ENDBRANCH   2  17
TORSDOF 12
