REMARK  10 active torsions:
REMARK  status: ('A' for Active; 'I' for Inactive)
REMARK    1  A    between atoms: C_2  and  S_16 
REMARK    2  A    between atoms: C_2  and  C_3 
REMARK    3  A    between atoms: C_3  and  C_10 
REMARK    4  A    between atoms: C_4  and  C_15 
REMARK    5  A    between atoms: C_4  and  C_22 
REMARK    6  A    between atoms: C_4  and  N_23 
REMARK    7  A    between atoms: C_9  and  C_10 
REMARK    8  A    between atoms: C_10  and  N_12 
REMARK       I    between atoms: N_12  and  C_15 
REMARK       I    between atoms: N_19  and  C_20 
REMARK    9  A    between atoms: C_20  and  C_21 
REMARK   10  A    between atoms: C_21  and  C_22 
ROOT
HETATM    1  C           1      -0.651  -1.464  -1.831  0.00  0.00     0.275 C 
ENDROOT
BRANCH   1   2
HETATM    2  C           1       0.002  -0.886  -0.600  0.00  0.00     0.249 C 
HETATM    3  O           1       1.184  -1.048  -0.410  0.00  0.00    -0.271 OA
HETATM    4  N           1      -0.745  -0.176   0.301  0.00  0.00    -0.345 N 
HETATM    5  H           1      -1.735  -0.039   0.142  0.00  0.00     0.163 HD
BRANCH   4   6
HETATM    6  C           1      -0.117   0.381   1.484  0.00  0.00     0.186 C 
BRANCH   6   7
HETATM    7  C           1      -1.161   1.117   2.313  0.00  0.00     0.046 C 
BRANCH   7   8
HETATM    8  C           1      -0.503   1.701   3.556  0.00  0.00     0.076 C 
BRANCH   8   9
HETATM    9  S           1      -0.702   3.505   3.556  0.00  0.00    -0.173 SA
HETATM   10  C           1      -2.517   3.505   3.556  0.00  0.00     0.089 C 
ENDBRANCH   8   9
ENDBRANCH   7   8
ENDBRANCH   6   7
BRANCH   6  11
HETATM   11  C           1       0.484  -0.734   2.305  0.00  0.00     0.196 C 
HETATM   12  O           1       1.367  -1.467   1.811  0.00  0.00    -0.646 OA
HETATM   13  O           1       0.098  -0.923   3.479  0.00  0.00    -0.646 OA
ENDBRANCH   6  11
ENDBRANCH   4   6
ENDBRANCH   1   2
BRANCH   1  14
HETATM   14  C           1       0.392  -2.201  -2.662  0.00  0.00     0.052 C 
BRANCH  14  15
HETATM   15  C           1       1.488  -1.230  -3.079  0.00  0.00     0.105 C 
BRANCH  15  16
HETATM   16  C           1       2.814  -1.702  -2.533  0.00  0.00     0.215 C 
HETATM   17  N           1       3.952  -0.982  -2.782  0.00  0.00    -0.370 N 
HETATM   18  H           1       4.840  -1.299  -2.416  0.00  0.00     0.159 HD
HETATM   19  H           1       3.904  -0.134  -3.332  0.00  0.00     0.159 HD
HETATM   20  O           1       2.871  -2.714  -1.877  0.00  0.00    -0.274 OA
ENDBRANCH  15  16
ENDBRANCH  14  15
ENDBRANCH   1  14
BRANCH   1  21
HETATM   21  N           1      -1.248  -0.357  -2.648  0.00  0.00    -0.066 N 
HETATM   22  H           1      -1.700  -0.756  -3.501  0.00  0.00     0.275 HD
HETATM   23  H           1      -1.964   0.149  -2.078  0.00  0.00     0.275 HD
HETATM   24  H           1      -0.495   0.310  -2.933  0.00  0.00     0.275 HD
ENDBRANCH   1  21
TORSDOF 10
