REMARK  12 active torsions:
REMARK  status: ('A' for Active; 'I' for Inactive)
REMARK    1  A    between atoms: C_1  and  C_5 
REMARK    2  A    between atoms: C_4  and  O_21 
REMARK    3  A    between atoms: C_5  and  C_15 
REMARK    4  A    between atoms: C_6  and  C_12 
REMARK    5  A    between atoms: C_6  and  C_7 
REMARK    6  A    between atoms: N_10  and  C_13 
REMARK    7  A    between atoms: C_12  and  C_13 
REMARK    8  A    between atoms: C_13  and  C_14 
REMARK       I    between atoms: C_14  and  N_16 
REMARK    9  A    between atoms: C_15  and  C_18 
REMARK   10  A    between atoms: C_15  and  N_16 
REMARK   11  A    between atoms: P_20  and  O_21 
REMARK   12  A    between atoms: P_20  and  O_30 
ROOT
HETATM    1  C           1       2.535   1.084  -1.455  0.00  0.00     0.189 C 
ENDROOT
BRANCH   1   2
HETATM    2  C           1       1.086   1.537  -1.578  0.00  0.00     0.074 C 
BRANCH   2   3
HETATM    3  C           1       0.176   0.388  -1.274  0.00  0.00    -0.056 A 
HETATM    4  C           1       0.710  -0.856  -0.941  0.00  0.00     0.010 A 
HETATM    5  C           1      -0.138  -1.926  -0.657  0.00  0.00     0.038 A 
HETATM    6  C           1      -1.521  -1.752  -0.706  0.00  0.00     0.081 A 
HETATM    7  C           1      -2.056  -0.507  -1.038  0.00  0.00     0.038 A 
HETATM    8  C           1      -1.207   0.563  -1.322  0.00  0.00     0.010 A 
BRANCH   6   9
HETATM    9  O           1      -2.345  -2.792  -0.430  0.00  0.00    -0.247 OA
BRANCH   9  10
HETATM   10  P           1      -3.938  -2.536  -0.501  0.00  0.00     0.411 P 
HETATM   11  O           1      -4.313  -1.482   0.468  0.00  0.00    -0.624 OA
HETATM   12  O           1      -4.654  -3.788  -0.168  0.00  0.00    -0.624 OA
BRANCH  10  13
HETATM   13  O           1      -4.341  -2.063  -1.992  0.00  0.00    -0.300 OA
HETATM   14  H           1      -5.274  -1.933  -1.962  0.00  0.00     0.223 HD
ENDBRANCH  10  13
ENDBRANCH   9  10
ENDBRANCH   6   9
ENDBRANCH   2   3
ENDBRANCH   1   2
BRANCH   1  15
HETATM   15  C           1       3.395   1.883  -2.403  0.00  0.00     0.197 C 
HETATM   16  O           1       4.625   1.669  -2.462  0.00  0.00    -0.646 OA
HETATM   17  O           1       2.877   2.759  -3.129  0.00  0.00    -0.646 OA
ENDBRANCH   1  15
BRANCH   1  18
HETATM   18  N           1       2.992   1.293  -0.095  0.00  0.00    -0.344 N 
HETATM   19  H           1       3.779   1.903   0.086  0.00  0.00     0.163 HD
HETATM   20  C           1       2.360   0.665   0.944  0.00  0.00     0.249 C 
HETATM   21  O           1       2.732  -0.425   1.308  0.00  0.00    -0.271 OA
BRANCH  20  22
HETATM   22  C           1       1.197   1.335   1.634  0.00  0.00     0.275 C 
BRANCH  22  23
HETATM   23  N           1       0.101   1.583   0.640  0.00  0.00    -0.066 N 
HETATM   24  H           1      -0.705   2.046   1.117  0.00  0.00     0.275 HD
HETATM   25  H           1       0.457   2.202  -0.123  0.00  0.00     0.275 HD
HETATM   26  H           1      -0.212   0.672   0.233  0.00  0.00     0.275 HD
ENDBRANCH  22  23
BRANCH  22  27
HETATM   27  C           1       0.677   0.432   2.746  0.00  0.00     0.053 C 
BRANCH  27  28
HETATM   28  C           1       0.220  -0.893   2.153  0.00  0.00     0.115 C 
BRANCH  28  29
HETATM   29  C           1      -1.245  -1.099   2.450  0.00  0.00     0.172 C 
HETATM   30  O           1      -1.825  -2.132   2.050  0.00  0.00    -0.648 OA
HETATM   31  O           1      -1.879  -0.237   3.096  0.00  0.00    -0.648 OA
ENDBRANCH  28  29
ENDBRANCH  27  28
ENDBRANCH  22  27
ENDBRANCH  20  22
ENDBRANCH   1  18
TORSDOF 12
