REMARK  11 active torsions:
REMARK  status: ('A' for Active; 'I' for Inactive)
REMARK       I    between atoms: C_1  and  N_10 
REMARK    1  A    between atoms: C_1  and  C_8 
REMARK    2  A    between atoms: C_2  and  C_15 
REMARK    3  A    between atoms: N_5  and  C_6 
REMARK    4  A    between atoms: C_6  and  C_7 
REMARK    5  A    between atoms: C_7  and  C_14 
REMARK    6  A    between atoms: C_8  and  C_9 
REMARK    7  A    between atoms: C_8  and  N_13 
REMARK    8  A    between atoms: C_9  and  C_25 
REMARK    9  A    between atoms: N_10  and  C_15 
REMARK   10  A    between atoms: C_14  and  C_15 
REMARK       I    between atoms: N_16  and  C_17 
REMARK   11  A    between atoms: C_17  and  C_25 
ROOT
HETATM    1  C           1       0.215   1.055   0.783  0.00  0.00     0.249 C 
HETATM    2  N           1      -0.674   0.534  -0.119  0.00  0.00    -0.345 N 
HETATM    3  O           1       1.403   0.944   0.593  0.00  0.00    -0.271 OA
HETATM    4  H           1      -1.669   0.628   0.040  0.00  0.00     0.163 HD
ENDROOT
BRANCH   1   5
HETATM    5  C           1      -0.288   1.768   2.014  0.00  0.00     0.275 C 
BRANCH   5   6
HETATM    6  C           1       0.895   2.247   2.844  0.00  0.00     0.052 C 
BRANCH   6   7
HETATM    7  C           1       1.741   1.051   3.261  0.00  0.00     0.105 C 
BRANCH   7   8
HETATM    8  C           1       3.139   1.208   2.716  0.00  0.00     0.215 C 
HETATM    9  N           1       4.083   0.247   2.964  0.00  0.00    -0.370 N 
HETATM   10  H           1       5.020   0.353   2.599  0.00  0.00     0.159 HD
HETATM   11  H           1       3.843  -0.568   3.514  0.00  0.00     0.159 HD
HETATM   12  O           1       3.426   2.180   2.059  0.00  0.00    -0.274 OA
ENDBRANCH   7   8
ENDBRANCH   6   7
ENDBRANCH   5   6
BRANCH   5  13
HETATM   13  N           1      -1.122   0.825   2.830  0.00  0.00    -0.066 N 
HETATM   14  H           1      -1.471   1.318   3.683  0.00  0.00     0.275 HD
HETATM   15  H           1      -1.935   0.497   2.261  0.00  0.00     0.275 HD
HETATM   16  H           1      -0.541   0.005   3.116  0.00  0.00     0.275 HD
ENDBRANCH   5  13
ENDBRANCH   1   5
BRANCH   2  17
HETATM   17  C           1      -0.190  -0.151  -1.302  0.00  0.00     0.185 C 
BRANCH  17  18
HETATM   18  C           1       0.650   0.797  -2.123  0.00  0.00     0.196 C 
HETATM   19  O           1       1.678   1.310  -1.629  0.00  0.00    -0.646 OA
HETATM   20  O           1       0.318   1.070  -3.296  0.00  0.00    -0.646 OA
ENDBRANCH  17  18
BRANCH  17  21
HETATM   21  C           1      -1.374  -0.629  -2.131  0.00  0.00     0.038 C 
BRANCH  21  22
HETATM   22  C           1      -0.867  -1.348  -3.374  0.00  0.00     0.030 C 
BRANCH  22  23
HETATM   23  C           1      -1.376  -2.783  -3.374  0.00  0.00     0.230 C 
BRANCH  23  24
HETATM   24  N           1      -2.876  -2.783  -3.374  0.00  0.00    -0.079 N 
HETATM   25  H           1      -3.224  -3.768  -3.374  0.00  0.00     0.274 HD
HETATM   26  H           1      -3.223  -2.291  -2.520  0.00  0.00     0.274 HD
HETATM   27  H           1      -3.224  -2.291  -4.227  0.00  0.00     0.274 HD
ENDBRANCH  23  24
ENDBRANCH  22  23
ENDBRANCH  21  22
ENDBRANCH  17  21
ENDBRANCH   2  17
TORSDOF 11
