REMARK  10 active torsions:
REMARK  status: ('A' for Active; 'I' for Inactive)
REMARK    1  A    between atoms: C_6  and  C_21 
REMARK    2  A    between atoms: N_9  and  C_21 
REMARK       I    between atoms: N_9  and  C_10 
REMARK    3  A    between atoms: C_10  and  C_11 
REMARK    4  A    between atoms: C_11  and  C_12 
REMARK    5  A    between atoms: C_11  and  N_20 
REMARK    6  A    between atoms: C_12  and  C_13 
REMARK    7  A    between atoms: C_13  and  C_19 
REMARK    8  A    between atoms: Se_14  and  C_16 
REMARK    9  A    between atoms: C_16  and  C_22 
REMARK   10  A    between atoms: C_21  and  C_22 
ROOT
HETATM    1  H           1      -1.467  -0.051  -0.024  0.00  0.00     0.163 HD
HETATM    2  N           1      -0.480  -0.214   0.136  0.00  0.00    -0.345 N 
HETATM    3  C           1       0.247  -0.943  -0.766  0.00  0.00     0.249 C 
HETATM    4  O           1       1.425  -1.137  -0.576  0.00  0.00    -0.271 OA
ENDROOT
BRANCH   3   5
HETATM    5  C           1      -0.421  -1.504  -1.997  0.00  0.00     0.275 C 
BRANCH   5   6
HETATM    6  C           1       0.603  -2.268  -2.827  0.00  0.00     0.053 C 
BRANCH   6   7
HETATM    7  C           1       1.724  -1.326  -3.244  0.00  0.00     0.115 C 
BRANCH   7   8
HETATM    8  C           1       3.037  -1.832  -2.699  0.00  0.00     0.172 C 
HETATM    9  O           1       4.092  -1.203  -2.926  0.00  0.00    -0.648 OA
HETATM   10  O           1       3.068  -2.881  -2.020  0.00  0.00    -0.648 OA
ENDBRANCH   7   8
ENDBRANCH   6   7
ENDBRANCH   5   6
BRANCH   5  11
HETATM   11  N           1      -0.988  -0.381  -2.813  0.00  0.00    -0.066 N 
HETATM   12  H           1      -1.451  -0.769  -3.666  0.00  0.00     0.275 HD
HETATM   13  H           1      -1.691   0.142  -2.244  0.00  0.00     0.275 HD
HETATM   14  H           1      -0.218   0.265  -3.099  0.00  0.00     0.275 HD
ENDBRANCH   5  11
ENDBRANCH   3   5
BRANCH   2  15
HETATM   15  C           1       0.162   0.326   1.318  0.00  0.00     0.185 C 
BRANCH  15  16
HETATM   16  C           1       0.733  -0.804   2.139  0.00  0.00     0.196 C 
HETATM   17  O           1       1.597  -1.560   1.646  0.00  0.00    -0.646 OA
HETATM   18  O           1       0.343  -0.983   3.313  0.00  0.00    -0.646 OA
ENDBRANCH  15  16
BRANCH  15  19
HETATM   19  C           1      -0.863   1.089   2.148  0.00  0.00     0.036 C 
BRANCH  19  20
HETATM   20  C           1      -0.190   1.656   3.391  0.00  0.00     0.003 C 
BRANCH  20  21
HETATM   21 Se           1      -0.353   3.598   3.391  0.00  0.00     0.000 Se
HETATM   22  C           1      -2.302   3.598   3.391  0.00  0.00     0.000 C 
ENDBRANCH  20  21
ENDBRANCH  19  20
ENDBRANCH  15  19
ENDBRANCH   2  15
TORSDOF 10
