REMARK  9 active torsions:
REMARK  status: ('A' for Active; 'I' for Inactive)
REMARK    1  A    between atoms: C_1  and  C_2 
REMARK    2  A    between atoms: C_1  and  C_19 
REMARK    3  A    between atoms: C_2  and  C_9 
REMARK    4  A    between atoms: C_2  and  N_11 
REMARK       I    between atoms: N_11  and  C_29 
REMARK    5  A    between atoms: C_14  and  C_31 
REMARK       I    between atoms: C_14  and  N_15 
REMARK    6  A    between atoms: N_17  and  C_28 
REMARK    7  A    between atoms: C_27  and  C_28 
REMARK    8  A    between atoms: C_27  and  C_31 
REMARK    9  A    between atoms: C_28  and  C_29 
ROOT
HETATM    1  N           1      -2.887  -0.210   0.686  0.00  0.00    -0.344 N 
HETATM    2  H           1      -3.892  -0.138   0.589  0.00  0.00     0.163 HD
HETATM    3  O           1      -1.947  -2.062  -0.135  0.00  0.00    -0.271 OA
HETATM    4  C           1      -2.155  -0.878  -0.258  0.00  0.00     0.249 C 
ENDROOT
BRANCH   1   5
HETATM    5  C           1      -2.223   0.395   1.824  0.00  0.00     0.190 C 
BRANCH   5   6
HETATM    6  C           1      -1.220   1.431   1.334  0.00  0.00     0.077 C 
BRANCH   6   7
HETATM    7  C           1       0.109   0.778   1.119  0.00  0.00    -0.028 A 
HETATM    8  C           1       0.403  -0.551   1.325  0.00  0.00     0.096 A 
HETATM    9  N           1       1.723  -0.741   1.013  0.00  0.00    -0.365 N 
HETATM   10  C           1       2.292   0.445   0.607  0.00  0.00     0.042 A 
HETATM   11  H           1       2.228  -1.660   1.075  0.00  0.00     0.165 HD
HETATM   12  C           1       3.601   0.727   0.197  0.00  0.00     0.030 A 
HETATM   13  C           1       1.295   1.419   0.665  0.00  0.00    -0.002 A 
HETATM   14  C           1       3.895   2.045  -0.165  0.00  0.00     0.002 A 
HETATM   15  C           1       2.919   3.039  -0.117  0.00  0.00     0.001 A 
HETATM   16  C           1       1.615   2.739   0.296  0.00  0.00     0.014 A 
ENDBRANCH   6   7
ENDBRANCH   5   6
BRANCH   5  17
HETATM   17  C           1      -3.248   1.064   2.706  0.00  0.00     0.197 C 
HETATM   18  O           1      -4.168   0.390   3.217  0.00  0.00    -0.646 OA
HETATM   19  O           1      -3.177   2.292   2.927  0.00  0.00    -0.646 OA
ENDBRANCH   5  17
ENDBRANCH   1   5
BRANCH   4  20
HETATM   20  C           1      -1.607  -0.136  -1.453  0.00  0.00     0.275 C 
BRANCH  20  21
HETATM   21  N           1      -0.687   0.953  -0.985  0.00  0.00    -0.066 N 
HETATM   22  H           1       0.102   0.534  -0.443  0.00  0.00     0.275 HD
HETATM   23  H           1      -1.216   1.617  -0.376  0.00  0.00     0.275 HD
HETATM   24  H           1      -0.308   1.467  -1.812  0.00  0.00     0.275 HD
ENDBRANCH  20  21
BRANCH  20  25
HETATM   25  C           1      -0.836  -1.103  -2.342  0.00  0.00     0.052 C 
BRANCH  25  26
HETATM   26  C           1       0.315  -1.713  -1.553  0.00  0.00     0.105 C 
BRANCH  26  27
HETATM   27  C           1       0.151  -3.212  -1.501  0.00  0.00     0.215 C 
HETATM   28  N           1       1.073  -3.979  -0.840  0.00  0.00    -0.370 N 
HETATM   29  H           1       1.864  -3.540  -0.386  0.00  0.00     0.159 HD
HETATM   30  H           1       0.963  -4.984  -0.805  0.00  0.00     0.159 HD
HETATM   31  O           1      -0.793  -3.736  -2.043  0.00  0.00    -0.274 OA
ENDBRANCH  26  27
ENDBRANCH  25  26
ENDBRANCH  20  25
ENDBRANCH   4  20
TORSDOF 9
