REMARK  9 active torsions:
REMARK  status: ('A' for Active; 'I' for Inactive)
REMARK    1  A    between atoms: N_5  and  C_19 
REMARK    2  A    between atoms: C_7  and  C_9 
REMARK    3  A    between atoms: C_7  and  C_8 
REMARK    4  A    between atoms: C_7  and  N_21 
REMARK    5  A    between atoms: C_9  and  S_17 
REMARK    6  A    between atoms: C_15  and  C_16 
REMARK    7  A    between atoms: C_16  and  C_18 
REMARK    8  A    between atoms: C_18  and  C_19 
REMARK    9  A    between atoms: C_19  and  C_20 
REMARK       I    between atoms: C_20  and  N_21 
ROOT
HETATM    1  H           1      -0.188  -1.907   0.381  0.00  0.00     0.163 HD
HETATM    2  O           1      -0.610   1.201   0.380  0.00  0.00    -0.271 OA
HETATM    3  C           1      -0.007   0.154   0.380  0.00  0.00     0.249 C 
HETATM    4  N           1      -0.693  -1.030   0.380  0.00  0.00    -0.344 N 
ENDROOT
BRANCH   3   5
HETATM    5  C           1       1.502   0.153   0.381  0.00  0.00     0.275 C 
BRANCH   5   6
HETATM    6  N           1       2.001  -0.554  -0.844  0.00  0.00    -0.066 N 
HETATM    7  H           1       1.653  -0.061  -1.697  0.00  0.00     0.275 HD
HETATM    8  H           1       3.046  -0.556  -0.844  0.00  0.00     0.275 HD
HETATM    9  H           1       1.651  -1.539  -0.843  0.00  0.00     0.275 HD
ENDBRANCH   5   6
BRANCH   5  10
HETATM   10  C           1       2.011   1.588   0.381  0.00  0.00     0.053 C 
BRANCH  10  11
HETATM   11  C           1       1.506   2.307  -0.862  0.00  0.00     0.115 C 
BRANCH  11  12
HETATM   12  C           1       2.681   2.780  -1.683  0.00  0.00     0.172 C 
HETATM   13  O           1       3.847   2.553  -1.294  0.00  0.00    -0.648 OA
HETATM   14  O           1       2.487   3.398  -2.753  0.00  0.00    -0.648 OA
ENDBRANCH  11  12
ENDBRANCH  10  11
ENDBRANCH   5  10
ENDBRANCH   3   5
BRANCH   4  15
HETATM   15  C           1      -2.143  -1.029   0.379  0.00  0.00     0.194 C 
BRANCH  15  16
HETATM   16  C           1      -2.652  -2.465   0.379  0.00  0.00     0.106 C 
BRANCH  16  17
HETATM   17  S           1      -4.467  -2.465   0.379  0.00  0.00    -0.180 SA
HETATM   18  H           1      -4.607  -3.802   0.379  0.00  0.00     0.101 HD
ENDBRANCH  16  17
ENDBRANCH  15  16
BRANCH  15  19
HETATM   19  C           1      -2.645  -0.317   1.611  0.00  0.00     0.197 C 
HETATM   20  O           1      -3.364  -0.923   2.434  0.00  0.00    -0.646 OA
HETATM   21  O           1      -2.343   0.880   1.809  0.00  0.00    -0.646 OA
ENDBRANCH  15  19
ENDBRANCH   4  15
TORSDOF 9
