REMARK  9 active torsions:
REMARK  status: ('A' for Active; 'I' for Inactive)
REMARK    1  A    between atoms: C_1  and  C_6 
REMARK    2  A    between atoms: C_1  and  C_12 
REMARK    3  A    between atoms: C_2  and  C_24 
REMARK    4  A    between atoms: C_2  and  C_14 
REMARK    5  A    between atoms: C_6  and  C_16 
REMARK    6  A    between atoms: N_8  and  C_16 
REMARK       I    between atoms: N_11  and  C_12 
REMARK    7  A    between atoms: N_15  and  C_24 
REMARK       I    between atoms: N_15  and  C_17 
REMARK    8  A    between atoms: C_16  and  C_17 
REMARK    9  A    between atoms: C_22  and  C_24 
ROOT
HETATM    1  H           1       1.839   2.798  -0.166  0.00  0.00     0.163 HD
HETATM    2  O           1       1.987   0.084   0.620  0.00  0.00    -0.271 OA
HETATM    3  N           1       1.315   1.961  -0.386  0.00  0.00    -0.344 N 
HETATM    4  C           1       1.174   0.975   0.554  0.00  0.00     0.249 C 
ENDROOT
BRANCH   3   5
HETATM    5  C           1       0.713   1.806  -1.696  0.00  0.00     0.191 C 
BRANCH   5   6
HETATM    6  C           1      -0.795   1.652  -1.545  0.00  0.00     0.094 C 
BRANCH   6   7
HETATM    7  C           1      -1.138   0.202  -1.401  0.00  0.00     0.028 A 
HETATM    8  C           1      -0.221  -0.822  -1.405  0.00  0.00     0.114 A 
HETATM    9  N           1      -0.961  -1.961  -1.249  0.00  0.00    -0.360 N 
HETATM   10  C           1      -2.272  -1.589  -1.158  0.00  0.00     0.180 A 
HETATM   11  H           1      -0.589  -2.942  -1.207  0.00  0.00     0.166 HD
HETATM   12  N           1      -2.409  -0.286  -1.246  0.00  0.00    -0.354 N 
ATOM     13  HN          1      -3.277   0.249  -1.207  1.00  0.00     0.166 HD
ENDBRANCH   6   7
ENDBRANCH   5   6
BRANCH   5  14
HETATM   14  C           1       1.014   3.023  -2.534  0.00  0.00     0.197 C 
HETATM   15  O           1       2.199   3.334  -2.782  0.00  0.00    -0.646 OA
HETATM   16  O           1       0.079   3.721  -2.982  0.00  0.00    -0.646 OA
ENDBRANCH   5  14
ENDBRANCH   3   5
BRANCH   4  17
HETATM   17  C           1       0.004   1.001   1.506  0.00  0.00     0.275 C 
BRANCH  17  18
HETATM   18  C           1       0.082  -0.198   2.441  0.00  0.00     0.052 C 
BRANCH  18  19
HETATM   19  C           1       0.042  -1.483   1.624  0.00  0.00     0.105 C 
BRANCH  19  20
HETATM   20  C           1       1.303  -2.275   1.868  0.00  0.00     0.215 C 
HETATM   21  O           1       2.147  -1.850   2.621  0.00  0.00    -0.274 OA
HETATM   22  N           1       1.491  -3.475   1.237  0.00  0.00    -0.370 N 
HETATM   23  H           1       2.337  -4.006   1.400  0.00  0.00     0.159 HD
HETATM   24  H           1       0.785  -3.831   0.606  0.00  0.00     0.159 HD
ENDBRANCH  19  20
ENDBRANCH  18  19
ENDBRANCH  17  18
BRANCH  17  25
HETATM   25  N           1      -1.276   0.944   0.726  0.00  0.00    -0.066 N 
HETATM   26  H           1      -2.087   0.962   1.385  0.00  0.00     0.275 HD
HETATM   27  H           1      -1.330   1.767   0.085  0.00  0.00     0.275 HD
HETATM   28  H           1      -1.302   0.062   0.165  0.00  0.00     0.275 HD
ENDBRANCH  17  25
ENDBRANCH   4  17
TORSDOF 9
