REMARK  7 active torsions:
REMARK  status: ('A' for Active; 'I' for Inactive)
REMARK    1  A    between atoms: C_1  and  C_2 
REMARK    2  A    between atoms: C_1  and  N_5 
REMARK       I    between atoms: N_5  and  C_6 
REMARK    3  A    between atoms: C_6  and  C_7 
REMARK    4  A    between atoms: C_7  and  C_15 
REMARK    5  A    between atoms: C_7  and  N_13 
REMARK    6  A    between atoms: C_8  and  C_15 
REMARK    7  A    between atoms: C_8  and  C_10 
ROOT
HETATM    1  C           1       0.454  -0.509   1.400  0.00  0.00     0.275 C 
ENDROOT
BRANCH   1   2
HETATM    2  C           1      -0.049   0.202   0.167  0.00  0.00     0.249 C 
HETATM    3  N           1      -1.394   0.327  -0.050  0.00  0.00    -0.345 N 
HETATM    4  H           1      -2.052  -0.057   0.616  0.00  0.00     0.163 HD
HETATM    5  O           1       0.737   0.660  -0.628  0.00  0.00    -0.271 OA
BRANCH   3   6
HETATM    6  C           1      -1.877   1.010  -1.235  0.00  0.00     0.181 C 
HETATM    7  C           1      -3.400   1.010  -1.235  0.00  0.00     0.043 C 
BRANCH   6   8
HETATM    8  C           1      -1.373   2.432  -1.235  0.00  0.00     0.196 C 
HETATM    9  O           1      -0.144   2.660  -1.235  0.00  0.00    -0.646 OA
HETATM   10  O           1      -2.185   3.383  -1.235  0.00  0.00    -0.646 OA
ENDBRANCH   6   8
ENDBRANCH   3   6
ENDBRANCH   1   2
BRANCH   1  11
HETATM   11  C           1       1.977  -0.510   1.401  0.00  0.00     0.053 C 
BRANCH  11  12
HETATM   12  C           1       2.486  -1.229   0.159  0.00  0.00     0.115 C 
BRANCH  12  13
HETATM   13  C           1       3.326  -0.281  -0.663  0.00  0.00     0.172 C 
HETATM   14  O           1       3.844  -0.672  -1.731  0.00  0.00    -0.648 OA
HETATM   15  O           1       3.503   0.894  -0.275  0.00  0.00    -0.648 OA
ENDBRANCH  12  13
ENDBRANCH  11  12
ENDBRANCH   1  11
BRANCH   1  16
HETATM   16  N           1      -0.046  -1.923   1.399  0.00  0.00    -0.066 N 
HETATM   17  H           1       0.301  -2.416   2.253  0.00  0.00     0.275 HD
HETATM   18  H           1      -1.091  -1.923   1.399  0.00  0.00     0.275 HD
HETATM   19  H           1       0.303  -2.416   0.546  0.00  0.00     0.275 HD
ENDBRANCH   1  16
TORSDOF 7
