REMARK  10 active torsions:
REMARK  status: ('A' for Active; 'I' for Inactive)
REMARK    1  A    between atoms: C_1  and  C_2 
REMARK    2  A    between atoms: C_1  and  C_19 
REMARK    3  A    between atoms: C_1  and  N_13 
REMARK       I    between atoms: C_2  and  N_3 
REMARK    4  A    between atoms: N_3  and  C_12 
REMARK    5  A    between atoms: C_9  and  C_10 
REMARK    6  A    between atoms: C_9  and  C_12 
REMARK    7  A    between atoms: C_10  and  C_14 
REMARK    8  A    between atoms: C_11  and  C_12 
REMARK    9  A    between atoms: C_17  and  C_18 
REMARK   10  A    between atoms: C_18  and  C_19 
ROOT
HETATM    1  C           1      -0.197   0.565   0.525  0.00  0.00     0.249 C 
HETATM    2  N           1       0.698   0.428  -0.502  0.00  0.00    -0.345 N 
HETATM    3  O           1      -0.204  -0.234   1.431  0.00  0.00    -0.271 OA
HETATM    4  H           1       0.704   1.097  -1.261  0.00  0.00     0.163 HD
ENDROOT
BRANCH   1   5
HETATM    5  C           1      -1.176   1.713   0.524  0.00  0.00     0.275 C 
BRANCH   5   6
HETATM    6  C           1      -2.053   1.635   1.767  0.00  0.00     0.053 C 
BRANCH   6   7
HETATM    7  C           1      -2.817   0.317   1.767  0.00  0.00     0.115 C 
BRANCH   7   8
HETATM    8  C           1      -4.300   0.595   1.766  0.00  0.00     0.172 C 
HETATM    9  O           1      -4.715   1.774   1.765  0.00  0.00    -0.648 OA
HETATM   10  O           1      -5.114  -0.354   1.767  0.00  0.00    -0.648 OA
ENDBRANCH   7   8
ENDBRANCH   6   7
ENDBRANCH   5   6
BRANCH   5  11
HETATM   11  N           1      -2.038   1.633  -0.701  0.00  0.00    -0.066 N 
HETATM   12  H           1      -1.437   1.688  -1.554  0.00  0.00     0.275 HD
HETATM   13  H           1      -2.717   2.428  -0.703  0.00  0.00     0.275 HD
HETATM   14  H           1      -2.562   0.729  -0.700  0.00  0.00     0.275 HD
ENDBRANCH   5  11
ENDBRANCH   1   5
BRANCH   2  15
HETATM   15  C           1       1.639  -0.676  -0.501  0.00  0.00     0.186 C 
BRANCH  15  16
HETATM   16  C           1       2.515  -0.596  -1.744  0.00  0.00     0.046 C 
BRANCH  16  17
HETATM   17  C           1       3.504  -1.754  -1.744  0.00  0.00     0.116 C 
BRANCH  17  18
HETATM   18  C           1       2.750  -3.061  -1.744  0.00  0.00     0.172 C 
HETATM   19  O           1       1.500  -3.061  -1.744  0.00  0.00    -0.648 OA
HETATM   20  O           1       3.375  -4.144  -1.744  0.00  0.00    -0.648 OA
ENDBRANCH  17  18
ENDBRANCH  16  17
ENDBRANCH  15  16
BRANCH  15  21
HETATM   21  C           1       2.506  -0.596   0.732  0.00  0.00     0.196 C 
HETATM   22  O           1       1.984  -0.643   1.867  0.00  0.00    -0.646 OA
HETATM   23  O           1       3.745  -0.483   0.618  0.00  0.00    -0.646 OA
ENDBRANCH  15  21
ENDBRANCH   2  15
TORSDOF 10
