REMARK  9 active torsions:
REMARK  status: ('A' for Active; 'I' for Inactive)
REMARK       I    between atoms: N_2  and  C_3 
REMARK    1  A    between atoms: C_3  and  C_18 
REMARK    2  A    between atoms: N_5  and  C_11 
REMARK       I    between atoms: N_5  and  C_8 
REMARK    3  A    between atoms: C_7  and  C_8 
REMARK    4  A    between atoms: C_7  and  C_17 
REMARK    5  A    between atoms: C_7  and  N_16 
REMARK    6  A    between atoms: O_9  and  C_12 
REMARK    7  A    between atoms: C_10  and  C_11 
REMARK    8  A    between atoms: C_11  and  C_12 
REMARK    9  A    between atoms: C_17  and  C_18 
ROOT
HETATM    1  C           1       1.327  -0.102   0.597  0.00  0.00     0.275 C 
ENDROOT
BRANCH   1   2
HETATM    2  C           1      -0.182  -0.101   0.596  0.00  0.00     0.249 C 
HETATM    3  N           1      -0.868  -1.286   0.596  0.00  0.00    -0.343 N 
HETATM    4  H           1      -0.363  -2.163   0.597  0.00  0.00     0.163 HD
HETATM    5  O           1      -0.785   0.946   0.596  0.00  0.00    -0.271 OA
BRANCH   3   6
HETATM    6  C           1      -2.318  -1.284   0.595  0.00  0.00     0.209 C 
BRANCH   6   7
HETATM    7  C           1      -2.820  -0.572   1.827  0.00  0.00     0.198 C 
HETATM    8  O           1      -3.539  -1.179   2.650  0.00  0.00    -0.646 OA
HETATM    9  O           1      -2.517   0.624   2.024  0.00  0.00    -0.646 OA
ENDBRANCH   6   7
BRANCH   6  10
HETATM   10  C           1      -2.826  -2.720   0.595  0.00  0.00     0.200 C 
BRANCH  10  11
HETATM   11  O           1      -4.228  -2.720   0.595  0.00  0.00    -0.398 OA
HETATM   12  H           1      -4.502  -3.621   0.595  0.00  0.00     0.209 HD
ENDBRANCH  10  11
ENDBRANCH   6  10
ENDBRANCH   3   6
ENDBRANCH   1   2
BRANCH   1  13
HETATM   13  C           1       1.837   1.333   0.597  0.00  0.00     0.052 C 
BRANCH  13  14
HETATM   14  C           1       1.331   2.052  -0.647  0.00  0.00     0.105 C 
BRANCH  14  15
HETATM   15  C           1       2.506   2.524  -1.468  0.00  0.00     0.215 C 
HETATM   16  O           1       3.633   2.306  -1.091  0.00  0.00    -0.274 OA
HETATM   17  N           1       2.294   3.201  -2.639  0.00  0.00    -0.370 N 
HETATM   18  H           1       3.082   3.518  -3.189  0.00  0.00     0.159 HD
HETATM   19  H           1       1.350   3.384  -2.954  0.00  0.00     0.159 HD
ENDBRANCH  14  15
ENDBRANCH  13  14
ENDBRANCH   1  13
BRANCH   1  20
HETATM   20  N           1       1.826  -0.810  -0.628  0.00  0.00    -0.066 N 
HETATM   21  H           1       2.871  -0.811  -0.628  0.00  0.00     0.275 HD
HETATM   22  H           1       1.477  -1.795  -0.628  0.00  0.00     0.275 HD
HETATM   23  H           1       1.478  -0.316  -1.481  0.00  0.00     0.275 HD
ENDBRANCH   1  20
TORSDOF 9
