REMARK  10 active torsions:
REMARK  status: ('A' for Active; 'I' for Inactive)
REMARK    1  A    between atoms: C_1  and  C_14 
REMARK    2  A    between atoms: C_1  and  C_2 
REMARK    3  A    between atoms: C_1  and  N_8 
REMARK    4  A    between atoms: C_2  and  C_3 
REMARK    5  A    between atoms: C_3  and  C_4 
REMARK    6  A    between atoms: S_6  and  C_7 
REMARK    7  A    between atoms: C_7  and  C_13 
REMARK    8  A    between atoms: C_13  and  C_22 
REMARK       I    between atoms: C_14  and  N_18 
REMARK    9  A    between atoms: N_18  and  C_22 
REMARK   10  A    between atoms: C_21  and  C_22 
ROOT
HETATM    1  O           1       1.436  -1.087  -0.576  0.00  0.00    -0.271 OA
HETATM    2  H           1      -1.482  -0.077  -0.024  0.00  0.00     0.163 HD
HETATM    3  C           1       0.255  -0.924  -0.766  0.00  0.00     0.249 C 
HETATM    4  N           1      -0.492  -0.214   0.136  0.00  0.00    -0.345 N 
ENDROOT
BRANCH   3   5
HETATM    5  C           1      -0.398  -1.503  -1.997  0.00  0.00     0.275 C 
BRANCH   5   6
HETATM    6  C           1       0.644  -2.239  -2.827  0.00  0.00     0.053 C 
BRANCH   6   7
HETATM    7  C           1       1.741  -1.268  -3.244  0.00  0.00     0.115 C 
BRANCH   7   8
HETATM    8  C           1       3.066  -1.740  -2.699  0.00  0.00     0.172 C 
HETATM    9  O           1       4.105  -1.083  -2.926  0.00  0.00    -0.648 OA
HETATM   10  O           1       3.125  -2.788  -2.020  0.00  0.00    -0.648 OA
ENDBRANCH   7   8
ENDBRANCH   6   7
ENDBRANCH   5   6
BRANCH   5  11
HETATM   11  N           1      -0.995  -0.395  -2.813  0.00  0.00    -0.066 N 
HETATM   12  H           1      -1.448  -0.795  -3.666  0.00  0.00     0.275 HD
HETATM   13  H           1      -1.711   0.110  -2.244  0.00  0.00     0.275 HD
HETATM   14  H           1      -0.242   0.272  -3.099  0.00  0.00     0.275 HD
ENDBRANCH   5  11
ENDBRANCH   3   5
BRANCH   4  15
HETATM   15  C           1       0.136   0.342   1.318  0.00  0.00     0.186 C 
BRANCH  15  16
HETATM   16  C           1      -0.908   1.079   2.148  0.00  0.00     0.046 C 
BRANCH  16  17
HETATM   17  C           1      -0.251   1.663   3.391  0.00  0.00     0.076 C 
BRANCH  17  18
HETATM   18  S           1      -0.450   3.467   3.391  0.00  0.00    -0.173 SA
HETATM   19  C           1      -2.265   3.467   3.391  0.00  0.00     0.089 C 
ENDBRANCH  17  18
ENDBRANCH  16  17
ENDBRANCH  15  16
BRANCH  15  20
HETATM   20  C           1       0.737  -0.772   2.139  0.00  0.00     0.196 C 
HETATM   21  O           1       0.351  -0.962   3.313  0.00  0.00    -0.646 OA
HETATM   22  O           1       1.620  -1.506   1.646  0.00  0.00    -0.646 OA
ENDBRANCH  15  20
ENDBRANCH   4  15
TORSDOF 10
