REMARK  9 active torsions:
REMARK  status: ('A' for Active; 'I' for Inactive)
REMARK       I    between atoms: N_1  and  C_13 
REMARK    1  A    between atoms: N_3  and  C_22 
REMARK    2  A    between atoms: C_5  and  C_16 
REMARK    3  A    between atoms: C_5  and  C_6 
REMARK    4  A    between atoms: C_5  and  N_24 
REMARK    5  A    between atoms: C_13  and  C_18 
REMARK    6  A    between atoms: C_16  and  C_20 
REMARK    7  A    between atoms: C_18  and  C_19 
REMARK    8  A    between atoms: C_19  and  C_22 
REMARK    9  A    between atoms: C_22  and  C_23 
REMARK       I    between atoms: C_23  and  N_24 
ROOT
HETATM    1  C           1      -0.413  -0.807  -1.666  0.00  0.00     0.275 C 
ENDROOT
BRANCH   1   2
HETATM    2  N           1      -1.579  -1.277  -0.849  0.00  0.00    -0.066 N 
HETATM    3  H           1      -2.161  -1.935  -1.416  0.00  0.00     0.275 HD
HETATM    4  H           1      -1.230  -1.770   0.004  0.00  0.00     0.275 HD
HETATM    5  H           1      -2.160  -0.456  -0.565  0.00  0.00     0.275 HD
ENDBRANCH   1   2
BRANCH   1   6
HETATM    6  C           1      -0.922  -0.090  -2.910  0.00  0.00     0.052 C 
BRANCH   6   7
HETATM    7  C           1      -1.769   1.106  -2.497  0.00  0.00     0.105 C 
BRANCH   7   8
HETATM    8  C           1      -3.167   0.947  -3.043  0.00  0.00     0.215 C 
HETATM    9  N           1      -4.111   1.907  -2.798  0.00  0.00    -0.370 N 
HETATM   10  H           1      -5.048   1.800  -3.164  0.00  0.00     0.159 HD
HETATM   11  H           1      -3.872   2.723  -2.250  0.00  0.00     0.159 HD
HETATM   12  O           1      -3.452  -0.028  -3.697  0.00  0.00    -0.274 OA
ENDBRANCH   7   8
ENDBRANCH   6   7
ENDBRANCH   1   6
BRANCH   1  13
HETATM   13  C           1       0.425   0.142  -0.846  0.00  0.00     0.249 C 
HETATM   14  O           1       0.595   1.277  -1.222  0.00  0.00    -0.271 OA
HETATM   15  N           1       0.993  -0.283   0.325  0.00  0.00    -0.344 N 
HETATM   16  H           1       0.850  -1.234   0.640  0.00  0.00     0.163 HD
BRANCH  15  17
HETATM   17  C           1       1.798   0.629   1.114  0.00  0.00     0.189 C 
BRANCH  17  18
HETATM   18  C           1       2.307  -0.089   2.357  0.00  0.00     0.014 C 
HETATM   19  C           1       1.800   0.630   3.600  0.00  0.00     0.012 C 
BRANCH  18  20
HETATM   20  C           1       1.798  -1.524   2.357  0.00  0.00     0.002 C 
HETATM   21  C           1       0.275  -1.524   2.357  0.00  0.00     0.005 C 
ENDBRANCH  18  20
ENDBRANCH  17  18
BRANCH  17  22
HETATM   22  C           1       2.971   1.103   0.291  0.00  0.00     0.197 C 
HETATM   23  O           1       2.775   1.720  -0.779  0.00  0.00    -0.646 OA
HETATM   24  O           1       4.138   0.879   0.678  0.00  0.00    -0.646 OA
ENDBRANCH  17  22
ENDBRANCH  15  17
ENDBRANCH   1  13
TORSDOF 9
