REMARK  11 active torsions:
REMARK  status: ('A' for Active; 'I' for Inactive)
REMARK    1  A    between atoms: C_2  and  C_3 
REMARK    2  A    between atoms: C_2  and  O_15 
REMARK    3  A    between atoms: C_3  and  C_10 
REMARK    4  A    between atoms: C_3  and  N_19 
REMARK    5  A    between atoms: O_7  and  P_14 
REMARK    6  A    between atoms: P_14  and  O_15 
REMARK    7  A    between atoms: N_16  and  C_21 
REMARK       I    between atoms: N_19  and  C_20 
REMARK    8  A    between atoms: C_20  and  C_21 
REMARK    9  A    between atoms: C_21  and  C_22 
REMARK   10  A    between atoms: C_22  and  C_23 
REMARK   11  A    between atoms: C_23  and  C_24 
ROOT
HETATM    1  O           1       1.102   0.392   1.030  0.00  0.00    -0.271 OA
HETATM    2  H           1       0.329  -2.382  -0.214  0.00  0.00     0.163 HD
HETATM    3  N           1       0.325  -1.620   0.452  0.00  0.00    -0.343 N 
HETATM    4  C           1       1.107  -0.517   0.235  0.00  0.00     0.249 C 
ENDROOT
BRANCH   3   5
HETATM    5  C           1      -0.507  -1.697   1.637  0.00  0.00     0.210 C 
BRANCH   5   6
HETATM    6  C           1      -1.497  -0.538   1.637  0.00  0.00     0.217 C 
BRANCH   6   7
HETATM    7  O           1      -2.303  -0.612   0.492  0.00  0.00    -0.287 OA
BRANCH   7   8
HETATM    8  P           1      -3.415   0.549   0.334  0.00  0.00     0.406 P 
HETATM    9  O           1      -4.338   0.509   1.490  0.00  0.00    -0.624 OA
HETATM   10  O           1      -2.747   1.869   0.281  0.00  0.00    -0.624 OA
BRANCH   8  11
HETATM   11  O           1      -4.247   0.314  -1.030  0.00  0.00    -0.300 OA
HETATM   12  H           1      -4.872   1.018  -1.059  0.00  0.00     0.223 HD
ENDBRANCH   8  11
ENDBRANCH   7   8
ENDBRANCH   6   7
ENDBRANCH   5   6
BRANCH   5  13
HETATM   13  C           1      -1.262  -3.003   1.637  0.00  0.00     0.198 C 
HETATM   14  O           1      -2.512  -3.003   1.637  0.00  0.00    -0.646 OA
HETATM   15  O           1      -0.637  -4.086   1.637  0.00  0.00    -0.646 OA
ENDBRANCH   5  13
ENDBRANCH   3   5
BRANCH   4  16
HETATM   16  C           1       1.973  -0.437  -0.998  0.00  0.00     0.275 C 
BRANCH  16  17
HETATM   17  N           1       1.109  -0.516  -2.222  0.00  0.00    -0.066 N 
HETATM   18  H           1       0.431   0.279  -2.220  0.00  0.00     0.275 HD
HETATM   19  H           1       0.587  -1.421  -2.221  0.00  0.00     0.275 HD
HETATM   20  H           1       1.709  -0.461  -3.076  0.00  0.00     0.275 HD
ENDBRANCH  16  17
BRANCH  16  21
HETATM   21  C           1       2.735   0.881  -0.999  0.00  0.00     0.053 C 
BRANCH  21  22
HETATM   22  C           1       1.747   2.040  -0.999  0.00  0.00     0.115 C 
BRANCH  22  23
HETATM   23  C           1       1.962   2.885   0.232  0.00  0.00     0.172 C 
HETATM   24  O           1       2.852   2.576   1.055  0.00  0.00    -0.648 OA
HETATM   25  O           1       1.251   3.894   0.430  0.00  0.00    -0.648 OA
ENDBRANCH  22  23
ENDBRANCH  21  22
ENDBRANCH  16  21
ENDBRANCH   4  16
TORSDOF 11
