REMARK  10 active torsions:
REMARK  status: ('A' for Active; 'I' for Inactive)
REMARK    1  A    between atoms: C_1  and  C_18 
REMARK    2  A    between atoms: C_1  and  C_19 
REMARK    3  A    between atoms: C_1  and  N_23 
REMARK    4  A    between atoms: N_2  and  C_15 
REMARK       I    between atoms: N_2  and  C_18 
REMARK    5  A    between atoms: C_4  and  C_10 
REMARK    6  A    between atoms: C_6  and  C_15 
REMARK    7  A    between atoms: C_8  and  C_19 
REMARK    8  A    between atoms: C_8  and  C_22 
REMARK    9  A    between atoms: C_9  and  C_10 
REMARK   10  A    between atoms: C_9  and  C_15 
REMARK       I    between atoms: N_21  and  C_22 
ROOT
HETATM    1  N           1       1.016   0.479  -0.603  0.00  0.00    -0.345 N 
HETATM    2  O           1       0.113  -0.183   1.330  0.00  0.00    -0.271 OA
HETATM    3  C           1       0.120   0.616   0.424  0.00  0.00     0.249 C 
HETATM    4  H           1       1.021   1.148  -1.362  0.00  0.00     0.163 HD
ENDROOT
BRANCH   3   5
HETATM    5  C           1      -0.859   1.764   0.423  0.00  0.00     0.275 C 
BRANCH   5   6
HETATM    6  C           1      -1.736   1.686   1.666  0.00  0.00     0.052 C 
BRANCH   6   7
HETATM    7  C           1      -2.500   0.368   1.666  0.00  0.00     0.105 C 
BRANCH   7   8
HETATM    8  C           1      -3.983   0.646   1.665  0.00  0.00     0.215 C 
HETATM    9  O           1      -4.384   1.786   1.664  0.00  0.00    -0.274 OA
HETATM   10  N           1      -4.874  -0.393   1.666  0.00  0.00    -0.370 N 
HETATM   11  H           1      -4.538  -1.348   1.667  0.00  0.00     0.159 HD
HETATM   12  H           1      -5.869  -0.206   1.665  0.00  0.00     0.159 HD
ENDBRANCH   7   8
ENDBRANCH   6   7
ENDBRANCH   5   6
BRANCH   5  13
HETATM   13  N           1      -1.721   1.684  -0.802  0.00  0.00    -0.066 N 
HETATM   14  H           1      -2.245   0.780  -0.801  0.00  0.00     0.275 HD
HETATM   15  H           1      -1.119   1.739  -1.655  0.00  0.00     0.275 HD
HETATM   16  H           1      -2.399   2.479  -0.804  0.00  0.00     0.275 HD
ENDBRANCH   5  13
ENDBRANCH   3   5
BRANCH   1  17
HETATM   17  C           1       1.956  -0.625  -0.602  0.00  0.00     0.186 C 
BRANCH  17  18
HETATM   18  C           1       2.823  -0.545   0.631  0.00  0.00     0.196 C 
HETATM   19  O           1       4.063  -0.432   0.517  0.00  0.00    -0.646 OA
HETATM   20  O           1       2.301  -0.592   1.766  0.00  0.00    -0.646 OA
ENDBRANCH  17  18
BRANCH  17  21
HETATM   21  C           1       2.832  -0.545  -1.845  0.00  0.00     0.046 C 
BRANCH  21  22
HETATM   22  C           1       3.821  -1.703  -1.845  0.00  0.00     0.116 C 
BRANCH  22  23
HETATM   23  C           1       3.067  -3.010  -1.845  0.00  0.00     0.172 C 
HETATM   24  O           1       1.817  -3.010  -1.845  0.00  0.00    -0.648 OA
HETATM   25  O           1       3.692  -4.093  -1.845  0.00  0.00    -0.648 OA
ENDBRANCH  22  23
ENDBRANCH  21  22
ENDBRANCH  17  21
ENDBRANCH   1  17
TORSDOF 10
