REMARK  9 active torsions:
REMARK  status: ('A' for Active; 'I' for Inactive)
REMARK    1  A    between atoms: C_2  and  C_4 
REMARK    2  A    between atoms: C_4  and  C_5 
REMARK    3  A    between atoms: C_4  and  N_19 
REMARK    4  A    between atoms: C_5  and  C_15 
REMARK    5  A    between atoms: N_13  and  C_17 
REMARK    6  A    between atoms: C_16  and  C_17 
REMARK    7  A    between atoms: C_16  and  C_23 
REMARK    8  A    between atoms: C_17  and  C_18 
REMARK       I    between atoms: C_18  and  N_19 
REMARK    9  A    between atoms: C_23  and  C_24 
ROOT
HETATM    1  O           1       2.135  -0.740   1.200  0.00  0.00    -0.271 OA
HETATM    2  C           1       1.763   0.350   0.836  0.00  0.00     0.249 C 
HETATM    3  N           1       2.396   0.977  -0.203  0.00  0.00    -0.344 N 
HETATM    4  H           1       3.182   1.587  -0.022  0.00  0.00     0.163 HD
ENDROOT
BRANCH   3   5
HETATM    5  C           1       1.938   0.768  -1.563  0.00  0.00     0.189 C 
BRANCH   5   6
HETATM    6  C           1       2.798   1.567  -2.511  0.00  0.00     0.197 C 
HETATM    7  O           1       4.028   1.354  -2.570  0.00  0.00    -0.646 OA
HETATM    8  O           1       2.280   2.443  -3.237  0.00  0.00    -0.646 OA
ENDBRANCH   5   6
BRANCH   5   9
HETATM    9  C           1       0.489   1.221  -1.686  0.00  0.00     0.074 C 
BRANCH   9  10
HETATM   10  C           1      -0.421   0.073  -1.382  0.00  0.00    -0.056 A 
HETATM   11  C           1       0.114  -1.172  -1.049  0.00  0.00     0.007 A 
HETATM   12  C           1      -0.735  -2.242  -0.765  0.00  0.00     0.001 A 
HETATM   13  C           1      -2.118  -2.068  -0.814  0.00  0.00     0.000 A 
HETATM   14  C           1      -2.653  -0.823  -1.146  0.00  0.00     0.001 A 
HETATM   15  C           1      -1.804   0.247  -1.430  0.00  0.00     0.007 A 
ENDBRANCH   9  10
ENDBRANCH   5   9
ENDBRANCH   3   5
BRANCH   2  16
HETATM   16  C           1       0.600   1.019   1.526  0.00  0.00     0.275 C 
BRANCH  16  17
HETATM   17  N           1      -0.495   1.267   0.532  0.00  0.00    -0.066 N 
HETATM   18  H           1      -1.301   1.730   1.009  0.00  0.00     0.275 HD
HETATM   19  H           1      -0.139   1.886  -0.231  0.00  0.00     0.275 HD
HETATM   20  H           1      -0.809   0.357   0.125  0.00  0.00     0.275 HD
ENDBRANCH  16  17
BRANCH  16  21
HETATM   21  C           1       0.081   0.117   2.638  0.00  0.00     0.053 C 
BRANCH  21  22
HETATM   22  C           1      -0.377  -1.209   2.045  0.00  0.00     0.115 C 
BRANCH  22  23
HETATM   23  C           1      -1.842  -1.415   2.342  0.00  0.00     0.172 C 
HETATM   24  O           1      -2.476  -0.553   2.988  0.00  0.00    -0.648 OA
HETATM   25  O           1      -2.422  -2.448   1.942  0.00  0.00    -0.648 OA
ENDBRANCH  22  23
ENDBRANCH  21  22
ENDBRANCH  16  21
ENDBRANCH   2  16
TORSDOF 9
