REMARK  9 active torsions:
REMARK  status: ('A' for Active; 'I' for Inactive)
REMARK    1  A    between atoms: C_1  and  C_11 
REMARK    2  A    between atoms: C_5  and  C_10 
REMARK    3  A    between atoms: C_10  and  C_21 
REMARK    4  A    between atoms: C_11  and  C_20 
REMARK    5  A    between atoms: N_15  and  C_20 
REMARK       I    between atoms: N_15  and  C_16 
REMARK    6  A    between atoms: C_16  and  C_17 
REMARK    7  A    between atoms: C_17  and  C_21 
REMARK    8  A    between atoms: C_17  and  N_22 
REMARK    9  A    between atoms: C_19  and  C_20 
ROOT
HETATM    1  H           1       0.607  -1.108   0.495  0.00  0.00     0.163 HD
HETATM    2  O           1       0.352   1.403  -1.367  0.00  0.00    -0.271 OA
HETATM    3  N           1       0.750  -0.157   0.180  0.00  0.00    -0.344 N 
HETATM    4  C           1       0.182   0.268  -0.991  0.00  0.00     0.249 C 
ENDROOT
BRANCH   4   5
HETATM    5  C           1      -0.656  -0.681  -1.812  0.00  0.00     0.275 C 
BRANCH   5   6
HETATM    6  C           1      -1.165   0.035  -3.055  0.00  0.00     0.053 C 
BRANCH   6   7
HETATM    7  C           1      -2.012   1.231  -2.642  0.00  0.00     0.115 C 
BRANCH   7   8
HETATM    8  C           1      -3.410   1.072  -3.188  0.00  0.00     0.172 C 
HETATM    9  O           1      -4.272   1.949  -2.964  0.00  0.00    -0.648 OA
HETATM   10  O           1      -3.705   0.064  -3.865  0.00  0.00    -0.648 OA
ENDBRANCH   7   8
ENDBRANCH   6   7
ENDBRANCH   5   6
BRANCH   5  11
HETATM   11  N           1      -1.822  -1.152  -0.994  0.00  0.00    -0.066 N 
HETATM   12  H           1      -1.473  -1.644  -0.141  0.00  0.00     0.275 HD
HETATM   13  H           1      -2.404  -1.810  -1.561  0.00  0.00     0.275 HD
HETATM   14  H           1      -2.403  -0.331  -0.710  0.00  0.00     0.275 HD
ENDBRANCH   5  11
ENDBRANCH   4   5
BRANCH   3  15
HETATM   15  C           1       1.555   0.755   0.968  0.00  0.00     0.189 C 
BRANCH  15  16
HETATM   16  C           1       2.064   0.037   2.212  0.00  0.00     0.014 C 
HETATM   17  C           1       1.557   0.756   3.455  0.00  0.00     0.012 C 
BRANCH  16  18
HETATM   18  C           1       1.555  -1.399   2.212  0.00  0.00     0.002 C 
HETATM   19  C           1       0.032  -1.399   2.212  0.00  0.00     0.005 C 
ENDBRANCH  16  18
ENDBRANCH  15  16
BRANCH  15  20
HETATM   20  C           1       2.728   1.229   0.146  0.00  0.00     0.197 C 
HETATM   21  O           1       2.532   1.846  -0.924  0.00  0.00    -0.646 OA
HETATM   22  O           1       3.895   1.004   0.533  0.00  0.00    -0.646 OA
ENDBRANCH  15  20
ENDBRANCH   3  15
TORSDOF 9
