REMARK  9 active torsions:
REMARK  status: ('A' for Active; 'I' for Inactive)
REMARK    1  A    between atoms: N_2  and  C_25 
REMARK       I    between atoms: N_2  and  C_10 
REMARK       I    between atoms: N_4  and  C_16 
REMARK    2  A    between atoms: N_6  and  C_11 
REMARK    3  A    between atoms: C_10  and  C_11 
REMARK    4  A    between atoms: C_11  and  C_18 
REMARK    5  A    between atoms: C_16  and  C_17 
REMARK    6  A    between atoms: C_17  and  C_18 
REMARK    7  A    between atoms: C_23  and  C_25 
REMARK    8  A    between atoms: C_25  and  C_26 
REMARK    9  A    between atoms: C_26  and  C_27 
ROOT
HETATM    1  H           1       3.319   1.739  -0.108  0.00  0.00     0.163 HD
HETATM    2  N           1       2.532   1.129  -0.289  0.00  0.00    -0.344 N 
HETATM    3  O           1       2.272  -0.589   1.115  0.00  0.00    -0.271 OA
HETATM    4  C           1       1.899   0.501   0.750  0.00  0.00     0.249 C 
ENDROOT
BRANCH   4   5
HETATM    5  C           1       0.736   1.170   1.440  0.00  0.00     0.275 C 
BRANCH   5   6
HETATM    6  N           1      -0.359   1.418   0.446  0.00  0.00    -0.066 N 
HETATM    7  H           1      -1.165   1.882   0.923  0.00  0.00     0.275 HD
HETATM    8  H           1      -0.003   2.038  -0.316  0.00  0.00     0.275 HD
HETATM    9  H           1      -0.672   0.508   0.039  0.00  0.00     0.275 HD
ENDBRANCH   5   6
BRANCH   5  10
HETATM   10  C           1       0.217   0.268   2.552  0.00  0.00     0.052 C 
BRANCH  10  11
HETATM   11  C           1      -0.240  -1.058   1.959  0.00  0.00     0.105 C 
BRANCH  11  12
HETATM   12  C           1      -1.705  -1.264   2.256  0.00  0.00     0.215 C 
HETATM   13  N           1      -2.340  -2.395   1.819  0.00  0.00    -0.370 N 
HETATM   14  H           1      -3.323  -2.533   2.018  0.00  0.00     0.159 HD
HETATM   15  H           1      -1.827  -3.093   1.295  0.00  0.00     0.159 HD
HETATM   16  O           1      -2.318  -0.431   2.881  0.00  0.00    -0.274 OA
ENDBRANCH  11  12
ENDBRANCH  10  11
ENDBRANCH   5  10
ENDBRANCH   4   5
BRANCH   2  17
HETATM   17  C           1       2.075   0.919  -1.649  0.00  0.00     0.189 C 
BRANCH  17  18
HETATM   18  C           1       2.935   1.719  -2.597  0.00  0.00     0.197 C 
HETATM   19  O           1       4.165   1.505  -2.656  0.00  0.00    -0.646 OA
HETATM   20  O           1       2.417   2.595  -3.323  0.00  0.00    -0.646 OA
ENDBRANCH  17  18
BRANCH  17  21
HETATM   21  C           1       0.626   1.373  -1.772  0.00  0.00     0.074 C 
BRANCH  21  22
HETATM   22  C           1      -0.285   0.224  -1.467  0.00  0.00    -0.056 A 
HETATM   23  C           1      -1.668   0.398  -1.516  0.00  0.00     0.007 A 
HETATM   24  C           1      -2.516  -0.672  -1.232  0.00  0.00     0.001 A 
HETATM   25  C           1      -1.981  -1.916  -0.900  0.00  0.00     0.000 A 
HETATM   26  C           1      -0.598  -2.091  -0.851  0.00  0.00     0.001 A 
HETATM   27  C           1       0.250  -1.021  -1.135  0.00  0.00     0.007 A 
ENDBRANCH  21  22
ENDBRANCH  17  21
ENDBRANCH   2  17
TORSDOF 9
