REMARK  11 active torsions:
REMARK  status: ('A' for Active; 'I' for Inactive)
REMARK    1  A    between atoms: C_1  and  C_16 
REMARK    2  A    between atoms: C_1  and  C_2 
REMARK    3  A    between atoms: C_1  and  N_21 
REMARK    4  A    between atoms: C_2  and  C_25 
REMARK    5  A    between atoms: C_6  and  C_9 
REMARK    6  A    between atoms: C_6  and  C_7 
REMARK    7  A    between atoms: C_6  and  N_17 
REMARK    8  A    between atoms: C_7  and  O_24 
REMARK    9  A    between atoms: C_11  and  C_25 
REMARK       I    between atoms: C_11  and  N_12 
REMARK   10  A    between atoms: P_14  and  O_24 
REMARK   11  A    between atoms: P_14  and  O_19 
REMARK       I    between atoms: C_16  and  N_17 
ROOT
HETATM    1  H           1       0.280  -2.636  -0.244  0.00  0.00     0.163 HD
HETATM    2  O           1       1.054   0.138   1.000  0.00  0.00    -0.271 OA
HETATM    3  C           1       1.058  -0.772   0.205  0.00  0.00     0.249 C 
HETATM    4  N           1       0.277  -1.874   0.422  0.00  0.00    -0.343 N 
ENDROOT
BRANCH   3   5
HETATM    5  C           1       1.925  -0.692  -1.028  0.00  0.00     0.275 C 
BRANCH   5   6
HETATM    6  C           1       2.687   0.627  -1.029  0.00  0.00     0.052 C 
BRANCH   6   7
HETATM    7  C           1       1.699   1.785  -1.029  0.00  0.00     0.105 C 
BRANCH   7   8
HETATM    8  C           1       1.914   2.631   0.202  0.00  0.00     0.215 C 
HETATM    9  N           1       1.135   3.736   0.419  0.00  0.00    -0.370 N 
HETATM   10  H           1       1.280   4.303   1.245  0.00  0.00     0.159 HD
HETATM   11  H           1       0.415   3.986  -0.247  0.00  0.00     0.159 HD
HETATM   12  O           1       2.773   2.332   0.997  0.00  0.00    -0.274 OA
ENDBRANCH   7   8
ENDBRANCH   6   7
ENDBRANCH   5   6
BRANCH   5  13
HETATM   13  N           1       1.061  -0.770  -2.252  0.00  0.00    -0.066 N 
HETATM   14  H           1       1.660  -0.715  -3.106  0.00  0.00     0.275 HD
HETATM   15  H           1       0.538  -1.675  -2.251  0.00  0.00     0.275 HD
HETATM   16  H           1       0.382   0.024  -2.250  0.00  0.00     0.275 HD
ENDBRANCH   5  13
ENDBRANCH   3   5
BRANCH   4  17
HETATM   17  C           1      -0.556  -1.951   1.607  0.00  0.00     0.210 C 
BRANCH  17  18
HETATM   18  C           1      -1.310  -3.258   1.607  0.00  0.00     0.198 C 
HETATM   19  O           1      -2.560  -3.258   1.607  0.00  0.00    -0.646 OA
HETATM   20  O           1      -0.685  -4.340   1.607  0.00  0.00    -0.646 OA
ENDBRANCH  17  18
BRANCH  17  21
HETATM   21  C           1      -1.545  -0.793   1.607  0.00  0.00     0.217 C 
BRANCH  21  22
HETATM   22  O           1      -2.351  -0.866   0.462  0.00  0.00    -0.287 OA
BRANCH  22  23
HETATM   23  P           1      -3.463   0.295   0.304  0.00  0.00     0.406 P 
HETATM   24  O           1      -2.795   1.614   0.252  0.00  0.00    -0.624 OA
HETATM   25  O           1      -4.386   0.255   1.460  0.00  0.00    -0.624 OA
BRANCH  23  26
HETATM   26  O           1      -4.296   0.059  -1.060  0.00  0.00    -0.300 OA
HETATM   27  H           1      -4.920   0.764  -1.089  0.00  0.00     0.223 HD
ENDBRANCH  23  26
ENDBRANCH  22  23
ENDBRANCH  21  22
ENDBRANCH  17  21
ENDBRANCH   4  17
TORSDOF 11
