REMARK  9 active torsions:
REMARK  status: ('A' for Active; 'I' for Inactive)
REMARK    1  A    between atoms: C_1  and  C_15 
REMARK    2  A    between atoms: N_3  and  C_19 
REMARK    3  A    between atoms: C_8  and  C_17 
REMARK    4  A    between atoms: C_8  and  C_9 
REMARK    5  A    between atoms: C_9  and  C_10 
REMARK    6  A    between atoms: C_9  and  N_22 
REMARK    7  A    between atoms: C_15  and  C_21 
REMARK       I    between atoms: C_18  and  N_22 
REMARK    8  A    between atoms: C_18  and  C_19 
REMARK    9  A    between atoms: C_19  and  C_21 
ROOT
HETATM    1  O           1      -1.300   0.225   0.367  0.00  0.00    -0.271 OA
HETATM    2  H           1       1.603  -0.963   0.368  0.00  0.00     0.163 HD
HETATM    3  C           1      -0.092   0.224   0.368  0.00  0.00     0.249 C 
HETATM    4  N           1       0.591  -0.962   0.368  0.00  0.00    -0.344 N 
ENDROOT
BRANCH   3   5
HETATM    5  C           1       0.663   1.530   0.369  0.00  0.00     0.275 C 
BRANCH   5   6
HETATM    6  N           1       1.526   1.609  -0.856  0.00  0.00    -0.066 N 
HETATM    7  H           1       2.049   2.513  -0.857  0.00  0.00     0.275 HD
HETATM    8  H           1       2.204   0.814  -0.856  0.00  0.00     0.275 HD
HETATM    9  H           1       0.924   1.554  -1.709  0.00  0.00     0.275 HD
ENDBRANCH   5   6
BRANCH   5  10
HETATM   10  C           1      -0.324   2.689   0.369  0.00  0.00     0.053 C 
BRANCH  10  11
HETATM   11  C           1      -1.200   2.611  -0.875  0.00  0.00     0.115 C 
BRANCH  11  12
HETATM   12  C           1      -1.022   3.864  -1.696  0.00  0.00     0.172 C 
HETATM   13  O           1      -1.654   4.006  -2.765  0.00  0.00    -0.648 OA
HETATM   14  O           1      -0.243   4.761  -1.307  0.00  0.00    -0.648 OA
ENDBRANCH  11  12
ENDBRANCH  10  11
ENDBRANCH   5  10
ENDBRANCH   3   5
BRANCH   4  15
HETATM   15  C           1      -0.135  -2.217   0.367  0.00  0.00     0.195 C 
BRANCH  15  16
HETATM   16  C           1       0.854  -3.375   0.367  0.00  0.00     0.149 C 
BRANCH  16  17
HETATM   17  C           1       0.099  -4.682   0.367  0.00  0.00     0.175 C 
HETATM   18  O           1      -1.151  -4.682   0.367  0.00  0.00    -0.648 OA
HETATM   19  O           1       0.724  -5.765   0.367  0.00  0.00    -0.648 OA
ENDBRANCH  16  17
ENDBRANCH  15  16
BRANCH  15  20
HETATM   20  C           1      -1.003  -2.296   1.599  0.00  0.00     0.197 C 
HETATM   21  O           1      -0.837  -3.222   2.422  0.00  0.00    -0.646 OA
HETATM   22  O           1      -1.888  -1.436   1.796  0.00  0.00    -0.646 OA
ENDBRANCH  15  20
ENDBRANCH   4  15
TORSDOF 9
