REMARK  11 active torsions:
REMARK  status: ('A' for Active; 'I' for Inactive)
REMARK       I    between atoms: N_2  and  C_27 
REMARK       I    between atoms: N_6  and  C_27 
REMARK    1  A    between atoms: N_6  and  C_9 
REMARK    2  A    between atoms: C_9  and  C_23 
REMARK    3  A    between atoms: C_10  and  C_26 
REMARK       I    between atoms: C_10  and  N_11 
REMARK    4  A    between atoms: N_13  and  C_24 
REMARK    5  A    between atoms: C_16  and  C_21 
REMARK       I    between atoms: C_17  and  N_18 
REMARK    6  A    between atoms: C_17  and  C_24 
REMARK    7  A    between atoms: N_18  and  C_21 
REMARK    8  A    between atoms: C_21  and  C_22 
REMARK    9  A    between atoms: C_22  and  C_23 
REMARK   10  A    between atoms: C_24  and  C_25 
REMARK   11  A    between atoms: C_25  and  C_26 
ROOT
HETATM    1  H           1       1.415  -0.973  -1.378  0.00  0.00     0.163 HD
HETATM    2  C           1       0.444   0.851  -1.493  0.00  0.00     0.249 C 
HETATM    3  N           1       1.259  -0.086  -0.916  0.00  0.00    -0.345 N 
HETATM    4  O           1       0.257   1.910  -0.942  0.00  0.00    -0.271 OA
ENDROOT
BRANCH   3   5
HETATM    5  C           1       1.898   0.193   0.355  0.00  0.00     0.185 C 
BRANCH   5   6
HETATM    6  C           1       2.780   1.409   0.218  0.00  0.00     0.196 C 
HETATM    7  O           1       2.284   2.506  -0.118  0.00  0.00    -0.646 OA
HETATM    8  O           1       4.007   1.320   0.439  0.00  0.00    -0.646 OA
ENDBRANCH   5   6
BRANCH   5   9
HETATM    9  C           1       2.743  -1.004   0.771  0.00  0.00     0.038 C 
BRANCH   9  10
HETATM   10  C           1       1.897  -1.961   1.600  0.00  0.00     0.023 C 
BRANCH  10  11
HETATM   11  C           1       1.389  -1.243   2.843  0.00  0.00     0.138 C 
BRANCH  11  12
HETATM   12  N           1      -0.081  -1.243   2.843  0.00  0.00    -0.227 N 
HETATM   13  C           1      -0.714  -2.340   2.843  0.00  0.00     0.665 C 
HETATM   14  N           1      -0.081  -3.436   2.843  0.00  0.00    -0.235 N 
HETATM   15  N           1      -2.014  -2.340   2.843  0.00  0.00    -0.235 N 
HETATM   16  H           1       0.969  -3.436   2.843  0.00  0.00     0.174 HD
HETATM   17  H           1      -0.606  -4.345   2.843  0.00  0.00     0.174 HD
HETATM   18  H           1      -2.537  -1.435   2.843  0.00  0.00     0.174 HD
HETATM   19  H           1      -2.537  -3.245   2.843  0.00  0.00     0.174 HD
HETATM   20  H           1      -0.606  -0.334   2.843  0.00  0.00     0.177 HD
ENDBRANCH  11  12
ENDBRANCH  10  11
ENDBRANCH   9  10
ENDBRANCH   5   9
ENDBRANCH   3   5
BRANCH   2  21
HETATM   21  C           1      -0.221   0.561  -2.816  0.00  0.00     0.275 C 
BRANCH  21  22
HETATM   22  N           1      -1.099  -0.648  -2.679  0.00  0.00    -0.066 N 
HETATM   23  H           1      -1.560  -0.850  -3.595  0.00  0.00     0.275 HD
HETATM   24  H           1      -0.518  -1.469  -2.394  0.00  0.00     0.275 HD
HETATM   25  H           1      -1.829  -0.468  -1.954  0.00  0.00     0.275 HD
ENDBRANCH  21  22
BRANCH  21  26
HETATM   26  C           1      -1.067   1.757  -3.233  0.00  0.00     0.052 C 
BRANCH  26  27
HETATM   27  C           1      -2.133   2.019  -2.176  0.00  0.00     0.105 C 
BRANCH  27  28
HETATM   28  C           1      -1.954   3.408  -1.615  0.00  0.00     0.215 C 
HETATM   29  N           1      -2.803   3.868  -0.645  0.00  0.00    -0.370 N 
HETATM   30  H           1      -2.684   4.800  -0.268  0.00  0.00     0.159 HD
HETATM   31  H           1      -3.550   3.277  -0.303  0.00  0.00     0.159 HD
HETATM   32  O           1      -1.063   4.114  -2.023  0.00  0.00    -0.274 OA
ENDBRANCH  27  28
ENDBRANCH  26  27
ENDBRANCH  21  26
ENDBRANCH   2  21
TORSDOF 11
