REMARK  10 active torsions:
REMARK  status: ('A' for Active; 'I' for Inactive)
REMARK       I    between atoms: N_1  and  C_11 
REMARK    1  A    between atoms: C_2  and  C_3 
REMARK    2  A    between atoms: C_3  and  C_4 
REMARK    3  A    between atoms: C_3  and  N_7 
REMARK    4  A    between atoms: C_4  and  C_14 
REMARK    5  A    between atoms: C_5  and  C_6 
REMARK    6  A    between atoms: C_5  and  C_10 
REMARK    7  A    between atoms: C_5  and  N_22 
REMARK       I    between atoms: C_6  and  N_7 
REMARK    8  A    between atoms: C_8  and  C_9 
REMARK       I    between atoms: C_8  and  N_18 
REMARK    9  A    between atoms: C_9  and  C_10 
REMARK   10  A    between atoms: C_11  and  C_14 
ROOT
HETATM    1  C           1      -0.099   0.869   0.523  0.00  0.00     0.249 C 
HETATM    2  N           1       0.796   0.732  -0.503  0.00  0.00    -0.345 N 
HETATM    3  H           1       0.802   1.401  -1.262  0.00  0.00     0.163 HD
HETATM    4  O           1      -0.106   0.070   1.430  0.00  0.00    -0.271 OA
ENDROOT
BRANCH   1   5
HETATM    5  C           1      -1.078   2.017   0.522  0.00  0.00     0.275 C 
BRANCH   5   6
HETATM    6  C           1      -1.955   1.939   1.765  0.00  0.00     0.052 C 
BRANCH   6   7
HETATM    7  C           1      -2.719   0.622   1.766  0.00  0.00     0.105 C 
BRANCH   7   8
HETATM    8  C           1      -4.202   0.900   1.765  0.00  0.00     0.215 C 
HETATM    9  N           1      -5.093  -0.140   1.766  0.00  0.00    -0.370 N 
HETATM   10  H           1      -6.088   0.047   1.765  0.00  0.00     0.159 HD
HETATM   11  H           1      -4.758  -1.094   1.767  0.00  0.00     0.159 HD
HETATM   12  O           1      -4.603   2.039   1.764  0.00  0.00    -0.274 OA
ENDBRANCH   7   8
ENDBRANCH   6   7
ENDBRANCH   5   6
BRANCH   5  13
HETATM   13  N           1      -1.940   1.938  -0.703  0.00  0.00    -0.066 N 
HETATM   14  H           1      -2.618   2.733  -0.704  0.00  0.00     0.275 HD
HETATM   15  H           1      -1.339   1.992  -1.555  0.00  0.00     0.275 HD
HETATM   16  H           1      -2.464   1.033  -0.702  0.00  0.00     0.275 HD
ENDBRANCH   5  13
ENDBRANCH   1   5
BRANCH   2  17
HETATM   17  C           1       1.737  -0.371  -0.502  0.00  0.00     0.186 C 
BRANCH  17  18
HETATM   18  C           1       2.604  -0.292   0.731  0.00  0.00     0.196 C 
HETATM   19  O           1       2.082  -0.339   1.866  0.00  0.00    -0.646 OA
HETATM   20  O           1       3.843  -0.179   0.617  0.00  0.00    -0.646 OA
ENDBRANCH  17  18
BRANCH  17  21
HETATM   21  C           1       2.613  -0.292  -1.745  0.00  0.00     0.045 C 
BRANCH  21  22
HETATM   22  C           1       3.602  -1.450  -1.745  0.00  0.00     0.105 C 
BRANCH  22  23
HETATM   23  C           1       2.848  -2.757  -1.745  0.00  0.00     0.215 C 
HETATM   24  N           1       3.532  -3.942  -1.745  0.00  0.00    -0.370 N 
HETATM   25  H           1       4.544  -3.942  -1.745  0.00  0.00     0.159 HD
HETATM   26  H           1       3.026  -4.819  -1.745  0.00  0.00     0.159 HD
HETATM   27  O           1       1.640  -2.757  -1.745  0.00  0.00    -0.274 OA
ENDBRANCH  22  23
ENDBRANCH  21  22
ENDBRANCH  17  21
ENDBRANCH   2  17
TORSDOF 10
