REMARK  8 active torsions:
REMARK  status: ('A' for Active; 'I' for Inactive)
REMARK    1  A    between atoms: C_1  and  C_2 
REMARK    2  A    between atoms: C_1  and  C_14 
REMARK    3  A    between atoms: C_1  and  N_9 
REMARK       I    between atoms: C_2  and  N_3 
REMARK    4  A    between atoms: N_3  and  C_7 
REMARK    5  A    between atoms: C_6  and  C_7 
REMARK    6  A    between atoms: C_7  and  C_20 
REMARK    7  A    between atoms: C_11  and  C_14 
REMARK    8  A    between atoms: C_11  and  C_12 
ROOT
HETATM    1  C           1       0.628  -0.222   0.437  0.00  0.00     0.249 C 
HETATM    2  N           1       0.062   0.203  -0.735  0.00  0.00    -0.344 N 
HETATM    3  O           1       0.457  -1.357   0.814  0.00  0.00    -0.271 OA
HETATM    4  H           1       0.206   1.153  -1.051  0.00  0.00     0.163 HD
ENDROOT
BRANCH   1   5
HETATM    5  C           1       1.467   0.727   1.257  0.00  0.00     0.275 C 
BRANCH   5   6
HETATM    6  C           1       1.975   0.011   2.502  0.00  0.00     0.053 C 
BRANCH   6   7
HETATM    7  C           1       0.791  -0.466   3.332  0.00  0.00     0.115 C 
BRANCH   7   8
HETATM    8  C           1       0.846  -1.968   3.472  0.00  0.00     0.172 C 
HETATM    9  O           1      -0.038  -2.568   4.121  0.00  0.00    -0.648 OA
HETATM   10  O           1       1.776  -2.611   2.939  0.00  0.00    -0.648 OA
ENDBRANCH   7   8
ENDBRANCH   6   7
ENDBRANCH   5   6
BRANCH   5  11
HETATM   11  N           1       0.634   1.906   1.664  0.00  0.00    -0.066 N 
HETATM   12  H           1       1.214   2.563   2.232  0.00  0.00     0.275 HD
HETATM   13  H           1       0.286   2.397   0.810  0.00  0.00     0.275 HD
HETATM   14  H           1      -0.179   1.577   2.234  0.00  0.00     0.275 HD
ENDBRANCH   5  11
ENDBRANCH   1   5
BRANCH   2  15
HETATM   15  C           1      -0.744  -0.709  -1.523  0.00  0.00     0.189 C 
BRANCH  15  16
HETATM   16  C           1       0.094  -1.896  -1.932  0.00  0.00     0.197 C 
HETATM   17  O           1       0.272  -2.147  -3.143  0.00  0.00    -0.646 OA
HETATM   18  O           1       0.611  -2.626  -1.059  0.00  0.00    -0.646 OA
ENDBRANCH  15  16
BRANCH  15  19
HETATM   19  C           1      -1.251   0.008  -2.767  0.00  0.00     0.010 C 
HETATM   20  C           1      -2.774   0.008  -2.767  0.00  0.00     0.012 C 
HETATM   21  C           1      -0.743   1.444  -2.767  0.00  0.00     0.012 C 
ENDBRANCH  15  19
ENDBRANCH   2  15
TORSDOF 8
