REMARK  9 active torsions:
REMARK  status: ('A' for Active; 'I' for Inactive)
REMARK    1  A    between atoms: N_1  and  C_2 
REMARK       I    between atoms: N_1  and  C_6 
REMARK    2  A    between atoms: C_2  and  C_15 
REMARK    3  A    between atoms: C_2  and  C_3 
REMARK    4  A    between atoms: C_5  and  C_7 
REMARK    5  A    between atoms: C_5  and  C_10 
REMARK    6  A    between atoms: C_6  and  C_7 
REMARK    7  A    between atoms: C_7  and  N_18 
REMARK    8  A    between atoms: C_10  and  C_11 
REMARK       I    between atoms: C_11  and  N_12 
REMARK    9  A    between atoms: Se_14  and  C_15 
ROOT
HETATM    1  C           1       1.357  -0.084   0.597  0.00  0.00     0.275 C 
ENDROOT
BRANCH   1   2
HETATM    2  C           1       1.867   1.351   0.597  0.00  0.00     0.052 C 
BRANCH   2   3
HETATM    3  C           1       1.361   2.070  -0.647  0.00  0.00     0.105 C 
BRANCH   3   4
HETATM    4  C           1       2.536   2.543  -1.468  0.00  0.00     0.215 C 
HETATM    5  N           1       2.325   3.219  -2.639  0.00  0.00    -0.370 N 
HETATM    6  H           1       3.112   3.536  -3.189  0.00  0.00     0.159 HD
HETATM    7  H           1       1.380   3.403  -2.954  0.00  0.00     0.159 HD
HETATM    8  O           1       3.663   2.324  -1.091  0.00  0.00    -0.274 OA
ENDBRANCH   3   4
ENDBRANCH   2   3
ENDBRANCH   1   2
BRANCH   1   9
HETATM    9  C           1      -0.152  -0.083   0.596  0.00  0.00     0.249 C 
HETATM   10  N           1      -0.838  -1.268   0.596  0.00  0.00    -0.345 N 
HETATM   11  H           1      -0.333  -2.145   0.597  0.00  0.00     0.163 HD
HETATM   12  O           1      -0.755   0.964   0.596  0.00  0.00    -0.271 OA
BRANCH  10  13
HETATM   13  C           1      -2.288  -1.266   0.595  0.00  0.00     0.185 C 
BRANCH  13  14
HETATM   14  C           1      -2.796  -2.702   0.595  0.00  0.00     0.039 C 
BRANCH  14  15
HETATM   15 Se           1      -4.745  -2.702   0.595  0.00  0.00     0.000 Se
HETATM   16  H           1      -4.861  -4.169   0.595  0.00  0.00     0.000 HD
ENDBRANCH  14  15
ENDBRANCH  13  14
BRANCH  13  17
HETATM   17  C           1      -2.790  -0.554   1.827  0.00  0.00     0.196 C 
HETATM   18  O           1      -2.487   0.643   2.024  0.00  0.00    -0.646 OA
HETATM   19  O           1      -3.509  -1.160   2.650  0.00  0.00    -0.646 OA
ENDBRANCH  13  17
ENDBRANCH  10  13
ENDBRANCH   1   9
BRANCH   1  20
HETATM   20  N           1       1.856  -0.791  -0.628  0.00  0.00    -0.066 N 
HETATM   21  H           1       1.509  -0.298  -1.481  0.00  0.00     0.275 HD
HETATM   22  H           1       2.901  -0.793  -0.628  0.00  0.00     0.275 HD
HETATM   23  H           1       1.507  -1.776  -0.628  0.00  0.00     0.275 HD
ENDBRANCH   1  20
TORSDOF 9
