REMARK  9 active torsions:
REMARK  status: ('A' for Active; 'I' for Inactive)
REMARK    1  A    between atoms: C_1  and  C_4 
REMARK       I    between atoms: N_2  and  C_16 
REMARK    2  A    between atoms: C_3  and  C_16 
REMARK    3  A    between atoms: C_3  and  C_4 
REMARK    4  A    between atoms: C_4  and  N_23 
REMARK    5  A    between atoms: N_5  and  C_17 
REMARK    6  A    between atoms: C_12  and  C_17 
REMARK    7  A    between atoms: C_12  and  C_22 
REMARK       I    between atoms: C_14  and  N_23 
REMARK    8  A    between atoms: C_14  and  C_17 
REMARK    9  A    between atoms: C_21  and  C_22 
ROOT
HETATM    1  O           1      -1.368   0.623   0.344  0.00  0.00    -0.271 OA
HETATM    2  H           1       1.535  -0.566   0.345  0.00  0.00     0.163 HD
HETATM    3  C           1      -0.160   0.621   0.345  0.00  0.00     0.249 C 
HETATM    4  N           1       0.523  -0.565   0.345  0.00  0.00    -0.344 N 
ENDROOT
BRANCH   3   5
HETATM    5  C           1       0.595   1.927   0.346  0.00  0.00     0.275 C 
BRANCH   5   6
HETATM    6  N           1       1.458   2.006  -0.879  0.00  0.00    -0.066 N 
HETATM    7  H           1       1.981   2.910  -0.879  0.00  0.00     0.275 HD
HETATM    8  H           1       2.136   1.211  -0.879  0.00  0.00     0.275 HD
HETATM    9  H           1       0.856   1.952  -1.732  0.00  0.00     0.275 HD
ENDBRANCH   5   6
BRANCH   5  10
HETATM   10  C           1      -0.392   3.086   0.346  0.00  0.00     0.053 C 
BRANCH  10  11
HETATM   11  C           1      -1.268   3.008  -0.898  0.00  0.00     0.115 C 
BRANCH  11  12
HETATM   12  C           1      -1.090   4.262  -1.719  0.00  0.00     0.172 C 
HETATM   13  O           1      -1.722   4.404  -2.788  0.00  0.00    -0.648 OA
HETATM   14  O           1      -0.311   5.158  -1.330  0.00  0.00    -0.648 OA
ENDBRANCH  11  12
ENDBRANCH  10  11
ENDBRANCH   5  10
ENDBRANCH   3   5
BRANCH   4  15
HETATM   15  C           1      -0.203  -1.820   0.344  0.00  0.00     0.194 C 
BRANCH  15  16
HETATM   16  C           1      -1.071  -1.899   1.576  0.00  0.00     0.197 C 
HETATM   17  O           1      -1.956  -1.038   1.773  0.00  0.00    -0.646 OA
HETATM   18  O           1      -0.905  -2.825   2.399  0.00  0.00    -0.646 OA
ENDBRANCH  15  16
BRANCH  15  19
HETATM   19  C           1       0.786  -2.978   0.344  0.00  0.00     0.138 C 
BRANCH  19  20
HETATM   20  C           1       0.031  -4.285   0.344  0.00  0.00     0.217 C 
HETATM   21  N           1       0.716  -5.470   0.344  0.00  0.00    -0.370 N 
HETATM   22  H           1       1.728  -5.470   0.344  0.00  0.00     0.159 HD
HETATM   23  H           1       0.210  -6.347   0.344  0.00  0.00     0.159 HD
HETATM   24  O           1      -1.177  -4.285   0.344  0.00  0.00    -0.274 OA
ENDBRANCH  19  20
ENDBRANCH  15  19
ENDBRANCH   4  15
TORSDOF 9
