REMARK  9 active torsions:
REMARK  status: ('A' for Active; 'I' for Inactive)
REMARK       I    between atoms: C_2  and  N_3 
REMARK    1  A    between atoms: C_2  and  C_14 
REMARK    2  A    between atoms: N_3  and  C_7 
REMARK    3  A    between atoms: C_6  and  C_7 
REMARK    4  A    between atoms: C_7  and  C_8 
REMARK    5  A    between atoms: C_8  and  S_19 
REMARK    6  A    between atoms: C_9  and  C_14 
REMARK    7  A    between atoms: C_9  and  C_21 
REMARK    8  A    between atoms: C_14  and  N_18 
REMARK       I    between atoms: N_16  and  C_22 
REMARK    9  A    between atoms: C_21  and  C_22 
ROOT
HETATM    1  C           1       1.349  -0.088   0.597  0.00  0.00     0.275 C 
ENDROOT
BRANCH   1   2
HETATM    2  C           1      -0.160  -0.087   0.596  0.00  0.00     0.249 C 
HETATM    3  N           1      -0.846  -1.272   0.596  0.00  0.00    -0.344 N 
HETATM    4  H           1      -0.340  -2.149   0.597  0.00  0.00     0.163 HD
HETATM    5  O           1      -0.763   0.960   0.596  0.00  0.00    -0.271 OA
BRANCH   3   6
HETATM    6  C           1      -2.296  -1.270   0.595  0.00  0.00     0.194 C 
BRANCH   6   7
HETATM    7  C           1      -2.798  -0.558   1.827  0.00  0.00     0.197 C 
HETATM    8  O           1      -3.517  -1.165   2.650  0.00  0.00    -0.646 OA
HETATM    9  O           1      -2.495   0.639   2.024  0.00  0.00    -0.646 OA
ENDBRANCH   6   7
BRANCH   6  10
HETATM   10  C           1      -2.804  -2.706   0.595  0.00  0.00     0.106 C 
BRANCH  10  11
HETATM   11  S           1      -4.619  -2.706   0.595  0.00  0.00    -0.180 SA
HETATM   12  H           1      -4.760  -4.044   0.595  0.00  0.00     0.101 HD
ENDBRANCH  10  11
ENDBRANCH   6  10
ENDBRANCH   3   6
ENDBRANCH   1   2
BRANCH   1  13
HETATM   13  C           1       1.859   1.347   0.597  0.00  0.00     0.052 C 
BRANCH  13  14
HETATM   14  C           1       1.353   2.066  -0.647  0.00  0.00     0.105 C 
BRANCH  14  15
HETATM   15  C           1       2.528   2.538  -1.468  0.00  0.00     0.215 C 
HETATM   16  N           1       2.317   3.215  -2.639  0.00  0.00    -0.370 N 
HETATM   17  H           1       1.373   3.398  -2.954  0.00  0.00     0.159 HD
HETATM   18  H           1       3.104   3.532  -3.189  0.00  0.00     0.159 HD
HETATM   19  O           1       3.655   2.320  -1.091  0.00  0.00    -0.274 OA
ENDBRANCH  14  15
ENDBRANCH  13  14
ENDBRANCH   1  13
BRANCH   1  20
HETATM   20  N           1       1.848  -0.796  -0.628  0.00  0.00    -0.066 N 
HETATM   21  H           1       2.893  -0.797  -0.628  0.00  0.00     0.275 HD
HETATM   22  H           1       1.499  -1.781  -0.628  0.00  0.00     0.275 HD
HETATM   23  H           1       1.501  -0.302  -1.481  0.00  0.00     0.275 HD
ENDBRANCH   1  20
TORSDOF 9
