REMARK  7 active torsions:
REMARK  status: ('A' for Active; 'I' for Inactive)
REMARK       I    between atoms: C_4  and  N_20 
REMARK    1  A    between atoms: C_4  and  C_17 
REMARK    2  A    between atoms: C_5  and  C_6 
REMARK       I    between atoms: C_5  and  N_12 
REMARK    3  A    between atoms: C_6  and  C_7 
REMARK    4  A    between atoms: C_7  and  C_17 
REMARK    5  A    between atoms: N_8  and  C_17 
REMARK    6  A    between atoms: C_14  and  C_19 
REMARK    7  A    between atoms: C_14  and  N_20 
ROOT
HETATM    1  C           1      -0.795   0.396  -0.826  0.00  0.00     0.275 C 
ENDROOT
BRANCH   1   2
HETATM    2  C           1       0.185  -0.751  -0.826  0.00  0.00     0.248 C 
HETATM    3  N           1      -0.272  -2.042  -0.826  0.00  0.00    -0.349 N 
HETATM    4  H           1      -1.267  -2.226  -0.826  0.00  0.00     0.163 HD
HETATM    5  O           1       1.373  -0.531  -0.826  0.00  0.00    -0.271 OA
BRANCH   3   6
HETATM    6  C           1       0.670  -3.144  -0.826  0.00  0.00     0.235 C 
BRANCH   6   7
HETATM    7  C           1      -0.085  -4.451  -0.826  0.00  0.00     0.191 C 
HETATM    8  O           1      -1.335  -4.451  -0.826  0.00  0.00    -0.647 OA
HETATM    9  O           1       0.540  -5.534  -0.826  0.00  0.00    -0.647 OA
ENDBRANCH   6   7
ENDBRANCH   3   6
ENDBRANCH   1   2
BRANCH   1  10
HETATM   10  C           1      -0.033   1.715  -0.826  0.00  0.00     0.052 C 
BRANCH  10  11
HETATM   11  C           1       0.842   1.797   0.417  0.00  0.00     0.105 C 
BRANCH  11  12
HETATM   12  C           1       0.441   2.997   1.239  0.00  0.00     0.215 C 
HETATM   13  N           1       1.093   3.275   2.410  0.00  0.00    -0.370 N 
HETATM   14  H           1       0.824   4.080   2.961  0.00  0.00     0.159 HD
HETATM   15  H           1       1.846   2.675   2.724  0.00  0.00     0.159 HD
HETATM   16  O           1      -0.457   3.713   0.864  0.00  0.00    -0.274 OA
ENDBRANCH  11  12
ENDBRANCH  10  11
ENDBRANCH   1  10
BRANCH   1  17
HETATM   17  N           1      -1.656   0.317   0.400  0.00  0.00    -0.066 N 
HETATM   18  H           1      -2.335   1.111   0.401  0.00  0.00     0.275 HD
HETATM   19  H           1      -2.179  -0.588   0.399  0.00  0.00     0.275 HD
HETATM   20  H           1      -1.055   0.372   1.252  0.00  0.00     0.275 HD
ENDBRANCH   1  17
TORSDOF 7
