REMARK  9 active torsions:
REMARK  status: ('A' for Active; 'I' for Inactive)
REMARK    1  A    between atoms: C_2  and  C_8 
REMARK    2  A    between atoms: C_2  and  C_25 
REMARK    3  A    between atoms: C_8  and  C_19 
REMARK    4  A    between atoms: C_8  and  N_22 
REMARK    5  A    between atoms: C_10  and  C_11 
REMARK    6  A    between atoms: C_11  and  C_12 
REMARK    7  A    between atoms: C_12  and  C_14 
REMARK    8  A    between atoms: C_12  and  N_18 
REMARK       I    between atoms: N_18  and  C_19 
REMARK    9  A    between atoms: C_25  and  C_26 
ROOT
HETATM    1  N           1       1.404   1.734  -0.331  0.00  0.00    -0.344 N 
HETATM    2  C           1       1.263   0.748   0.609  0.00  0.00     0.249 C 
HETATM    3  H           1       1.928   2.571  -0.111  0.00  0.00     0.163 HD
HETATM    4  O           1       2.076  -0.144   0.675  0.00  0.00    -0.271 OA
ENDROOT
BRANCH   1   5
HETATM    5  C           1       0.802   1.578  -1.641  0.00  0.00     0.191 C 
BRANCH   5   6
HETATM    6  C           1      -0.706   1.425  -1.490  0.00  0.00     0.094 C 
BRANCH   6   7
HETATM    7  C           1      -1.049  -0.025  -1.346  0.00  0.00     0.028 A 
HETATM    8  C           1      -0.132  -1.049  -1.350  0.00  0.00     0.114 A 
HETATM    9  N           1      -0.872  -2.188  -1.194  0.00  0.00    -0.360 N 
HETATM   10  H           1      -0.500  -3.169  -1.151  0.00  0.00     0.166 HD
HETATM   11  C           1      -2.183  -1.816  -1.103  0.00  0.00     0.180 A 
HETATM   12  N           1      -2.321  -0.514  -1.191  0.00  0.00    -0.354 N 
ATOM     13  HN          1      -3.189   0.020  -1.152  1.00  0.00     0.166 HD
ENDBRANCH   6   7
ENDBRANCH   5   6
BRANCH   5  14
HETATM   14  C           1       1.103   2.796  -2.479  0.00  0.00     0.197 C 
HETATM   15  O           1       0.167   3.494  -2.927  0.00  0.00    -0.646 OA
HETATM   16  O           1       2.288   3.107  -2.727  0.00  0.00    -0.646 OA
ENDBRANCH   5  14
ENDBRANCH   1   5
BRANCH   2  17
HETATM   17  C           1       0.093   0.774   1.561  0.00  0.00     0.275 C 
BRANCH  17  18
HETATM   18  C           1       0.171  -0.425   2.496  0.00  0.00     0.053 C 
BRANCH  18  19
HETATM   19  C           1       0.131  -1.710   1.679  0.00  0.00     0.115 C 
BRANCH  19  20
HETATM   20  C           1       1.392  -2.502   1.923  0.00  0.00     0.172 C 
HETATM   21  O           1       1.564  -3.598   1.347  0.00  0.00    -0.648 OA
HETATM   22  O           1       2.265  -2.063   2.703  0.00  0.00    -0.648 OA
ENDBRANCH  19  20
ENDBRANCH  18  19
ENDBRANCH  17  18
BRANCH  17  23
HETATM   23  N           1      -1.187   0.717   0.781  0.00  0.00    -0.066 N 
HETATM   24  H           1      -1.214  -0.165   0.220  0.00  0.00     0.275 HD
HETATM   25  H           1      -1.998   0.735   1.440  0.00  0.00     0.275 HD
HETATM   26  H           1      -1.241   1.540   0.140  0.00  0.00     0.275 HD
ENDBRANCH  17  23
ENDBRANCH   2  17
TORSDOF 9
