REMARK  9 active torsions:
REMARK  status: ('A' for Active; 'I' for Inactive)
REMARK    1  A    between atoms: N_6  and  C_20 
REMARK       I    between atoms: N_6  and  C_7 
REMARK    2  A    between atoms: C_7  and  C_24 
REMARK    3  A    between atoms: N_8  and  C_24 
REMARK    4  A    between atoms: C_11  and  C_24 
REMARK    5  A    between atoms: C_11  and  C_12 
REMARK    6  A    between atoms: C_12  and  C_13 
REMARK       I    between atoms: C_13  and  N_22 
REMARK    7  A    between atoms: C_19  and  C_20 
REMARK    8  A    between atoms: C_20  and  C_21 
REMARK    9  A    between atoms: C_21  and  C_23 
ROOT
HETATM    1  N           1       0.058   0.434   0.769  0.00  0.00    -0.345 N 
HETATM    2  C           1       0.845  -0.679   0.646  0.00  0.00     0.249 C 
HETATM    3  O           1       1.138  -1.094  -0.451  0.00  0.00    -0.271 OA
HETATM    4  H           1      -0.187   0.782   1.687  0.00  0.00     0.163 HD
ENDROOT
BRANCH   2   5
HETATM    5  C           1       1.348  -1.388   1.879  0.00  0.00     0.275 C 
BRANCH   5   6
HETATM    6  N           1       0.180  -1.858   2.695  0.00  0.00    -0.066 N 
HETATM    7  H           1       0.527  -2.350   3.550  0.00  0.00     0.275 HD
HETATM    8  H           1      -0.400  -1.037   2.978  0.00  0.00     0.275 HD
HETATM    9  H           1      -0.400  -2.516   2.126  0.00  0.00     0.275 HD
ENDBRANCH   5   6
BRANCH   5  10
HETATM   10  C           1       2.194  -2.586   1.468  0.00  0.00     0.052 C 
BRANCH  10  11
HETATM   11  C           1       1.349  -3.545   0.640  0.00  0.00     0.105 C 
BRANCH  11  12
HETATM   12  C           1       1.965  -3.707  -0.728  0.00  0.00     0.215 C 
HETATM   13  N           1       1.375  -4.527  -1.651  0.00  0.00    -0.370 N 
HETATM   14  H           1       1.788  -4.636  -2.569  0.00  0.00     0.159 HD
HETATM   15  H           1       0.526  -5.026  -1.416  0.00  0.00     0.159 HD
HETATM   16  O           1       2.978  -3.112  -1.008  0.00  0.00    -0.274 OA
ENDBRANCH  11  12
ENDBRANCH  10  11
ENDBRANCH   5  10
ENDBRANCH   2   5
BRANCH   1  17
HETATM   17  C           1      -0.424   1.116  -0.417  0.00  0.00     0.185 C 
BRANCH  17  18
HETATM   18  C           1       0.750   1.588  -1.238  0.00  0.00     0.196 C 
HETATM   19  O           1       0.897   2.807  -1.475  0.00  0.00    -0.646 OA
HETATM   20  O           1       1.576   0.761  -1.680  0.00  0.00    -0.646 OA
ENDBRANCH  17  18
BRANCH  17  21
HETATM   21  C           1      -1.270   2.313  -0.004  0.00  0.00     0.040 C 
BRANCH  21  22
HETATM   22  C           1      -1.777   3.030  -1.248  0.00  0.00    -0.020 C 
HETATM   23  C           1      -3.300   3.030  -1.248  0.00  0.00     0.009 C 
HETATM   24  C           1      -1.269   4.466  -1.248  0.00  0.00     0.009 C 
ENDBRANCH  21  22
ENDBRANCH  17  21
ENDBRANCH   1  17
TORSDOF 9
