REMARK  9 active torsions:
REMARK  status: ('A' for Active; 'I' for Inactive)
REMARK    1  A    between atoms: C_2  and  C_4 
REMARK    2  A    between atoms: C_2  and  C_3 
REMARK    3  A    between atoms: C_4  and  C_19 
REMARK    4  A    between atoms: C_7  and  C_9 
REMARK    5  A    between atoms: C_9  and  C_26 
REMARK    6  A    between atoms: C_9  and  N_11 
REMARK       I    between atoms: N_11  and  C_29 
REMARK    7  A    between atoms: C_19  and  C_29 
REMARK    8  A    between atoms: C_19  and  N_25 
REMARK    9  A    between atoms: C_26  and  C_27 
ROOT
HETATM    1  C           1      -2.153   0.191   1.797  0.00  0.00     0.190 C 
ENDROOT
BRANCH   1   2
HETATM    2  C           1      -3.178   0.860   2.680  0.00  0.00     0.197 C 
HETATM    3  O           1      -4.098   0.186   3.191  0.00  0.00    -0.646 OA
HETATM    4  O           1      -3.107   2.088   2.900  0.00  0.00    -0.646 OA
ENDBRANCH   1   2
BRANCH   1   5
HETATM    5  C           1      -1.150   1.227   1.307  0.00  0.00     0.077 C 
BRANCH   5   6
HETATM    6  C           1       0.179   0.574   1.092  0.00  0.00    -0.028 A 
HETATM    7  C           1       1.365   1.215   0.638  0.00  0.00    -0.002 A 
HETATM    8  C           1       2.362   0.241   0.580  0.00  0.00     0.042 A 
HETATM    9  C           1       1.685   2.535   0.269  0.00  0.00     0.014 A 
HETATM   10  C           1       3.671   0.523   0.170  0.00  0.00     0.030 A 
HETATM   11  N           1       1.793  -0.945   0.986  0.00  0.00    -0.365 N 
HETATM   12  C           1       3.965   1.841  -0.191  0.00  0.00     0.002 A 
HETATM   13  C           1       2.989   2.834  -0.143  0.00  0.00     0.001 A 
HETATM   14  H           1       2.298  -1.864   1.048  0.00  0.00     0.165 HD
HETATM   15  C           1       0.473  -0.755   1.298  0.00  0.00     0.096 A 
ENDBRANCH   5   6
ENDBRANCH   1   5
BRANCH   1  16
HETATM   16  N           1      -2.817  -0.414   0.659  0.00  0.00    -0.344 N 
HETATM   17  H           1      -3.822  -0.342   0.563  0.00  0.00     0.163 HD
HETATM   18  C           1      -2.085  -1.082  -0.285  0.00  0.00     0.249 C 
HETATM   19  O           1      -1.877  -2.266  -0.162  0.00  0.00    -0.271 OA
BRANCH  18  20
HETATM   20  C           1      -1.537  -0.340  -1.479  0.00  0.00     0.275 C 
BRANCH  20  21
HETATM   21  C           1      -0.766  -1.307  -2.369  0.00  0.00     0.053 C 
BRANCH  21  22
HETATM   22  C           1       0.384  -1.917  -1.580  0.00  0.00     0.115 C 
BRANCH  22  23
HETATM   23  C           1       0.221  -3.416  -1.528  0.00  0.00     0.172 C 
HETATM   24  O           1      -0.756  -3.958  -2.088  0.00  0.00    -0.648 OA
HETATM   25  O           1       1.062  -4.116  -0.924  0.00  0.00    -0.648 OA
ENDBRANCH  22  23
ENDBRANCH  21  22
ENDBRANCH  20  21
BRANCH  20  26
HETATM   26  N           1      -0.617   0.749  -1.012  0.00  0.00    -0.066 N 
HETATM   27  H           1      -0.238   1.263  -1.838  0.00  0.00     0.275 HD
HETATM   28  H           1      -1.146   1.413  -0.402  0.00  0.00     0.275 HD
HETATM   29  H           1       0.172   0.330  -0.470  0.00  0.00     0.275 HD
ENDBRANCH  20  26
ENDBRANCH  18  20
ENDBRANCH   1  16
TORSDOF 9
