REMARK  9 active torsions:
REMARK  status: ('A' for Active; 'I' for Inactive)
REMARK    1  A    between atoms: C_1  and  C_7 
REMARK    2  A    between atoms: C_5  and  C_13 
REMARK    3  A    between atoms: C_5  and  C_6 
REMARK    4  A    between atoms: C_7  and  C_17 
REMARK    5  A    between atoms: C_7  and  N_10 
REMARK    6  A    between atoms: C_8  and  C_9 
REMARK    7  A    between atoms: C_8  and  C_13 
REMARK    8  A    between atoms: C_8  and  N_15 
REMARK       I    between atoms: C_9  and  N_10 
REMARK    9  A    between atoms: C_16  and  C_17 
ROOT
HETATM    1  O           1       1.198  -1.357  -0.560  0.00  0.00    -0.271 OA
HETATM    2  C           1       0.906  -0.943   0.536  0.00  0.00     0.249 C 
HETATM    3  N           1       0.119   0.171   0.659  0.00  0.00    -0.345 N 
HETATM    4  H           1      -0.126   0.518   1.578  0.00  0.00     0.163 HD
ENDROOT
BRANCH   2   5
HETATM    5  C           1       1.408  -1.652   1.770  0.00  0.00     0.275 C 
BRANCH   5   6
HETATM    6  C           1       2.254  -2.849   1.359  0.00  0.00     0.053 C 
BRANCH   6   7
HETATM    7  C           1       1.409  -3.809   0.531  0.00  0.00     0.115 C 
BRANCH   7   8
HETATM    8  C           1       2.025  -3.970  -0.837  0.00  0.00     0.172 C 
HETATM    9  O           1       3.074  -3.355  -1.127  0.00  0.00    -0.648 OA
HETATM   10  O           1       1.487  -4.720  -1.680  0.00  0.00    -0.648 OA
ENDBRANCH   7   8
ENDBRANCH   6   7
ENDBRANCH   5   6
BRANCH   5  11
HETATM   11  N           1       0.240  -2.122   2.585  0.00  0.00    -0.066 N 
HETATM   12  H           1       0.587  -2.613   3.440  0.00  0.00     0.275 HD
HETATM   13  H           1      -0.340  -1.300   2.868  0.00  0.00     0.275 HD
HETATM   14  H           1      -0.339  -2.780   2.017  0.00  0.00     0.275 HD
ENDBRANCH   5  11
ENDBRANCH   2   5
BRANCH   3  15
HETATM   15  C           1      -0.364   0.852  -0.526  0.00  0.00     0.185 C 
BRANCH  15  16
HETATM   16  C           1       0.811   1.325  -1.347  0.00  0.00     0.196 C 
HETATM   17  O           1       1.637   0.498  -1.790  0.00  0.00    -0.646 OA
HETATM   18  O           1       0.957   2.543  -1.585  0.00  0.00    -0.646 OA
ENDBRANCH  15  16
BRANCH  15  19
HETATM   19  C           1      -1.210   2.049  -0.114  0.00  0.00     0.040 C 
BRANCH  19  20
HETATM   20  C           1      -1.717   2.767  -1.358  0.00  0.00    -0.020 C 
HETATM   21  C           1      -3.240   2.767  -1.358  0.00  0.00     0.009 C 
HETATM   22  C           1      -1.209   4.202  -1.358  0.00  0.00     0.009 C 
ENDBRANCH  19  20
ENDBRANCH  15  19
ENDBRANCH   3  15
TORSDOF 9
