REMARK  6 active torsions:
REMARK  status: ('A' for Active; 'I' for Inactive)
REMARK    1  A    between atoms: N_2  and  C_12 
REMARK    2  A    between atoms: C_8  and  C_12 
REMARK    3  A    between atoms: C_8  and  C_13 
REMARK    4  A    between atoms: C_9  and  C_17 
REMARK       I    between atoms: N_10  and  C_11 
REMARK    5  A    between atoms: C_11  and  C_12 
REMARK    6  A    between atoms: C_13  and  C_14 
REMARK       I    between atoms: C_14  and  N_15 
ROOT
HETATM    1  C           1       1.343  -0.045   0.447  0.00  0.00     0.275 C 
ENDROOT
BRANCH   1   2
HETATM    2  N           1       1.428  -0.505  -0.979  0.00  0.00    -0.066 N 
HETATM    3  H           1       2.428  -0.675  -1.231  0.00  0.00     0.275 HD
HETATM    4  H           1       0.885  -1.391  -1.091  0.00  0.00     0.275 HD
HETATM    5  H           1       1.031   0.230  -1.606  0.00  0.00     0.275 HD
ENDBRANCH   1   2
BRANCH   1   6
HETATM    6  C           1       2.134   1.245   0.612  0.00  0.00     0.052 C 
BRANCH   6   7
HETATM    7  C           1       1.556   2.317  -0.304  0.00  0.00     0.105 C 
BRANCH   7   8
HETATM    8  C           1       2.618   2.779  -1.271  0.00  0.00     0.215 C 
HETATM    9  O           1       3.724   2.296  -1.230  0.00  0.00    -0.274 OA
HETATM   10  N           1       2.326   3.744  -2.197  0.00  0.00    -0.370 N 
HETATM   11  H           1       3.038   4.054  -2.846  0.00  0.00     0.159 HD
HETATM   12  H           1       1.399   4.149  -2.232  0.00  0.00     0.159 HD
ENDBRANCH   7   8
ENDBRANCH   6   7
ENDBRANCH   1   6
BRANCH   1  13
HETATM   13  C           1      -0.101   0.200   0.810  0.00  0.00     0.251 C 
HETATM   14  O           1      -0.457   1.298   1.164  0.00  0.00    -0.271 OA
HETATM   15  N           1      -1.008  -0.823   0.737  0.00  0.00    -0.336 N 
HETATM   16  C           1      -2.434  -0.771   1.048  0.00  0.00     0.188 C 
HETATM   17  C           1      -0.761  -2.204   0.333  0.00  0.00     0.127 C 
HETATM   18  C           1      -3.073  -1.612  -0.044  0.00  0.00     0.038 C 
HETATM   19  C           1      -1.973  -2.559  -0.511  0.00  0.00     0.022 C 
BRANCH  16  20
HETATM   20  C           1      -2.710  -1.359   2.410  0.00  0.00     0.196 C 
HETATM   21  O           1      -1.768  -1.805   3.100  0.00  0.00    -0.646 OA
HETATM   22  O           1      -3.880  -1.401   2.848  0.00  0.00    -0.646 OA
ENDBRANCH  16  20
ENDBRANCH   1  13
TORSDOF 6
