REMARK  10 active torsions:
REMARK  status: ('A' for Active; 'I' for Inactive)
REMARK       I    between atoms: N_6  and  C_23 
REMARK    1  A    between atoms: C_7  and  C_20 
REMARK    2  A    between atoms: C_7  and  C_22 
REMARK    3  A    between atoms: Se_10  and  C_20 
REMARK    4  A    between atoms: N_13  and  C_15 
REMARK    5  A    between atoms: C_14  and  C_15 
REMARK    6  A    between atoms: C_14  and  C_24 
REMARK    7  A    between atoms: C_15  and  C_16 
REMARK       I    between atoms: C_16  and  N_17 
REMARK    8  A    between atoms: N_17  and  C_22 
REMARK    9  A    between atoms: C_18  and  C_22 
REMARK   10  A    between atoms: C_23  and  C_24 
ROOT
HETATM    1  C           1      -0.673  -1.459  -1.831  0.00  0.00     0.275 C 
ENDROOT
BRANCH   1   2
HETATM    2  N           1      -1.240  -0.336  -2.648  0.00  0.00    -0.066 N 
HETATM    3  H           1      -1.703  -0.724  -3.501  0.00  0.00     0.275 HD
HETATM    4  H           1      -1.943   0.188  -2.078  0.00  0.00     0.275 HD
HETATM    5  H           1      -0.471   0.311  -2.933  0.00  0.00     0.275 HD
ENDBRANCH   1   2
BRANCH   1   6
HETATM    6  C           1       0.350  -2.223  -2.662  0.00  0.00     0.052 C 
BRANCH   6   7
HETATM    7  C           1       1.472  -1.280  -3.079  0.00  0.00     0.105 C 
BRANCH   7   8
HETATM    8  C           1       2.784  -1.787  -2.533  0.00  0.00     0.215 C 
HETATM    9  N           1       3.941  -1.098  -2.782  0.00  0.00    -0.370 N 
HETATM   10  H           1       4.821  -1.437  -2.416  0.00  0.00     0.159 HD
HETATM   11  H           1       3.915  -0.248  -3.332  0.00  0.00     0.159 HD
HETATM   12  O           1       2.815  -2.801  -1.877  0.00  0.00    -0.274 OA
ENDBRANCH   7   8
ENDBRANCH   6   7
ENDBRANCH   1   6
BRANCH   1  13
HETATM   13  C           1      -0.005  -0.897  -0.600  0.00  0.00     0.249 C 
HETATM   14  O           1       1.172  -1.091  -0.410  0.00  0.00    -0.271 OA
HETATM   15  N           1      -0.733  -0.168   0.301  0.00  0.00    -0.345 N 
HETATM   16  H           1      -1.719  -0.006   0.142  0.00  0.00     0.163 HD
BRANCH  15  17
HETATM   17  C           1      -0.091   0.371   1.484  0.00  0.00     0.185 C 
BRANCH  17  18
HETATM   18  C           1      -1.115   1.135   2.313  0.00  0.00     0.036 C 
BRANCH  18  19
HETATM   19  C           1      -0.443   1.701   3.556  0.00  0.00     0.003 C 
BRANCH  19  20
HETATM   20 Se           1      -0.606   3.644   3.556  0.00  0.00     0.000 Se
HETATM   21  C           1      -2.555   3.644   3.556  0.00  0.00     0.000 C 
ENDBRANCH  19  20
ENDBRANCH  18  19
ENDBRANCH  17  18
BRANCH  17  22
HETATM   22  C           1       0.481  -0.758   2.305  0.00  0.00     0.196 C 
HETATM   23  O           1       1.345  -1.515   1.811  0.00  0.00    -0.646 OA
HETATM   24  O           1       0.090  -0.938   3.479  0.00  0.00    -0.646 OA
ENDBRANCH  17  22
ENDBRANCH  15  17
ENDBRANCH   1  13
TORSDOF 10
