REMARK  7 active torsions:
REMARK  status: ('A' for Active; 'I' for Inactive)
REMARK    1  A    between atoms: C_2  and  C_13 
REMARK    2  A    between atoms: C_2  and  C_22 
REMARK    3  A    between atoms: C_4  and  C_22 
REMARK    4  A    between atoms: C_7  and  C_11 
REMARK    5  A    between atoms: C_7  and  N_18 
REMARK    6  A    between atoms: N_9  and  C_22 
REMARK       I    between atoms: N_9  and  C_11 
REMARK    7  A    between atoms: O_10  and  C_16 
ROOT
HETATM    1  C           1      -0.535  -1.141  -0.529  0.00  0.00     0.189 C 
ENDROOT
BRANCH   1   2
HETATM    2  C           1       0.914  -1.594  -0.406  0.00  0.00     0.074 C 
BRANCH   2   3
HETATM    3  C           1       1.825  -0.445  -0.710  0.00  0.00    -0.056 A 
HETATM    4  C           1       1.290   0.799  -1.043  0.00  0.00     0.010 A 
HETATM    5  C           1       2.138   1.869  -1.327  0.00  0.00     0.037 A 
HETATM    6  C           1       3.521   1.695  -1.278  0.00  0.00     0.065 A 
HETATM    7  C           1       4.056   0.450  -0.946  0.00  0.00     0.037 A 
HETATM    8  C           1       3.208  -0.620  -0.662  0.00  0.00     0.010 A 
BRANCH   6   9
HETATM    9  O           1       4.345   2.735  -1.554  0.00  0.00    -0.361 OA
HETATM   10  H           1       3.794   3.508  -1.761  0.00  0.00     0.217 HD
ENDBRANCH   6   9
ENDBRANCH   2   3
ENDBRANCH   1   2
BRANCH   1  11
HETATM   11  C           1      -1.393  -2.306  -0.956  0.00  0.00     0.197 C 
HETATM   12  O           1      -2.623  -2.151  -1.117  0.00  0.00    -0.646 OA
HETATM   13  O           1      -0.874  -3.427  -1.148  0.00  0.00    -0.646 OA
ENDBRANCH   1  11
BRANCH   1  14
HETATM   14  N           1      -0.996  -0.646   0.754  0.00  0.00    -0.345 N 
HETATM   15  C           1      -2.277  -0.181   0.888  0.00  0.00     0.243 C 
HETATM   16  O           1      -3.022  -0.183  -0.063  0.00  0.00    -0.272 OA
HETATM   17  H           1      -0.371  -0.644   1.550  0.00  0.00     0.163 HD
BRANCH  15  18
HETATM   18  C           1      -2.757   0.334   2.222  0.00  0.00     0.332 C 
BRANCH  18  19
HETATM   19  N           1      -4.184   0.781   2.103  0.00  0.00    -0.071 N 
HETATM   20  H           1      -4.516   1.137   3.027  0.00  0.00     0.274 HD
HETATM   21  H           1      -4.251   1.543   1.391  0.00  0.00     0.274 HD
HETATM   22  H           1      -4.778  -0.026   1.807  0.00  0.00     0.274 HD
ENDBRANCH  18  19
ENDBRANCH  15  18
ENDBRANCH   1  14
TORSDOF 7
