REMARK  6 active torsions:
REMARK  status: ('A' for Active; 'I' for Inactive)
REMARK    1  A    between atoms: C_2  and  C_4 
REMARK    2  A    between atoms: C_4  and  C_22 
REMARK    3  A    between atoms: C_4  and  N_12 
REMARK    4  A    between atoms: N_5  and  C_8 
REMARK    5  A    between atoms: C_8  and  C_9 
REMARK       I    between atoms: C_9  and  N_12 
REMARK    6  A    between atoms: C_21  and  C_22 
ROOT
HETATM    1  C           1      -2.104  -0.151   1.514  0.00  0.00     0.190 C 
ENDROOT
BRANCH   1   2
HETATM    2  C           1      -3.129   0.517   2.397  0.00  0.00     0.197 C 
HETATM    3  O           1      -4.049  -0.157   2.907  0.00  0.00    -0.646 OA
HETATM    4  O           1      -3.058   1.746   2.617  0.00  0.00    -0.646 OA
ENDBRANCH   1   2
BRANCH   1   5
HETATM    5  C           1      -1.101   0.885   1.024  0.00  0.00     0.077 C 
BRANCH   5   6
HETATM    6  C           1       0.229   0.231   0.809  0.00  0.00    -0.028 A 
HETATM    7  C           1       0.522  -1.098   1.015  0.00  0.00     0.096 A 
HETATM    8  N           1       1.842  -1.288   0.703  0.00  0.00    -0.365 N 
HETATM    9  H           1       2.348  -2.206   0.765  0.00  0.00     0.165 HD
HETATM   10  C           1       2.412  -0.102   0.297  0.00  0.00     0.042 A 
HETATM   11  C           1       3.720   0.180  -0.113  0.00  0.00     0.030 A 
HETATM   12  C           1       1.414   0.872   0.355  0.00  0.00    -0.002 A 
HETATM   13  C           1       4.014   1.499  -0.474  0.00  0.00     0.002 A 
HETATM   14  C           1       3.038   2.492  -0.426  0.00  0.00     0.001 A 
HETATM   15  C           1       1.735   2.193  -0.014  0.00  0.00     0.014 A 
ENDBRANCH   5   6
ENDBRANCH   1   5
BRANCH   1  16
HETATM   16  N           1      -2.768  -0.756   0.376  0.00  0.00    -0.345 N 
HETATM   17  H           1      -3.772  -0.685   0.279  0.00  0.00     0.163 HD
HETATM   18  C           1      -2.035  -1.425  -0.568  0.00  0.00     0.243 C 
HETATM   19  O           1      -1.828  -2.608  -0.445  0.00  0.00    -0.272 OA
BRANCH  18  20
HETATM   20  C           1      -1.488  -0.683  -1.763  0.00  0.00     0.332 C 
BRANCH  20  21
HETATM   21  N           1      -0.729  -1.635  -2.639  0.00  0.00    -0.071 N 
HETATM   22  H           1      -0.349  -1.121  -3.466  0.00  0.00     0.274 HD
HETATM   23  H           1       0.061  -2.052  -2.096  0.00  0.00     0.274 HD
HETATM   24  H           1      -1.369  -2.394  -2.964  0.00  0.00     0.274 HD
ENDBRANCH  20  21
ENDBRANCH  18  20
ENDBRANCH   1  16
TORSDOF 6
