REMARK  6 active torsions:
REMARK  status: ('A' for Active; 'I' for Inactive)
REMARK    1  A    between atoms: N_1  and  C_14 
REMARK    2  A    between atoms: C_5  and  C_12 
REMARK    3  A    between atoms: Se_10  and  C_11 
REMARK    4  A    between atoms: C_11  and  C_12 
REMARK    5  A    between atoms: C_12  and  N_16 
REMARK       I    between atoms: C_13  and  N_16 
REMARK    6  A    between atoms: C_13  and  C_14 
ROOT
HETATM    1  O           1       0.220   1.756  -0.182  0.00  0.00    -0.272 OA
HETATM    2  H           1       0.642  -1.352  -0.181  0.00  0.00     0.163 HD
HETATM    3  C           1       0.822   0.709  -0.181  0.00  0.00     0.243 C 
HETATM    4  N           1       0.137  -0.475  -0.181  0.00  0.00    -0.345 N 
ENDROOT
BRANCH   4   5
HETATM    5  C           1      -1.313  -0.474  -0.182  0.00  0.00     0.185 C 
BRANCH   5   6
HETATM    6  C           1      -1.815   0.238   1.050  0.00  0.00     0.196 C 
HETATM    7  O           1      -1.513   1.435   1.247  0.00  0.00    -0.646 OA
HETATM    8  O           1      -2.534  -0.368   1.873  0.00  0.00    -0.646 OA
ENDBRANCH   5   6
BRANCH   5   9
HETATM    9  C           1      -1.822  -1.910  -0.182  0.00  0.00     0.039 C 
BRANCH   9  10
HETATM   10 Se           1      -3.771  -1.910  -0.182  0.00  0.00     0.000 Se
HETATM   11  H           1      -3.886  -3.377  -0.182  0.00  0.00     0.000 HD
ENDBRANCH   9  10
ENDBRANCH   5   9
ENDBRANCH   4   5
BRANCH   3  12
HETATM   12  C           1       2.331   0.708  -0.180  0.00  0.00     0.332 C 
BRANCH  12  13
HETATM   13  N           1       2.834   2.121  -0.180  0.00  0.00    -0.071 N 
HETATM   14  H           1       3.879   2.120  -0.180  0.00  0.00     0.274 HD
HETATM   15  H           1       2.487   2.614  -1.034  0.00  0.00     0.274 HD
HETATM   16  H           1       2.485   2.615   0.673  0.00  0.00     0.274 HD
ENDBRANCH  12  13
ENDBRANCH   3  12
TORSDOF 6
