REMARK  6 active torsions:
REMARK  status: ('A' for Active; 'I' for Inactive)
REMARK    1  A    between atoms: C_5  and  C_12 
REMARK       I    between atoms: C_8  and  N_11 
REMARK    2  A    between atoms: C_8  and  C_13 
REMARK    3  A    between atoms: N_11  and  C_16 
REMARK    4  A    between atoms: C_12  and  C_16 
REMARK    5  A    between atoms: C_13  and  N_14 
REMARK    6  A    between atoms: C_15  and  C_16 
ROOT
HETATM    1  O           1       1.467  -2.304  -0.350  0.00  0.00    -0.272 OA
HETATM    2  H           1       0.143  -0.428   1.788  0.00  0.00     0.163 HD
HETATM    3  C           1       1.175  -1.889   0.746  0.00  0.00     0.243 C 
HETATM    4  N           1       0.388  -0.775   0.869  0.00  0.00    -0.345 N 
ENDROOT
BRANCH   4   5
HETATM    5  C           1      -0.095  -0.094  -0.316  0.00  0.00     0.185 C 
BRANCH   5   6
HETATM    6  C           1      -0.941   1.103   0.096  0.00  0.00     0.040 C 
BRANCH   6   7
HETATM    7  C           1      -1.448   1.820  -1.148  0.00  0.00    -0.020 C 
HETATM    8  C           1      -2.971   1.820  -1.148  0.00  0.00     0.009 C 
HETATM    9  C           1      -0.940   3.256  -1.148  0.00  0.00     0.009 C 
ENDBRANCH   6   7
ENDBRANCH   5   6
BRANCH   5  10
HETATM   10  C           1       1.080   0.378  -1.137  0.00  0.00     0.196 C 
HETATM   11  O           1       1.906  -0.449  -1.580  0.00  0.00    -0.646 OA
HETATM   12  O           1       1.226   1.597  -1.375  0.00  0.00    -0.646 OA
ENDBRANCH   5  10
ENDBRANCH   4   5
BRANCH   3  13
HETATM   13  C           1       1.677  -2.598   1.980  0.00  0.00     0.332 C 
BRANCH  13  14
HETATM   14  N           1       2.510  -3.777   1.575  0.00  0.00    -0.071 N 
HETATM   15  H           1       3.324  -3.450   1.006  0.00  0.00     0.274 HD
HETATM   16  H           1       2.858  -4.269   2.429  0.00  0.00     0.274 HD
HETATM   17  H           1       1.930  -4.435   1.007  0.00  0.00     0.274 HD
ENDBRANCH  13  14
ENDBRANCH   3  13
TORSDOF 6
