REMARK  6 active torsions:
REMARK  status: ('A' for Active; 'I' for Inactive)
REMARK    1  A    between atoms: C_1  and  C_11 
REMARK    2  A    between atoms: N_4  and  C_11 
REMARK       I    between atoms: N_4  and  C_5 
REMARK    3  A    between atoms: C_5  and  C_6 
REMARK    4  A    between atoms: C_6  and  N_7 
REMARK    5  A    between atoms: C_8  and  C_10 
REMARK    6  A    between atoms: C_8  and  C_11 
ROOT
HETATM    1  N           1       0.544   0.032  -0.173  0.00  0.00    -0.345 N 
HETATM    2  C           1      -0.139   1.218  -0.173  0.00  0.00     0.243 C 
HETATM    3  H           1       1.556   0.031  -0.173  0.00  0.00     0.163 HD
HETATM    4  O           1      -1.347   1.219  -0.173  0.00  0.00    -0.272 OA
ENDROOT
BRANCH   1   5
HETATM    5  C           1      -0.182  -1.223  -0.174  0.00  0.00     0.195 C 
BRANCH   5   6
HETATM    6  C           1      -1.050  -1.302   1.058  0.00  0.00     0.197 C 
HETATM    7  O           1      -1.935  -0.441   1.255  0.00  0.00    -0.646 OA
HETATM    8  O           1      -0.884  -2.228   1.881  0.00  0.00    -0.646 OA
ENDBRANCH   5   6
BRANCH   5   9
HETATM    9  C           1       0.807  -2.381  -0.174  0.00  0.00     0.149 C 
BRANCH   9  10
HETATM   10  C           1       0.053  -3.688  -0.174  0.00  0.00     0.175 C 
HETATM   11  O           1       0.678  -4.771  -0.174  0.00  0.00    -0.648 OA
HETATM   12  O           1      -1.197  -3.688  -0.174  0.00  0.00    -0.648 OA
ENDBRANCH   9  10
ENDBRANCH   5   9
ENDBRANCH   1   5
BRANCH   2  13
HETATM   13  C           1       0.617   2.524  -0.172  0.00  0.00     0.332 C 
BRANCH  13  14
HETATM   14  N           1      -0.356   3.666  -0.172  0.00  0.00    -0.071 N 
HETATM   15  H           1       0.167   4.570  -0.171  0.00  0.00     0.274 HD
HETATM   16  H           1      -0.956   3.612  -1.026  0.00  0.00     0.274 HD
HETATM   17  H           1      -0.958   3.611   0.681  0.00  0.00     0.274 HD
ENDBRANCH  13  14
ENDBRANCH   2  13
TORSDOF 6
