REMARK  7 active torsions:
REMARK  status: ('A' for Active; 'I' for Inactive)
REMARK       I    between atoms: C_1  and  N_4 
REMARK    1  A    between atoms: C_1  and  C_5 
REMARK    2  A    between atoms: C_2  and  C_10 
REMARK    3  A    between atoms: C_2  and  N_12 
REMARK    4  A    between atoms: N_3  and  C_7 
REMARK       I    between atoms: N_3  and  C_10 
REMARK    5  A    between atoms: C_5  and  C_6 
REMARK    6  A    between atoms: C_6  and  C_7 
REMARK    7  A    between atoms: C_7  and  C_11 
ROOT
HETATM    1  C           1       0.382  -0.105  -0.161  0.00  0.00     0.186 C 
ENDROOT
BRANCH   1   2
HETATM    2  N           1      -0.559   0.999  -0.162  0.00  0.00    -0.345 N 
HETATM    3  C           1      -1.454   1.136   0.865  0.00  0.00     0.243 C 
HETATM    4  O           1      -1.461   0.337   1.771  0.00  0.00    -0.272 OA
HETATM    5  H           1      -0.553   1.668  -0.921  0.00  0.00     0.163 HD
BRANCH   3   6
HETATM    6  C           1      -2.433   2.284   0.864  0.00  0.00     0.332 C 
BRANCH   6   7
HETATM    7  N           1      -3.297   2.207   2.088  0.00  0.00    -0.071 N 
HETATM    8  H           1      -3.975   3.002   2.087  0.00  0.00     0.274 HD
HETATM    9  H           1      -3.821   1.303   2.087  0.00  0.00     0.274 HD
HETATM   10  H           1      -2.696   2.262   2.941  0.00  0.00     0.274 HD
ENDBRANCH   6   7
ENDBRANCH   3   6
ENDBRANCH   1   2
BRANCH   1  11
HETATM   11  C           1       1.258  -0.025  -1.404  0.00  0.00     0.045 C 
BRANCH  11  12
HETATM   12  C           1       2.247  -1.183  -1.404  0.00  0.00     0.105 C 
BRANCH  12  13
HETATM   13  C           1       1.493  -2.490  -1.404  0.00  0.00     0.215 C 
HETATM   14  O           1       0.285  -2.490  -1.404  0.00  0.00    -0.274 OA
HETATM   15  N           1       2.177  -3.676  -1.404  0.00  0.00    -0.370 N 
HETATM   16  H           1       3.189  -3.676  -1.404  0.00  0.00     0.159 HD
HETATM   17  H           1       1.671  -4.552  -1.404  0.00  0.00     0.159 HD
ENDBRANCH  12  13
ENDBRANCH  11  12
ENDBRANCH   1  11
BRANCH   1  18
HETATM   18  C           1       1.249  -0.025   1.072  0.00  0.00     0.196 C 
HETATM   19  O           1       0.727  -0.072   2.207  0.00  0.00    -0.646 OA
HETATM   20  O           1       2.488   0.088   0.958  0.00  0.00    -0.646 OA
ENDBRANCH   1  18
TORSDOF 7
