REMARK  6 active torsions:
REMARK  status: ('A' for Active; 'I' for Inactive)
REMARK    1  A    between atoms: C_1  and  C_15 
REMARK    2  A    between atoms: C_1  and  C_11 
REMARK    3  A    between atoms: C_1  and  N_3 
REMARK       I    between atoms: N_3  and  C_12 
REMARK    4  A    between atoms: C_5  and  C_15 
REMARK    5  A    between atoms: N_8  and  C_9 
REMARK    6  A    between atoms: C_9  and  C_12 
ROOT
HETATM    1  N           1      -0.004  -0.053  -0.400  0.00  0.00    -0.345 N 
HETATM    2  O           1      -0.401   1.507  -1.947  0.00  0.00    -0.272 OA
HETATM    3  C           1      -0.572   0.372  -1.571  0.00  0.00     0.243 C 
HETATM    4  H           1      -0.147  -1.004  -0.084  0.00  0.00     0.163 HD
ENDROOT
BRANCH   1   5
HETATM    5  C           1       0.801   0.859   0.389  0.00  0.00     0.189 C 
BRANCH   5   6
HETATM    6  C           1       1.310   0.141   1.632  0.00  0.00     0.014 C 
HETATM    7  C           1       0.803   0.860   2.875  0.00  0.00     0.012 C 
BRANCH   6   8
HETATM    8  C           1       0.801  -1.294   1.632  0.00  0.00     0.002 C 
HETATM    9  C           1      -0.722  -1.294   1.632  0.00  0.00     0.005 C 
ENDBRANCH   6   8
ENDBRANCH   5   6
BRANCH   5  10
HETATM   10  C           1       1.974   1.333  -0.434  0.00  0.00     0.197 C 
HETATM   11  O           1       3.141   1.109  -0.047  0.00  0.00    -0.646 OA
HETATM   12  O           1       1.778   1.950  -1.504  0.00  0.00    -0.646 OA
ENDBRANCH   5  10
ENDBRANCH   1   5
BRANCH   3  13
HETATM   13  C           1      -1.410  -0.577  -2.391  0.00  0.00     0.332 C 
BRANCH  13  14
HETATM   14  N           1      -1.912   0.129  -3.616  0.00  0.00    -0.071 N 
HETATM   15  H           1      -2.492  -0.529  -4.185  0.00  0.00     0.274 HD
HETATM   16  H           1      -2.493   0.949  -3.332  0.00  0.00     0.274 HD
HETATM   17  H           1      -1.099   0.457  -4.186  0.00  0.00     0.274 HD
ENDBRANCH  13  14
ENDBRANCH   3  13
TORSDOF 6
