REMARK  7 active torsions:
REMARK  status: ('A' for Active; 'I' for Inactive)
REMARK    1  A    between atoms: N_2  and  C_15 
REMARK       I    between atoms: N_2  and  C_3 
REMARK    2  A    between atoms: C_3  and  C_17 
REMARK    3  A    between atoms: N_7  and  C_17 
REMARK    4  A    between atoms: Se_12  and  C_13 
REMARK    5  A    between atoms: C_13  and  C_14 
REMARK    6  A    between atoms: C_14  and  C_15 
REMARK    7  A    between atoms: C_15  and  C_16 
ROOT
HETATM    1  N           1      -0.095  -0.488  -0.763  0.00  0.00    -0.345 N 
HETATM    2  C           1       0.633  -1.217  -1.664  0.00  0.00     0.243 C 
HETATM    3  O           1       1.810  -1.411  -1.474  0.00  0.00    -0.272 OA
HETATM    4  H           1      -1.081  -0.326  -0.922  0.00  0.00     0.163 HD
ENDROOT
BRANCH   1   5
HETATM    5  C           1       0.547   0.052   0.420  0.00  0.00     0.185 C 
BRANCH   5   6
HETATM    6  C           1      -0.478   0.815   1.249  0.00  0.00     0.036 C 
BRANCH   6   7
HETATM    7  C           1       0.195   1.382   2.492  0.00  0.00     0.003 C 
BRANCH   7   8
HETATM    8 Se           1       0.032   3.324   2.492  0.00  0.00     0.000 Se
HETATM    9  C           1      -1.917   3.324   2.492  0.00  0.00     0.000 C 
ENDBRANCH   7   8
ENDBRANCH   6   7
ENDBRANCH   5   6
BRANCH   5  10
HETATM   10  C           1       1.118  -1.078   1.241  0.00  0.00     0.196 C 
HETATM   11  O           1       0.728  -1.257   2.415  0.00  0.00    -0.646 OA
HETATM   12  O           1       1.982  -1.835   0.747  0.00  0.00    -0.646 OA
ENDBRANCH   5  10
ENDBRANCH   1   5
BRANCH   2  13
HETATM   13  C           1      -0.035  -1.779  -2.895  0.00  0.00     0.332 C 
BRANCH  13  14
HETATM   14  N           1       0.972  -2.531  -3.713  0.00  0.00    -0.071 N 
HETATM   15  H           1       1.368  -3.313  -3.144  0.00  0.00     0.274 HD
HETATM   16  H           1       1.741  -1.883  -3.999  0.00  0.00     0.274 HD
HETATM   17  H           1       0.510  -2.920  -4.565  0.00  0.00     0.274 HD
ENDBRANCH  13  14
ENDBRANCH   2  13
TORSDOF 7
