REMARK  6 active torsions:
REMARK  status: ('A' for Active; 'I' for Inactive)
REMARK       I    between atoms: C_6  and  N_9 
REMARK    1  A    between atoms: C_6  and  C_10 
REMARK       I    between atoms: C_7  and  N_8 
REMARK    2  A    between atoms: C_7  and  C_15 
REMARK    3  A    between atoms: N_9  and  C_14 
REMARK    4  A    between atoms: C_10  and  N_16 
REMARK    5  A    between atoms: C_14  and  C_15 
REMARK    6  A    between atoms: C_14  and  C_18 
ROOT
HETATM    1  C           1      -0.269  -0.776  -0.159  0.00  0.00     0.194 C 
ENDROOT
BRANCH   1   2
HETATM    2  N           1       0.457   0.479  -0.159  0.00  0.00    -0.345 N 
HETATM    3  H           1       1.469   0.478  -0.158  0.00  0.00     0.163 HD
HETATM    4  C           1      -0.226   1.665  -0.158  0.00  0.00     0.243 C 
HETATM    5  O           1      -1.434   1.666  -0.159  0.00  0.00    -0.272 OA
BRANCH   4   6
HETATM    6  C           1       0.530   2.971  -0.157  0.00  0.00     0.332 C 
BRANCH   6   7
HETATM    7  N           1      -0.443   4.113  -0.157  0.00  0.00    -0.071 N 
HETATM    8  H           1      -1.043   4.059  -1.011  0.00  0.00     0.274 HD
HETATM    9  H           1      -1.044   4.058   0.696  0.00  0.00     0.274 HD
HETATM   10  H           1       0.080   5.017  -0.157  0.00  0.00     0.274 HD
ENDBRANCH   6   7
ENDBRANCH   4   6
ENDBRANCH   1   2
BRANCH   1  11
HETATM   11  C           1       0.720  -1.934  -0.159  0.00  0.00     0.138 C 
BRANCH  11  12
HETATM   12  C           1      -0.034  -3.241  -0.159  0.00  0.00     0.217 C 
HETATM   13  O           1      -1.242  -3.241  -0.159  0.00  0.00    -0.274 OA
HETATM   14  N           1       0.650  -4.427  -0.159  0.00  0.00    -0.370 N 
HETATM   15  H           1       1.662  -4.427  -0.159  0.00  0.00     0.159 HD
HETATM   16  H           1       0.144  -5.303  -0.159  0.00  0.00     0.159 HD
ENDBRANCH  11  12
ENDBRANCH   1  11
BRANCH   1  17
HETATM   17  C           1      -1.137  -0.855   1.072  0.00  0.00     0.197 C 
HETATM   18  O           1      -0.971  -1.781   1.896  0.00  0.00    -0.646 OA
HETATM   19  O           1      -2.022   0.006   1.270  0.00  0.00    -0.646 OA
ENDBRANCH   1  17
TORSDOF 6
