REMARK  6 active torsions:
REMARK  status: ('A' for Active; 'I' for Inactive)
REMARK    1  A    between atoms: C_1  and  O_6 
REMARK    2  A    between atoms: C_1  and  C_2 
REMARK    3  A    between atoms: C_2  and  C_9 
REMARK    4  A    between atoms: C_2  and  N_15 
REMARK    5  A    between atoms: N_10  and  C_14 
REMARK    6  A    between atoms: C_14  and  C_16 
REMARK       I    between atoms: N_15  and  C_16 
ROOT
HETATM    1  H           1       0.597  -1.379  -0.181  0.00  0.00     0.163 HD
HETATM    2  O           1       0.175   1.729  -0.182  0.00  0.00    -0.272 OA
HETATM    3  N           1       0.092  -0.502  -0.181  0.00  0.00    -0.343 N 
HETATM    4  C           1       0.778   0.683  -0.181  0.00  0.00     0.243 C 
ENDROOT
BRANCH   3   5
HETATM    5  C           1      -1.358  -0.501  -0.182  0.00  0.00     0.209 C 
BRANCH   5   6
HETATM    6  C           1      -1.866  -1.937  -0.182  0.00  0.00     0.200 C 
BRANCH   6   7
HETATM    7  O           1      -3.268  -1.937  -0.182  0.00  0.00    -0.398 OA
HETATM    8  H           1      -3.542  -2.838  -0.182  0.00  0.00     0.209 HD
ENDBRANCH   6   7
ENDBRANCH   5   6
BRANCH   5   9
HETATM    9  C           1      -1.860   0.211   1.050  0.00  0.00     0.198 C 
HETATM   10  O           1      -1.557   1.408   1.247  0.00  0.00    -0.646 OA
HETATM   11  O           1      -2.579  -0.395   1.873  0.00  0.00    -0.646 OA
ENDBRANCH   5   9
ENDBRANCH   3   5
BRANCH   4  12
HETATM   12  C           1       2.287   0.681  -0.180  0.00  0.00     0.332 C 
BRANCH  12  13
HETATM   13  N           1       2.789   2.094  -0.180  0.00  0.00    -0.071 N 
HETATM   14  H           1       3.834   2.093  -0.180  0.00  0.00     0.274 HD
HETATM   15  H           1       2.442   2.587  -1.034  0.00  0.00     0.274 HD
HETATM   16  H           1       2.441   2.588   0.673  0.00  0.00     0.274 HD
ENDBRANCH  12  13
ENDBRANCH   4  12
TORSDOF 6
