REMARK  5 active torsions:
REMARK  status: ('A' for Active; 'I' for Inactive)
REMARK       I    between atoms: C_1  and  N_8 
REMARK    1  A    between atoms: C_1  and  C_2 
REMARK    2  A    between atoms: C_2  and  N_5 
REMARK    3  A    between atoms: N_8  and  C_12 
REMARK    4  A    between atoms: C_10  and  C_12 
REMARK    5  A    between atoms: C_12  and  C_13 
ROOT
HETATM    1  C           1       0.786  -0.249   1.338  0.00  0.00     0.243 C 
HETATM    2  O           1       0.614  -1.383   1.716  0.00  0.00    -0.272 OA
HETATM    3  N           1       0.220   0.176   0.167  0.00  0.00    -0.345 N 
HETATM    4  H           1       0.363   1.127  -0.149  0.00  0.00     0.163 HD
ENDROOT
BRANCH   3   5
HETATM    5  C           1      -0.586  -0.736  -0.622  0.00  0.00     0.189 C 
BRANCH   5   6
HETATM    6  C           1      -1.093  -0.018  -1.866  0.00  0.00     0.010 C 
HETATM    7  C           1      -2.616  -0.018  -1.866  0.00  0.00     0.012 C 
HETATM    8  C           1      -0.585   1.417  -1.866  0.00  0.00     0.012 C 
ENDBRANCH   5   6
BRANCH   5   9
HETATM    9  C           1       0.252  -1.922  -1.030  0.00  0.00     0.197 C 
HETATM   10  O           1       0.768  -2.653  -0.158  0.00  0.00    -0.646 OA
HETATM   11  O           1       0.430  -2.174  -2.242  0.00  0.00    -0.646 OA
ENDBRANCH   5   9
ENDBRANCH   3   5
BRANCH   1  12
HETATM   12  C           1       1.625   0.701   2.159  0.00  0.00     0.332 C 
BRANCH  12  13
HETATM   13  N           1       2.125  -0.005   3.384  0.00  0.00    -0.071 N 
HETATM   14  H           1       2.705  -0.826   3.101  0.00  0.00     0.274 HD
HETATM   15  H           1       1.312  -0.331   3.954  0.00  0.00     0.274 HD
HETATM   16  H           1       2.706   0.653   3.952  0.00  0.00     0.274 HD
ENDBRANCH  12  13
ENDBRANCH   1  12
TORSDOF 5
