REMARK  7 active torsions:
REMARK  status: ('A' for Active; 'I' for Inactive)
REMARK       I    between atoms: C_1  and  N_7 
REMARK    1  A    between atoms: C_1  and  C_9 
REMARK    2  A    between atoms: N_7  and  C_17 
REMARK    3  A    between atoms: C_9  and  N_10 
REMARK    4  A    between atoms: C_11  and  C_17 
REMARK    5  A    between atoms: C_13  and  C_15 
REMARK    6  A    between atoms: C_15  and  C_16 
REMARK    7  A    between atoms: C_16  and  C_17 
ROOT
HETATM    1  C           1      -1.256   0.802   0.752  0.00  0.00     0.243 C 
HETATM    2  N           1      -0.360   0.666  -0.274  0.00  0.00    -0.345 N 
HETATM    3  H           1      -0.354   1.335  -1.033  0.00  0.00     0.163 HD
HETATM    4  O           1      -1.263   0.004   1.658  0.00  0.00    -0.272 OA
ENDROOT
BRANCH   2   5
HETATM    5  C           1       0.580  -0.438  -0.273  0.00  0.00     0.186 C 
BRANCH   5   6
HETATM    6  C           1       1.447  -0.358   0.960  0.00  0.00     0.196 C 
HETATM    7  O           1       0.925  -0.406   2.094  0.00  0.00    -0.646 OA
HETATM    8  O           1       2.687  -0.245   0.846  0.00  0.00    -0.646 OA
ENDBRANCH   5   6
BRANCH   5   9
HETATM    9  C           1       1.456  -0.358  -1.517  0.00  0.00     0.046 C 
BRANCH   9  10
HETATM   10  C           1       2.446  -1.516  -1.517  0.00  0.00     0.116 C 
BRANCH  10  11
HETATM   11  C           1       1.691  -2.823  -1.517  0.00  0.00     0.172 C 
HETATM   12  O           1       0.441  -2.823  -1.517  0.00  0.00    -0.648 OA
HETATM   13  O           1       2.316  -3.906  -1.517  0.00  0.00    -0.648 OA
ENDBRANCH  10  11
ENDBRANCH   9  10
ENDBRANCH   5   9
ENDBRANCH   2   5
BRANCH   1  14
HETATM   14  C           1      -2.235   1.951   0.751  0.00  0.00     0.332 C 
BRANCH  14  15
HETATM   15  N           1      -3.098   1.874   1.975  0.00  0.00    -0.071 N 
HETATM   16  H           1      -3.776   2.669   1.975  0.00  0.00     0.274 HD
HETATM   17  H           1      -3.623   0.970   1.975  0.00  0.00     0.274 HD
HETATM   18  H           1      -2.498   1.928   2.829  0.00  0.00     0.274 HD
ENDBRANCH  14  15
ENDBRANCH   1  14
TORSDOF 7
