REMARK  6 active torsions:
REMARK  status: ('A' for Active; 'I' for Inactive)
REMARK    1  A    between atoms: N_5  and  C_6 
REMARK    2  A    between atoms: C_6  and  C_13 
REMARK    3  A    between atoms: C_7  and  C_9 
REMARK    4  A    between atoms: C_9  and  C_17 
REMARK    5  A    between atoms: C_9  and  N_14 
REMARK       I    between atoms: C_13  and  N_14 
REMARK    6  A    between atoms: C_17  and  C_18 
ROOT
HETATM    1  C           1       0.792   1.196  -1.269  0.00  0.00     0.191 C 
ENDROOT
BRANCH   1   2
HETATM    2  C           1       1.093   2.414  -2.108  0.00  0.00     0.197 C 
HETATM    3  O           1       2.278   2.725  -2.355  0.00  0.00    -0.646 OA
HETATM    4  O           1       0.158   3.112  -2.555  0.00  0.00    -0.646 OA
ENDBRANCH   1   2
BRANCH   1   5
HETATM    5  C           1      -0.716   1.043  -1.119  0.00  0.00     0.094 C 
BRANCH   5   6
HETATM    6  C           1      -1.059  -0.407  -0.975  0.00  0.00     0.028 A 
HETATM    7  C           1      -0.141  -1.431  -0.979  0.00  0.00     0.114 A 
HETATM    8  N           1      -0.881  -2.570  -0.822  0.00  0.00    -0.360 N 
HETATM    9  C           1      -2.193  -2.198  -0.731  0.00  0.00     0.180 A 
HETATM   10  H           1      -0.510  -3.551  -0.780  0.00  0.00     0.166 HD
HETATM   11  N           1      -2.330  -0.896  -0.820  0.00  0.00    -0.354 N 
ATOM     12  HN          1      -3.198  -0.361  -0.782  1.00  0.00     0.166 HD
ENDBRANCH   5   6
ENDBRANCH   1   5
BRANCH   1  13
HETATM   13  N           1       1.394   1.352   0.041  0.00  0.00    -0.345 N 
HETATM   14  C           1       1.253   0.366   0.980  0.00  0.00     0.243 C 
HETATM   15  O           1       2.066  -0.526   1.046  0.00  0.00    -0.272 OA
HETATM   16  H           1       1.918   2.189   0.261  0.00  0.00     0.163 HD
BRANCH  14  17
HETATM   17  C           1       0.083   0.392   1.932  0.00  0.00     0.332 C 
BRANCH  17  18
HETATM   18  N           1       0.160  -0.789   2.853  0.00  0.00    -0.071 N 
HETATM   19  H           1      -0.650  -0.771   3.513  0.00  0.00     0.274 HD
HETATM   20  H           1       0.132  -1.670   2.292  0.00  0.00     0.274 HD
HETATM   21  H           1       1.052  -0.750   3.396  0.00  0.00     0.274 HD
ENDBRANCH  17  18
ENDBRANCH  14  17
ENDBRANCH   1  13
TORSDOF 6
