REMARK  6 active torsions:
REMARK  status: ('A' for Active; 'I' for Inactive)
REMARK    1  A    between atoms: C_1  and  C_10 
REMARK    2  A    between atoms: C_1  and  N_2 
REMARK    3  A    between atoms: C_6  and  C_7 
REMARK    4  A    between atoms: C_6  and  C_14 
REMARK    5  A    between atoms: C_6  and  N_11 
REMARK    6  A    between atoms: C_7  and  S_8 
REMARK       I    between atoms: C_10  and  N_11 
ROOT
HETATM    1  H           1       0.630  -1.359  -0.181  0.00  0.00     0.163 HD
HETATM    2  C           1       0.811   0.703  -0.181  0.00  0.00     0.243 C 
HETATM    3  N           1       0.125  -0.482  -0.181  0.00  0.00    -0.344 N 
HETATM    4  O           1       0.208   1.750  -0.182  0.00  0.00    -0.272 OA
ENDROOT
BRANCH   3   5
HETATM    5  C           1      -1.325  -0.480  -0.182  0.00  0.00     0.194 C 
BRANCH   5   6
HETATM    6  C           1      -1.833  -1.916  -0.182  0.00  0.00     0.106 C 
BRANCH   6   7
HETATM    7  S           1      -3.648  -1.916  -0.182  0.00  0.00    -0.180 SA
HETATM    8  H           1      -3.789  -3.253  -0.182  0.00  0.00     0.101 HD
ENDBRANCH   6   7
ENDBRANCH   5   6
BRANCH   5   9
HETATM    9  C           1      -1.827   0.232   1.050  0.00  0.00     0.197 C 
HETATM   10  O           1      -2.546  -0.374   1.873  0.00  0.00    -0.646 OA
HETATM   11  O           1      -1.524   1.429   1.247  0.00  0.00    -0.646 OA
ENDBRANCH   5   9
ENDBRANCH   3   5
BRANCH   2  12
HETATM   12  C           1       2.320   0.702  -0.180  0.00  0.00     0.332 C 
BRANCH  12  13
HETATM   13  N           1       2.822   2.115  -0.180  0.00  0.00    -0.071 N 
HETATM   14  H           1       3.867   2.114  -0.180  0.00  0.00     0.274 HD
HETATM   15  H           1       2.475   2.608  -1.034  0.00  0.00     0.274 HD
HETATM   16  H           1       2.474   2.608   0.673  0.00  0.00     0.274 HD
ENDBRANCH  12  13
ENDBRANCH   2  12
TORSDOF 6
