REMARK  9 active torsions:
REMARK  status: ('A' for Active; 'I' for Inactive)
REMARK    1  A    between atoms: P_2  and  O_3 
REMARK    2  A    between atoms: P_2  and  O_7 
REMARK    3  A    between atoms: O_3  and  C_4 
REMARK    4  A    between atoms: C_6  and  C_10 
REMARK    5  A    between atoms: C_10  and  C_11 
REMARK    6  A    between atoms: C_11  and  C_13 
REMARK    7  A    between atoms: C_11  and  N_20 
REMARK    8  A    between atoms: N_15  and  C_26 
REMARK       I    between atoms: C_17  and  N_20 
REMARK    9  A    between atoms: C_17  and  C_26 
ROOT
HETATM    1  C           1       0.952   1.493  -1.230  0.00  0.00     0.074 C 
ENDROOT
BRANCH   1   2
HETATM    2  C           1       0.042   0.344  -0.926  0.00  0.00    -0.056 A 
HETATM    3  C           1       0.576  -0.900  -0.593  0.00  0.00     0.010 A 
HETATM    4  C           1      -0.272  -1.971  -0.309  0.00  0.00     0.038 A 
HETATM    5  C           1      -1.655  -1.796  -0.358  0.00  0.00     0.081 A 
HETATM    6  C           1      -2.190  -0.551  -0.690  0.00  0.00     0.038 A 
HETATM    7  C           1      -1.341   0.519  -0.974  0.00  0.00     0.010 A 
BRANCH   5   8
HETATM    8  O           1      -2.479  -2.836  -0.082  0.00  0.00    -0.247 OA
BRANCH   8   9
HETATM    9  P           1      -4.072  -2.580  -0.153  0.00  0.00     0.411 P 
HETATM   10  O           1      -4.447  -1.526   0.816  0.00  0.00    -0.624 OA
HETATM   11  O           1      -4.788  -3.832   0.179  0.00  0.00    -0.624 OA
BRANCH   9  12
HETATM   12  O           1      -4.475  -2.107  -1.644  0.00  0.00    -0.300 OA
HETATM   13  H           1      -5.408  -1.977  -1.615  0.00  0.00     0.223 HD
ENDBRANCH   9  12
ENDBRANCH   8   9
ENDBRANCH   5   8
ENDBRANCH   1   2
BRANCH   1  14
HETATM   14  C           1       2.401   1.040  -1.108  0.00  0.00     0.189 C 
BRANCH  14  15
HETATM   15  C           1       3.261   1.839  -2.055  0.00  0.00     0.197 C 
HETATM   16  O           1       2.743   2.715  -2.781  0.00  0.00    -0.646 OA
HETATM   17  O           1       4.491   1.625  -2.114  0.00  0.00    -0.646 OA
ENDBRANCH  14  15
BRANCH  14  18
HETATM   18  N           1       2.858   1.249   0.252  0.00  0.00    -0.345 N 
HETATM   19  C           1       2.226   0.621   1.292  0.00  0.00     0.243 C 
HETATM   20  O           1       2.598  -0.469   1.656  0.00  0.00    -0.272 OA
HETATM   21  H           1       3.645   1.859   0.433  0.00  0.00     0.163 HD
BRANCH  19  22
HETATM   22  C           1       1.063   1.291   1.982  0.00  0.00     0.332 C 
BRANCH  22  23
HETATM   23  N           1       0.552   0.402   3.077  0.00  0.00    -0.071 N 
HETATM   24  H           1       0.237  -0.507   2.669  0.00  0.00     0.274 HD
HETATM   25  H           1       1.315   0.229   3.769  0.00  0.00     0.274 HD
HETATM   26  H           1      -0.254   0.866   3.555  0.00  0.00     0.274 HD
ENDBRANCH  22  23
ENDBRANCH  19  22
ENDBRANCH  14  18
ENDBRANCH   1  14
TORSDOF 9
