REMARK  8 active torsions:
REMARK  status: ('A' for Active; 'I' for Inactive)
REMARK    1  A    between atoms: N_1  and  C_17 
REMARK       I    between atoms: N_2  and  C_15 
REMARK       I    between atoms: N_3  and  C_15 
REMARK    2  A    between atoms: N_3  and  C_19 
REMARK    3  A    between atoms: C_8  and  C_19 
REMARK    4  A    between atoms: C_8  and  C_9 
REMARK    5  A    between atoms: C_9  and  C_16 
REMARK    6  A    between atoms: C_16  and  C_25 
REMARK    7  A    between atoms: C_16  and  N_22 
REMARK    8  A    between atoms: C_17  and  C_20 
REMARK       I    between atoms: C_20  and  N_22 
ROOT
HETATM    1  C           1       1.259   0.774  -0.131  0.00  0.00     0.185 C 
ENDROOT
BRANCH   1   2
HETATM    2  C           1       2.104  -0.423   0.285  0.00  0.00     0.038 C 
BRANCH   2   3
HETATM    3  C           1       1.258  -1.380   1.114  0.00  0.00     0.023 C 
BRANCH   3   4
HETATM    4  C           1       0.749  -0.662   2.357  0.00  0.00     0.138 C 
BRANCH   4   5
HETATM    5  N           1      -0.721  -0.662   2.357  0.00  0.00    -0.227 N 
HETATM    6  C           1      -1.354  -1.758   2.357  0.00  0.00     0.665 C 
HETATM    7  N           1      -0.721  -2.854   2.357  0.00  0.00    -0.235 N 
HETATM    8  N           1      -2.654  -1.758   2.357  0.00  0.00    -0.235 N 
HETATM    9  H           1       0.329  -2.854   2.357  0.00  0.00     0.174 HD
HETATM   10  H           1      -1.246  -3.764   2.357  0.00  0.00     0.174 HD
HETATM   11  H           1      -3.176  -0.853   2.357  0.00  0.00     0.174 HD
HETATM   12  H           1      -3.176  -2.663   2.357  0.00  0.00     0.174 HD
HETATM   13  H           1      -1.246   0.248   2.357  0.00  0.00     0.177 HD
ENDBRANCH   4   5
ENDBRANCH   3   4
ENDBRANCH   2   3
ENDBRANCH   1   2
BRANCH   1  14
HETATM   14  C           1       2.141   1.991  -0.268  0.00  0.00     0.196 C 
HETATM   15  O           1       3.368   1.901  -0.046  0.00  0.00    -0.646 OA
HETATM   16  O           1       1.645   3.088  -0.603  0.00  0.00    -0.646 OA
ENDBRANCH   1  14
BRANCH   1  17
HETATM   17  N           1       0.620   0.495  -1.402  0.00  0.00    -0.345 N 
HETATM   18  H           1       0.776  -0.392  -1.863  0.00  0.00     0.163 HD
HETATM   19  C           1      -0.196   1.432  -1.978  0.00  0.00     0.243 C 
HETATM   20  O           1      -0.382   2.491  -1.428  0.00  0.00    -0.272 OA
BRANCH  19  21
HETATM   21  C           1      -0.861   1.142  -3.302  0.00  0.00     0.332 C 
BRANCH  21  22
HETATM   22  N           1      -1.694   2.320  -3.712  0.00  0.00    -0.071 N 
HETATM   23  H           1      -2.154   2.119  -4.628  0.00  0.00     0.274 HD
HETATM   24  H           1      -2.425   2.499  -2.987  0.00  0.00     0.274 HD
HETATM   25  H           1      -1.083   3.162  -3.807  0.00  0.00     0.274 HD
ENDBRANCH  21  22
ENDBRANCH  19  21
ENDBRANCH   1  17
TORSDOF 8
