REMARK  8 active torsions:
REMARK  status: ('A' for Active; 'I' for Inactive)
REMARK    1  A    between atoms: O_2  and  P_4 
REMARK    2  A    between atoms: C_3  and  C_7 
REMARK    3  A    between atoms: P_4  and  O_5 
REMARK    4  A    between atoms: O_5  and  C_6 
REMARK    5  A    between atoms: C_6  and  C_7 
REMARK    6  A    between atoms: C_7  and  N_10 
REMARK       I    between atoms: N_10  and  C_11 
REMARK    7  A    between atoms: C_11  and  C_12 
REMARK    8  A    between atoms: C_12  and  N_13 
ROOT
HETATM    1  C           1      -0.068  -1.197   1.276  0.00  0.00     0.210 C 
ENDROOT
BRANCH   1   2
HETATM    2  C           1      -0.822  -2.504   1.276  0.00  0.00     0.198 C 
HETATM    3  O           1      -2.072  -2.504   1.276  0.00  0.00    -0.646 OA
HETATM    4  O           1      -0.197  -3.586   1.276  0.00  0.00    -0.646 OA
ENDBRANCH   1   2
BRANCH   1   5
HETATM    5  C           1      -1.057  -0.039   1.276  0.00  0.00     0.217 C 
BRANCH   5   6
HETATM    6  O           1      -1.863  -0.112   0.131  0.00  0.00    -0.287 OA
BRANCH   6   7
HETATM    7  P           1      -2.975   1.049  -0.027  0.00  0.00     0.406 P 
HETATM    8  O           1      -3.898   1.008   1.129  0.00  0.00    -0.624 OA
HETATM    9  O           1      -2.307   2.368  -0.079  0.00  0.00    -0.624 OA
BRANCH   7  10
HETATM   10  O           1      -3.808   0.813  -1.391  0.00  0.00    -0.300 OA
HETATM   11  H           1      -4.432   1.518  -1.420  0.00  0.00     0.223 HD
ENDBRANCH   7  10
ENDBRANCH   6   7
ENDBRANCH   5   6
ENDBRANCH   1   5
BRANCH   1  12
HETATM   12  N           1       0.765  -1.121   0.091  0.00  0.00    -0.343 N 
HETATM   13  C           1       1.546  -0.018  -0.126  0.00  0.00     0.243 C 
HETATM   14  O           1       1.542   0.892   0.669  0.00  0.00    -0.272 OA
HETATM   15  H           1       0.769  -1.882  -0.575  0.00  0.00     0.163 HD
BRANCH  13  16
HETATM   16  C           1       2.413   0.062  -1.359  0.00  0.00     0.332 C 
BRANCH  16  17
HETATM   17  N           1       3.164   1.361  -1.360  0.00  0.00    -0.071 N 
HETATM   18  H           1       3.764   1.416  -2.214  0.00  0.00     0.274 HD
HETATM   19  H           1       2.485   2.155  -1.360  0.00  0.00     0.274 HD
HETATM   20  H           1       3.765   1.416  -0.508  0.00  0.00     0.274 HD
ENDBRANCH  16  17
ENDBRANCH  13  16
ENDBRANCH   1  12
TORSDOF 8
