REMARK  3 active torsions:
REMARK  status: ('A' for Active; 'I' for Inactive)
REMARK    1  A    between atoms: N_1  and  C_7 
REMARK    2  A    between atoms: C_7  and  C_11 
REMARK       I    between atoms: C_11  and  N_12 
REMARK    3  A    between atoms: C_13  and  C_15 
ROOT
HETATM    1  O           1       0.347   2.155   0.545  0.00  0.00    -0.272 OA
HETATM    2  C           1       0.044  -1.347  -0.286  0.00  0.00     0.127 C 
HETATM    3  C           1      -1.169  -1.702  -1.130  0.00  0.00     0.022 C 
HETATM    4  C           1      -2.269  -0.755  -0.663  0.00  0.00     0.038 C 
HETATM    5  C           1       0.703   1.057   0.191  0.00  0.00     0.246 C 
HETATM    6  N           1      -0.204   0.034   0.118  0.00  0.00    -0.336 N 
HETATM    7  C           1      -1.630   0.086   0.428  0.00  0.00     0.188 C 
ENDROOT
BRANCH   5   8
HETATM    8  C           1       2.147   0.812  -0.173  0.00  0.00     0.332 C 
BRANCH   8   9
HETATM    9  N           1       2.927   2.083  -0.010  0.00  0.00    -0.071 N 
HETATM   10  H           1       3.927   1.913  -0.262  0.00  0.00     0.274 HD
HETATM   11  H           1       2.530   2.817  -0.639  0.00  0.00     0.274 HD
HETATM   12  H           1       2.867   2.403   0.983  0.00  0.00     0.274 HD
ENDBRANCH   8   9
ENDBRANCH   5   8
BRANCH   7  13
HETATM   13  C           1      -1.905  -0.502   1.790  0.00  0.00     0.196 C 
HETATM   14  O           1      -3.075  -0.544   2.228  0.00  0.00    -0.646 OA
HETATM   15  O           1      -0.963  -0.948   2.481  0.00  0.00    -0.646 OA
ENDBRANCH   7  13
TORSDOF 3
