REMARK  6 active torsions:
REMARK  status: ('A' for Active; 'I' for Inactive)
REMARK    1  A    between atoms: N_5  and  C_7 
REMARK       I    between atoms: N_5  and  C_16 
REMARK    2  A    between atoms: O_6  and  C_14 
REMARK    3  A    between atoms: C_7  and  C_14 
REMARK    4  A    between atoms: C_7  and  C_17 
REMARK    5  A    between atoms: C_8  and  C_16 
REMARK    6  A    between atoms: C_8  and  N_9 
ROOT
HETATM    1  N           1       0.150   0.349   0.011  0.00  0.00    -0.343 N 
HETATM    2  O           1       0.545  -1.210   1.560  0.00  0.00    -0.272 OA
HETATM    3  H           1       0.294   1.300  -0.305  0.00  0.00     0.163 HD
HETATM    4  C           1       0.717  -0.075   1.183  0.00  0.00     0.243 C 
ENDROOT
BRANCH   1   5
HETATM    5  C           1      -0.656  -0.563  -0.777  0.00  0.00     0.214 C 
BRANCH   5   6
HETATM    6  C           1      -1.163   0.155  -2.021  0.00  0.00     0.147 C 
HETATM    7  C           1      -2.686   0.155  -2.021  0.00  0.00     0.042 C 
BRANCH   6   8
HETATM    8  O           1      -0.695   1.476  -2.021  0.00  0.00    -0.393 OA
HETATM    9  H           1       0.247   1.434  -2.021  0.00  0.00     0.210 HD
ENDBRANCH   6   8
ENDBRANCH   5   6
BRANCH   5  10
HETATM   10  C           1       0.183  -1.749  -1.186  0.00  0.00     0.199 C 
HETATM   11  O           1       0.361  -2.001  -2.397  0.00  0.00    -0.646 OA
HETATM   12  O           1       0.699  -2.480  -0.313  0.00  0.00    -0.646 OA
ENDBRANCH   5  10
ENDBRANCH   1   5
BRANCH   4  13
HETATM   13  C           1       1.556   0.874   2.003  0.00  0.00     0.332 C 
BRANCH  13  14
HETATM   14  N           1       2.056   0.168   3.229  0.00  0.00    -0.071 N 
HETATM   15  H           1       2.636   0.826   3.797  0.00  0.00     0.274 HD
HETATM   16  H           1       1.242  -0.158   3.798  0.00  0.00     0.274 HD
HETATM   17  H           1       2.636  -0.653   2.946  0.00  0.00     0.274 HD
ENDBRANCH  13  14
ENDBRANCH   4  13
TORSDOF 6
