REMARK  6 active torsions:
REMARK  status: ('A' for Active; 'I' for Inactive)
REMARK    1  A    between atoms: C_4  and  C_19 
REMARK    2  A    between atoms: C_4  and  N_20 
REMARK    3  A    between atoms: C_5  and  C_14 
REMARK    4  A    between atoms: N_8  and  C_14 
REMARK       I    between atoms: N_8  and  C_19 
REMARK    5  A    between atoms: C_12  and  C_13 
REMARK    6  A    between atoms: C_13  and  C_14 
ROOT
HETATM    1  C           1       1.623   0.632  -1.186  0.00  0.00     0.189 C 
ENDROOT
BRANCH   1   2
HETATM    2  C           1       2.483   1.432  -2.134  0.00  0.00     0.197 C 
HETATM    3  O           1       3.713   1.218  -2.193  0.00  0.00    -0.646 OA
HETATM    4  O           1       1.965   2.308  -2.860  0.00  0.00    -0.646 OA
ENDBRANCH   1   2
BRANCH   1   5
HETATM    5  N           1       2.080   0.842   0.174  0.00  0.00    -0.345 N 
HETATM    6  H           1       2.867   1.452   0.355  0.00  0.00     0.163 HD
HETATM    7  C           1       1.448   0.214   1.213  0.00  0.00     0.243 C 
HETATM    8  O           1       1.820  -0.876   1.577  0.00  0.00    -0.272 OA
BRANCH   7   9
HETATM    9  C           1       0.285   0.883   1.903  0.00  0.00     0.332 C 
BRANCH   9  10
HETATM   10  N           1      -0.227  -0.005   2.998  0.00  0.00    -0.071 N 
HETATM   11  H           1      -1.032   0.458   3.476  0.00  0.00     0.274 HD
HETATM   12  H           1       0.536  -0.179   3.691  0.00  0.00     0.274 HD
HETATM   13  H           1      -0.541  -0.914   2.590  0.00  0.00     0.274 HD
ENDBRANCH   9  10
ENDBRANCH   7   9
ENDBRANCH   1   5
BRANCH   1  14
HETATM   14  C           1       0.174   1.086  -1.309  0.00  0.00     0.074 C 
BRANCH  14  15
HETATM   15  C           1      -0.736  -0.063  -1.005  0.00  0.00    -0.056 A 
HETATM   16  C           1      -2.119   0.112  -1.053  0.00  0.00     0.007 A 
HETATM   17  C           1      -2.968  -0.959  -0.769  0.00  0.00     0.001 A 
HETATM   18  C           1      -2.433  -2.203  -0.437  0.00  0.00     0.000 A 
HETATM   19  C           1      -1.050  -2.378  -0.388  0.00  0.00     0.001 A 
HETATM   20  C           1      -0.202  -1.308  -0.672  0.00  0.00     0.007 A 
ENDBRANCH  14  15
ENDBRANCH   1  14
TORSDOF 6
