REMARK  8 active torsions:
REMARK  status: ('A' for Active; 'I' for Inactive)
REMARK    1  A    between atoms: C_5  and  C_6 
REMARK    2  A    between atoms: C_6  and  C_7 
REMARK    3  A    between atoms: C_6  and  N_15 
REMARK    4  A    between atoms: C_7  and  C_16 
REMARK       I    between atoms: C_13  and  N_15 
REMARK    5  A    between atoms: C_13  and  C_14 
REMARK    6  A    between atoms: C_14  and  N_20 
REMARK    7  A    between atoms: C_16  and  C_17 
REMARK    8  A    between atoms: C_17  and  N_18 
ROOT
HETATM    1  C           1       0.458   0.051  -0.248  0.00  0.00     0.185 C 
ENDROOT
BRANCH   1   2
HETATM    2  C           1       1.297   0.999  -1.069  0.00  0.00     0.196 C 
HETATM    3  O           1       0.965   1.271  -2.243  0.00  0.00    -0.646 OA
HETATM    4  O           1       2.325   1.511  -0.575  0.00  0.00    -0.646 OA
ENDBRANCH   1   2
BRANCH   1   5
HETATM    5  C           1      -0.727  -0.428  -1.077  0.00  0.00     0.038 C 
BRANCH   5   6
HETATM    6  C           1      -0.220  -1.146  -2.321  0.00  0.00     0.030 C 
BRANCH   6   7
HETATM    7  C           1      -0.728  -2.582  -2.321  0.00  0.00     0.230 C 
BRANCH   7   8
HETATM    8  N           1      -2.228  -2.582  -2.321  0.00  0.00    -0.079 N 
HETATM    9  H           1      -2.577  -3.567  -2.321  0.00  0.00     0.274 HD
HETATM   10  H           1      -2.576  -2.090  -1.467  0.00  0.00     0.274 HD
HETATM   11  H           1      -2.577  -2.089  -3.174  0.00  0.00     0.274 HD
ENDBRANCH   7   8
ENDBRANCH   6   7
ENDBRANCH   5   6
ENDBRANCH   1   5
BRANCH   1  12
HETATM   12  N           1      -0.026   0.736   0.935  0.00  0.00    -0.345 N 
HETATM   13  H           1      -1.021   0.829   1.094  0.00  0.00     0.163 HD
HETATM   14  C           1       0.863   1.256   1.836  0.00  0.00     0.243 C 
HETATM   15  O           1       2.050   1.145   1.646  0.00  0.00    -0.272 OA
BRANCH  14  16
HETATM   16  C           1       0.359   1.969   3.067  0.00  0.00     0.332 C 
BRANCH  16  17
HETATM   17  N           1       1.525   2.441   3.885  0.00  0.00    -0.071 N 
HETATM   18  H           1       2.106   3.097   3.316  0.00  0.00     0.274 HD
HETATM   19  H           1       2.104   1.619   4.171  0.00  0.00     0.274 HD
HETATM   20  H           1       1.176   2.934   4.737  0.00  0.00     0.274 HD
ENDBRANCH  16  17
ENDBRANCH  14  16
ENDBRANCH   1  12
TORSDOF 8
