REMARK  10 active torsions:
REMARK  status: ('A' for Active; 'I' for Inactive)
REMARK    1  A    between atoms: O_2  and  C_16 
REMARK    2  A    between atoms: O_2  and  P_7 
REMARK    3  A    between atoms: N_6  and  C_22 
REMARK    4  A    between atoms: P_7  and  O_9 
REMARK    5  A    between atoms: C_14  and  C_27 
REMARK    6  A    between atoms: C_14  and  C_16 
REMARK    7  A    between atoms: C_14  and  N_19 
REMARK       I    between atoms: N_19  and  C_21 
REMARK    8  A    between atoms: C_20  and  C_22 
REMARK    9  A    between atoms: C_20  and  C_25 
REMARK   10  A    between atoms: C_21  and  C_22 
ROOT
HETATM    1  O           1       0.425   0.452   0.640  0.00  0.00    -0.271 OA
HETATM    2  N           1      -1.231   1.850   0.099  0.00  0.00    -0.343 N 
HETATM    3  C           1      -0.057   1.202  -0.176  0.00  0.00     0.249 C 
HETATM    4  H           1      -1.634   2.478  -0.584  0.00  0.00     0.163 HD
ENDROOT
BRANCH   3   5
HETATM    5  C           1       0.636   1.425  -1.497  0.00  0.00     0.280 C 
BRANCH   5   6
HETATM    6  N           1       0.982   2.878  -1.641  0.00  0.00    -0.066 N 
HETATM    7  H           1       1.462   3.034  -2.556  0.00  0.00     0.275 HD
HETATM    8  H           1       0.107   3.448  -1.606  0.00  0.00     0.275 HD
HETATM    9  H           1       1.616   3.164  -0.862  0.00  0.00     0.275 HD
ENDBRANCH   5   6
BRANCH   5  10
HETATM   10  C           1       1.911   0.594  -1.550  0.00  0.00     0.101 C 
BRANCH  10  11
HETATM   11  C           1       1.569  -0.856  -1.405  0.00  0.00     0.028 A 
HETATM   12  N           1       0.297  -1.345  -1.251  0.00  0.00    -0.355 N 
HETATM   13  C           1       0.435  -2.647  -1.162  0.00  0.00     0.180 A 
ATOM     14  HN          1      -0.571  -0.811  -1.214  1.00  0.00     0.166 HD
HETATM   15  N           1       1.746  -3.019  -1.253  0.00  0.00    -0.360 N 
HETATM   16  C           1       2.486  -1.880  -1.409  0.00  0.00     0.114 A 
HETATM   17  H           1       2.118  -4.000  -1.211  0.00  0.00     0.166 HD
ENDBRANCH  10  11
ENDBRANCH   5  10
ENDBRANCH   3   5
BRANCH   2  18
HETATM   18  C           1      -1.897   1.635   1.369  0.00  0.00     0.210 C 
BRANCH  18  19
HETATM   19  C           1      -0.981   2.049   2.494  0.00  0.00     0.198 C 
HETATM   20  O           1      -0.571   3.228   2.565  0.00  0.00    -0.646 OA
HETATM   21  O           1      -0.633   1.214   3.356  0.00  0.00    -0.646 OA
ENDBRANCH  18  19
BRANCH  18  22
HETATM   22  C           1      -2.246   0.160   1.516  0.00  0.00     0.217 C 
BRANCH  22  23
HETATM   23  O           1      -1.072  -0.605   1.469  0.00  0.00    -0.287 OA
BRANCH  23  24
HETATM   24  P           1      -1.262  -2.203   1.611  0.00  0.00     0.406 P 
HETATM   25  O           1      -2.120  -2.698   0.511  0.00  0.00    -0.624 OA
HETATM   26  O           1      -1.901  -2.510   2.910  0.00  0.00    -0.624 OA
BRANCH  24  27
HETATM   27  O           1       0.180  -2.925   1.535  0.00  0.00    -0.300 OA
HETATM   28  H           1      -0.002  -3.844   1.623  0.00  0.00     0.223 HD
ENDBRANCH  24  27
ENDBRANCH  23  24
ENDBRANCH  22  23
ENDBRANCH  18  22
ENDBRANCH   2  18
TORSDOF 10
