REMARK  8 active torsions:
REMARK  status: ('A' for Active; 'I' for Inactive)
REMARK    1  A    between atoms: C_1  and  C_6 
REMARK    2  A    between atoms: C_1  and  C_11 
REMARK    3  A    between atoms: C_1  and  N_14 
REMARK       I    between atoms: C_6  and  N_7 
REMARK    4  A    between atoms: N_7  and  C_24 
REMARK    5  A    between atoms: C_9  and  C_11 
REMARK    6  A    between atoms: C_22  and  O_23 
REMARK    7  A    between atoms: C_22  and  C_24 
REMARK    8  A    between atoms: C_24  and  C_25 
ROOT
HETATM    1  C           1       0.588   0.605  -1.642  0.00  0.00     0.280 C 
ENDROOT
BRANCH   1   2
HETATM    2  C           1      -0.105   0.382  -0.320  0.00  0.00     0.249 C 
HETATM    3  N           1      -1.280   1.029  -0.045  0.00  0.00    -0.343 N 
HETATM    4  H           1      -1.683   1.657  -0.728  0.00  0.00     0.163 HD
HETATM    5  O           1       0.376  -0.368   0.496  0.00  0.00    -0.271 OA
BRANCH   3   6
HETATM    6  C           1      -1.946   0.815   1.225  0.00  0.00     0.214 C 
BRANCH   6   7
HETATM    7  C           1      -1.021   1.233   2.361  0.00  0.00     0.147 C 
HETATM    8  C           1      -0.755   0.037   3.265  0.00  0.00     0.042 C 
BRANCH   7   9
HETATM    9  O           1       0.191   1.696   1.830  0.00  0.00    -0.393 OA
HETATM   10  H           1      -0.015   2.432   1.279  0.00  0.00     0.210 HD
ENDBRANCH   7   9
ENDBRANCH   6   7
BRANCH   6  11
HETATM   11  C           1      -3.208   1.640   1.276  0.00  0.00     0.199 C 
HETATM   12  O           1      -4.108   1.457   0.427  0.00  0.00    -0.646 OA
HETATM   13  O           1      -3.354   2.505   2.165  0.00  0.00    -0.646 OA
ENDBRANCH   6  11
ENDBRANCH   3   6
ENDBRANCH   1   2
BRANCH   1  14
HETATM   14  C           1       1.863  -0.227  -1.694  0.00  0.00     0.101 C 
BRANCH  14  15
HETATM   15  C           1       1.520  -1.677  -1.549  0.00  0.00     0.028 A 
HETATM   16  C           1       2.437  -2.701  -1.554  0.00  0.00     0.114 A 
HETATM   17  N           1       1.697  -3.840  -1.397  0.00  0.00    -0.360 N 
HETATM   18  C           1       0.386  -3.468  -1.306  0.00  0.00     0.180 A 
HETATM   19  H           1       2.069  -4.821  -1.355  0.00  0.00     0.166 HD
HETATM   20  N           1       0.248  -2.165  -1.395  0.00  0.00    -0.355 N 
ATOM     21  HN          1      -0.620  -1.630  -1.358  1.00  0.00     0.166 HD
ENDBRANCH  14  15
ENDBRANCH   1  14
BRANCH   1  22
HETATM   22  N           1       0.933   2.057  -1.785  0.00  0.00    -0.066 N 
HETATM   23  H           1       1.568   2.343  -1.006  0.00  0.00     0.275 HD
HETATM   24  H           1       0.058   2.628  -1.750  0.00  0.00     0.275 HD
HETATM   25  H           1       1.413   2.213  -2.700  0.00  0.00     0.275 HD
ENDBRANCH   1  22
TORSDOF 8
