REMARK  9 active torsions:
REMARK  status: ('A' for Active; 'I' for Inactive)
REMARK       I    between atoms: C_1  and  N_6 
REMARK    1  A    between atoms: C_1  and  C_3 
REMARK    2  A    between atoms: C_3  and  C_4 
REMARK    3  A    between atoms: C_3  and  N_13 
REMARK    4  A    between atoms: C_4  and  C_9 
REMARK    5  A    between atoms: N_6  and  C_15 
REMARK    6  A    between atoms: C_8  and  C_21 
REMARK    7  A    between atoms: C_8  and  C_15 
REMARK    8  A    between atoms: C_11  and  C_15 
REMARK    9  A    between atoms: Se_20  and  C_21 
ROOT
HETATM    1  C           1       0.529   0.823  -2.240  0.00  0.00     0.280 C 
ENDROOT
BRANCH   1   2
HETATM    2  C           1      -0.164   0.600  -0.918  0.00  0.00     0.249 C 
HETATM    3  N           1      -1.339   1.247  -0.643  0.00  0.00    -0.345 N 
HETATM    4  H           1      -1.742   1.875  -1.326  0.00  0.00     0.163 HD
HETATM    5  O           1       0.317  -0.150  -0.103  0.00  0.00    -0.271 OA
BRANCH   3   6
HETATM    6  C           1      -2.005   1.033   0.627  0.00  0.00     0.185 C 
BRANCH   6   7
HETATM    7  C           1      -1.080   1.451   1.763  0.00  0.00     0.036 C 
BRANCH   7   8
HETATM    8  C           1      -0.814   0.255   2.667  0.00  0.00     0.003 C 
BRANCH   8   9
HETATM    9 Se           1       0.370   0.789   4.121  0.00  0.00     0.000 Se
HETATM   10  C           1       0.412  -0.972   4.953  0.00  0.00     0.000 C 
ENDBRANCH   8   9
ENDBRANCH   7   8
ENDBRANCH   6   7
BRANCH   6  11
HETATM   11  C           1      -3.267   1.858   0.677  0.00  0.00     0.196 C 
HETATM   12  O           1      -3.413   2.723   1.567  0.00  0.00    -0.646 OA
HETATM   13  O           1      -4.167   1.675  -0.171  0.00  0.00    -0.646 OA
ENDBRANCH   6  11
ENDBRANCH   3   6
ENDBRANCH   1   2
BRANCH   1  14
HETATM   14  C           1       1.804  -0.009  -2.292  0.00  0.00     0.101 C 
BRANCH  14  15
HETATM   15  C           1       1.461  -1.459  -2.147  0.00  0.00     0.028 A 
HETATM   16  C           1       2.378  -2.483  -2.152  0.00  0.00     0.114 A 
HETATM   17  N           1       1.638  -3.622  -1.995  0.00  0.00    -0.360 N 
HETATM   18  C           1       0.327  -3.250  -1.904  0.00  0.00     0.180 A 
HETATM   19  H           1       2.010  -4.603  -1.953  0.00  0.00     0.166 HD
HETATM   20  N           1       0.189  -1.947  -1.993  0.00  0.00    -0.355 N 
ATOM     21  HN          1      -0.679  -1.412  -1.956  1.00  0.00     0.166 HD
ENDBRANCH  14  15
ENDBRANCH   1  14
BRANCH   1  22
HETATM   22  N           1       0.874   2.275  -2.384  0.00  0.00    -0.066 N 
HETATM   23  H           1       1.354   2.431  -3.299  0.00  0.00     0.275 HD
HETATM   24  H           1      -0.001   2.846  -2.349  0.00  0.00     0.275 HD
HETATM   25  H           1       1.509   2.561  -1.604  0.00  0.00     0.275 HD
ENDBRANCH   1  22
TORSDOF 9
