REMARK  8 active torsions:
REMARK  status: ('A' for Active; 'I' for Inactive)
REMARK    1  A    between atoms: C_1  and  C_2 
REMARK    2  A    between atoms: C_1  and  C_10 
REMARK    3  A    between atoms: C_1  and  N_16 
REMARK    4  A    between atoms: C_2  and  O_3 
REMARK    5  A    between atoms: N_7  and  C_14 
REMARK    6  A    between atoms: C_13  and  C_14 
REMARK    7  A    between atoms: C_13  and  C_19 
REMARK    8  A    between atoms: C_14  and  C_15 
REMARK       I    between atoms: C_15  and  N_16 
ROOT
HETATM    1  C           1       0.536   0.645  -1.389  0.00  0.00     0.280 C 
ENDROOT
BRANCH   1   2
HETATM    2  N           1       0.881   2.097  -1.533  0.00  0.00    -0.066 N 
HETATM    3  H           1       0.006   2.668  -1.498  0.00  0.00     0.275 HD
HETATM    4  H           1       1.361   2.253  -2.448  0.00  0.00     0.275 HD
HETATM    5  H           1       1.516   2.383  -0.754  0.00  0.00     0.275 HD
ENDBRANCH   1   2
BRANCH   1   6
HETATM    6  C           1       1.811  -0.187  -1.441  0.00  0.00     0.101 C 
BRANCH   6   7
HETATM    7  C           1       1.468  -1.637  -1.297  0.00  0.00     0.028 A 
HETATM    8  C           1       2.385  -2.661  -1.301  0.00  0.00     0.114 A 
HETATM    9  N           1       1.645  -3.800  -1.145  0.00  0.00    -0.360 N 
HETATM   10  H           1       2.017  -4.781  -1.103  0.00  0.00     0.166 HD
HETATM   11  C           1       0.334  -3.428  -1.054  0.00  0.00     0.180 A 
HETATM   12  N           1       0.197  -2.125  -1.142  0.00  0.00    -0.355 N 
ATOM     13  HN          1      -0.671  -1.590  -1.103  1.00  0.00     0.166 HD
ENDBRANCH   6   7
ENDBRANCH   1   6
BRANCH   1  14
HETATM   14  C           1      -0.157   0.421  -0.068  0.00  0.00     0.249 C 
HETATM   15  O           1       0.324  -0.328   0.748  0.00  0.00    -0.271 OA
HETATM   16  N           1      -1.332   1.069   0.207  0.00  0.00    -0.343 N 
HETATM   17  H           1      -1.735   1.697  -0.476  0.00  0.00     0.163 HD
BRANCH  16  18
HETATM   18  C           1      -1.998   0.855   1.477  0.00  0.00     0.209 C 
BRANCH  18  19
HETATM   19  C           1      -1.073   1.273   2.613  0.00  0.00     0.200 C 
BRANCH  19  20
HETATM   20  O           1      -0.828   0.172   3.446  0.00  0.00    -0.398 OA
HETATM   21  H           1      -0.255   0.470   4.132  0.00  0.00     0.209 HD
ENDBRANCH  19  20
ENDBRANCH  18  19
BRANCH  18  22
HETATM   22  C           1      -3.260   1.680   1.528  0.00  0.00     0.198 C 
HETATM   23  O           1      -4.160   1.497   0.680  0.00  0.00    -0.646 OA
HETATM   24  O           1      -3.406   2.545   2.418  0.00  0.00    -0.646 OA
ENDBRANCH  18  22
ENDBRANCH  16  18
ENDBRANCH   1  14
TORSDOF 8
