REMARK  9 active torsions:
REMARK  status: ('A' for Active; 'I' for Inactive)
REMARK    1  A    between atoms: N_2  and  C_19 
REMARK       I    between atoms: N_2  and  C_3 
REMARK    2  A    between atoms: C_3  and  C_24 
REMARK    3  A    between atoms: C_8  and  C_10 
REMARK    4  A    between atoms: C_10  and  C_11 
REMARK    5  A    between atoms: C_11  and  C_19 
REMARK    6  A    between atoms: N_14  and  C_24 
REMARK    7  A    between atoms: C_16  and  C_23 
REMARK    8  A    between atoms: C_19  and  C_20 
REMARK    9  A    between atoms: C_23  and  C_24 
ROOT
HETATM    1  N           1      -1.311   1.063  -0.298  0.00  0.00    -0.345 N 
HETATM    2  C           1      -0.136   0.415  -0.572  0.00  0.00     0.249 C 
HETATM    3  O           1       0.345  -0.335   0.243  0.00  0.00    -0.271 OA
HETATM    4  H           1      -1.714   1.691  -0.981  0.00  0.00     0.163 HD
ENDROOT
BRANCH   2   5
HETATM    5  C           1       0.557   0.638  -1.894  0.00  0.00     0.280 C 
BRANCH   5   6
HETATM    6  N           1       0.902   2.091  -2.038  0.00  0.00    -0.066 N 
HETATM    7  H           1       1.382   2.246  -2.953  0.00  0.00     0.275 HD
HETATM    8  H           1       0.027   2.661  -2.003  0.00  0.00     0.275 HD
HETATM    9  H           1       1.537   2.377  -1.259  0.00  0.00     0.275 HD
ENDBRANCH   5   6
BRANCH   5  10
HETATM   10  C           1       1.832  -0.193  -1.946  0.00  0.00     0.101 C 
BRANCH  10  11
HETATM   11  C           1       1.489  -1.643  -1.802  0.00  0.00     0.028 A 
HETATM   12  C           1       2.406  -2.667  -1.806  0.00  0.00     0.114 A 
HETATM   13  N           1       1.666  -3.806  -1.650  0.00  0.00    -0.360 N 
HETATM   14  C           1       0.355  -3.435  -1.558  0.00  0.00     0.180 A 
HETATM   15  H           1       2.038  -4.787  -1.607  0.00  0.00     0.166 HD
HETATM   16  N           1       0.217  -2.132  -1.647  0.00  0.00    -0.355 N 
ATOM     17  HN          1      -0.651  -1.598  -1.609  1.00  0.00     0.166 HD
ENDBRANCH  10  11
ENDBRANCH   5  10
ENDBRANCH   2   5
BRANCH   1  18
HETATM   18  C           1      -1.977   0.848   0.972  0.00  0.00     0.186 C 
BRANCH  18  19
HETATM   19  C           1      -1.053   1.266   2.108  0.00  0.00     0.046 C 
BRANCH  19  20
HETATM   20  C           1      -0.786   0.070   3.013  0.00  0.00     0.116 C 
BRANCH  20  21
HETATM   21  C           1       0.130   0.484   4.138  0.00  0.00     0.172 C 
HETATM   22  O           1       0.478  -0.351   5.000  0.00  0.00    -0.648 OA
HETATM   23  O           1       0.541   1.663   4.208  0.00  0.00    -0.648 OA
ENDBRANCH  20  21
ENDBRANCH  19  20
ENDBRANCH  18  19
BRANCH  18  24
HETATM   24  C           1      -3.240   1.673   1.023  0.00  0.00     0.196 C 
HETATM   25  O           1      -3.385   2.539   1.913  0.00  0.00    -0.646 OA
HETATM   26  O           1      -4.140   1.491   0.175  0.00  0.00    -0.646 OA
ENDBRANCH  18  24
ENDBRANCH   1  18
TORSDOF 9
