REMARK  8 active torsions:
REMARK  status: ('A' for Active; 'I' for Inactive)
REMARK       I    between atoms: N_2  and  C_5 
REMARK    1  A    between atoms: C_5  and  C_12 
REMARK    2  A    between atoms: C_9  and  C_12 
REMARK    3  A    between atoms: C_9  and  C_10 
REMARK    4  A    between atoms: C_9  and  N_13 
REMARK       I    between atoms: N_13  and  C_14 
REMARK    5  A    between atoms: C_14  and  C_15 
REMARK    6  A    between atoms: C_15  and  C_16 
REMARK    7  A    between atoms: C_15  and  N_19 
REMARK    8  A    between atoms: C_16  and  C_17 
ROOT
HETATM    1  H           1      -1.606   1.833  -0.767  0.00  0.00     0.163 HD
HETATM    2  N           1      -1.203   1.205  -0.083  0.00  0.00    -0.344 N 
HETATM    3  C           1      -0.029   0.557  -0.358  0.00  0.00     0.249 C 
HETATM    4  O           1       0.453  -0.193   0.457  0.00  0.00    -0.271 OA
ENDROOT
BRANCH   3   5
HETATM    5  C           1       0.665   0.780  -1.680  0.00  0.00     0.280 C 
BRANCH   5   6
HETATM    6  C           1       1.940  -0.051  -1.732  0.00  0.00     0.101 C 
BRANCH   6   7
HETATM    7  C           1       1.597  -1.501  -1.588  0.00  0.00     0.028 A 
HETATM    8  C           1       2.514  -2.525  -1.592  0.00  0.00     0.114 A 
HETATM    9  N           1       1.774  -3.664  -1.435  0.00  0.00    -0.360 N 
HETATM   10  C           1       0.463  -3.292  -1.344  0.00  0.00     0.180 A 
HETATM   11  H           1       2.146  -4.645  -1.393  0.00  0.00     0.166 HD
HETATM   12  N           1       0.325  -1.990  -1.433  0.00  0.00    -0.355 N 
ATOM     13  HN          1      -0.543  -1.456  -1.395  1.00  0.00     0.166 HD
ENDBRANCH   6   7
ENDBRANCH   5   6
BRANCH   5  14
HETATM   14  N           1       1.010   2.233  -1.824  0.00  0.00    -0.066 N 
HETATM   15  H           1       1.490   2.389  -2.739  0.00  0.00     0.275 HD
HETATM   16  H           1       0.135   2.803  -1.789  0.00  0.00     0.275 HD
HETATM   17  H           1       1.645   2.519  -1.044  0.00  0.00     0.275 HD
ENDBRANCH   5  14
ENDBRANCH   3   5
BRANCH   2  18
HETATM   18  C           1      -1.869   0.990   1.187  0.00  0.00     0.194 C 
BRANCH  18  19
HETATM   19  C           1      -0.945   1.408   2.322  0.00  0.00     0.138 C 
BRANCH  19  20
HETATM   20  C           1      -0.680   0.223   3.219  0.00  0.00     0.217 C 
HETATM   21  N           1      -1.250  -0.989   2.936  0.00  0.00    -0.370 N 
HETATM   22  H           1      -1.849  -1.090   2.127  0.00  0.00     0.159 HD
HETATM   23  H           1      -1.073  -1.784   3.537  0.00  0.00     0.159 HD
HETATM   24  O           1       0.034   0.344   4.185  0.00  0.00    -0.274 OA
ENDBRANCH  19  20
ENDBRANCH  18  19
BRANCH  18  25
HETATM   25  C           1      -3.132   1.815   1.237  0.00  0.00     0.197 C 
HETATM   26  O           1      -3.277   2.681   2.127  0.00  0.00    -0.646 OA
HETATM   27  O           1      -4.032   1.633   0.389  0.00  0.00    -0.646 OA
ENDBRANCH  18  25
ENDBRANCH   2  18
TORSDOF 8
