REMARK  9 active torsions:
REMARK  status: ('A' for Active; 'I' for Inactive)
REMARK    1  A    between atoms: N_4  and  C_7 
REMARK    2  A    between atoms: N_6  and  C_13 
REMARK       I    between atoms: N_6  and  C_9 
REMARK    3  A    between atoms: C_7  and  C_9 
REMARK    4  A    between atoms: C_7  and  C_8 
REMARK    5  A    between atoms: C_8  and  C_14 
REMARK    6  A    between atoms: C_11  and  C_13 
REMARK    7  A    between atoms: C_13  and  C_20 
REMARK    8  A    between atoms: C_20  and  C_29 
REMARK    9  A    between atoms: O_23  and  C_26 
ROOT
HETATM    1  N           1       0.203  -0.648  -0.142  0.00  0.00    -0.344 N 
HETATM    2  C           1      -1.078  -0.183  -0.008  0.00  0.00     0.249 C 
HETATM    3  H           1       0.827  -0.647   0.654  0.00  0.00     0.163 HD
HETATM    4  O           1      -1.824  -0.185  -0.958  0.00  0.00    -0.271 OA
ENDROOT
BRANCH   1   5
HETATM    5  C           1       0.664  -1.143  -1.424  0.00  0.00     0.189 C 
BRANCH   5   6
HETATM    6  C           1      -0.194  -2.309  -1.851  0.00  0.00     0.197 C 
HETATM    7  O           1       0.325  -3.430  -2.043  0.00  0.00    -0.646 OA
HETATM    8  O           1      -1.424  -2.154  -2.012  0.00  0.00    -0.646 OA
ENDBRANCH   5   6
BRANCH   5   9
HETATM    9  C           1       2.113  -1.596  -1.301  0.00  0.00     0.074 C 
BRANCH   9  10
HETATM   10  C           1       3.023  -0.448  -1.606  0.00  0.00    -0.056 A 
HETATM   11  C           1       4.406  -0.622  -1.557  0.00  0.00     0.010 A 
HETATM   12  C           1       5.255   0.448  -1.841  0.00  0.00     0.037 A 
HETATM   13  C           1       4.720   1.692  -2.174  0.00  0.00     0.065 A 
HETATM   14  C           1       3.337   1.867  -2.222  0.00  0.00     0.037 A 
HETATM   15  C           1       2.489   0.797  -1.938  0.00  0.00     0.010 A 
BRANCH  13  16
HETATM   16  O           1       5.544   2.732  -2.449  0.00  0.00    -0.361 OA
HETATM   17  H           1       4.993   3.505  -2.656  0.00  0.00     0.217 HD
ENDBRANCH  13  16
ENDBRANCH   9  10
ENDBRANCH   5   9
ENDBRANCH   1   5
BRANCH   2  18
HETATM   18  C           1      -1.558   0.332   1.327  0.00  0.00     0.280 C 
BRANCH  18  19
HETATM   19  N           1      -0.706   1.491   1.751  0.00  0.00    -0.066 N 
HETATM   20  H           1      -1.038   1.848   2.675  0.00  0.00     0.275 HD
HETATM   21  H           1       0.288   1.179   1.834  0.00  0.00     0.275 HD
HETATM   22  H           1      -0.774   2.252   1.038  0.00  0.00     0.275 HD
ENDBRANCH  18  19
BRANCH  18  23
HETATM   23  C           1      -3.007   0.785   1.205  0.00  0.00     0.101 C 
BRANCH  23  24
HETATM   24  C           1      -3.860  -0.009   2.145  0.00  0.00     0.028 A 
HETATM   25  N           1      -3.393  -0.990   2.981  0.00  0.00    -0.355 N 
HETATM   26  C           1      -4.449  -1.428   3.626  0.00  0.00     0.180 A 
ATOM     27  HN          1      -2.430  -1.311   3.081  1.00  0.00     0.166 HD
HETATM   28  N           1      -5.581  -0.768   3.239  0.00  0.00    -0.360 N 
HETATM   29  C           1      -5.218   0.147   2.289  0.00  0.00     0.114 A 
HETATM   30  H           1      -6.551  -0.932   3.604  0.00  0.00     0.166 HD
ENDBRANCH  23  24
ENDBRANCH  18  23
ENDBRANCH   2  18
TORSDOF 9
