REMARK  5 active torsions:
REMARK  status: ('A' for Active; 'I' for Inactive)
REMARK    1  A    between atoms: N_1  and  C_7 
REMARK    2  A    between atoms: C_6  and  C_7 
REMARK    3  A    between atoms: C_6  and  C_21 
REMARK    4  A    between atoms: C_7  and  C_10 
REMARK       I    between atoms: C_10  and  N_11 
REMARK    5  A    between atoms: C_13  and  C_14 
ROOT
HETATM    1  C           1       0.835   0.391  -0.434  0.00  0.00     0.280 C 
ENDROOT
BRANCH   1   2
HETATM    2  N           1       0.920  -0.068  -1.860  0.00  0.00    -0.066 N 
HETATM    3  H           1       1.920  -0.238  -2.112  0.00  0.00     0.275 HD
HETATM    4  H           1       0.378  -0.954  -1.972  0.00  0.00     0.275 HD
HETATM    5  H           1       0.523   0.667  -2.487  0.00  0.00     0.275 HD
ENDBRANCH   1   2
BRANCH   1   6
HETATM    6  C           1       1.627   1.682  -0.269  0.00  0.00     0.101 C 
BRANCH   6   7
HETATM    7  C           1       2.714   1.476   0.738  0.00  0.00     0.028 A 
HETATM    8  C           1       3.615   2.440   1.124  0.00  0.00     0.114 A 
HETATM    9  N           1       4.416   1.827   2.048  0.00  0.00    -0.360 N 
HETATM   10  C           1       3.977   0.541   2.182  0.00  0.00     0.180 A 
HETATM   11  H           1       5.220   2.266   2.560  0.00  0.00     0.166 HD
HETATM   12  N           1       2.949   0.299   1.402  0.00  0.00    -0.355 N 
ATOM     13  HN          1       2.435  -0.577   1.310  1.00  0.00     0.166 HD
ENDBRANCH   6   7
ENDBRANCH   1   6
BRANCH   1  14
HETATM   14  C           1      -0.609   0.636  -0.071  0.00  0.00     0.251 C 
HETATM   15  O           1      -0.965   1.735   0.283  0.00  0.00    -0.271 OA
HETATM   16  N           1      -1.516  -0.387  -0.144  0.00  0.00    -0.336 N 
HETATM   17  C           1      -1.268  -1.768  -0.548  0.00  0.00     0.127 C 
HETATM   18  C           1      -2.942  -0.334   0.167  0.00  0.00     0.188 C 
HETATM   19  C           1      -2.481  -2.122  -1.392  0.00  0.00     0.022 C 
HETATM   20  C           1      -3.581  -1.176  -0.925  0.00  0.00     0.038 C 
BRANCH  18  21
HETATM   21  C           1      -3.217  -0.923   1.529  0.00  0.00     0.196 C 
HETATM   22  O           1      -4.387  -0.964   1.967  0.00  0.00    -0.646 OA
HETATM   23  O           1      -2.275  -1.369   2.219  0.00  0.00    -0.646 OA
ENDBRANCH  18  21
ENDBRANCH   1  14
TORSDOF 5
