REMARK  11 active torsions:
REMARK  status: ('A' for Active; 'I' for Inactive)
REMARK    1  A    between atoms: C_1  and  C_2 
REMARK    2  A    between atoms: C_2  and  C_3 
REMARK    3  A    between atoms: C_3  and  C_27 
REMARK    4  A    between atoms: C_3  and  N_4 
REMARK       I    between atoms: N_4  and  C_22 
REMARK    5  A    between atoms: O_8  and  P_9 
REMARK    6  A    between atoms: P_9  and  O_10 
REMARK    7  A    between atoms: O_10  and  C_23 
REMARK    8  A    between atoms: N_14  and  C_30 
REMARK    9  A    between atoms: C_22  and  C_30 
REMARK   10  A    between atoms: C_30  and  C_31 
REMARK   11  A    between atoms: C_31  and  C_32 
ROOT
HETATM    1  C           1       2.324   0.669  -2.102  0.00  0.00     0.189 C 
ENDROOT
BRANCH   1   2
HETATM    2  C           1       0.875   1.123  -2.225  0.00  0.00     0.074 C 
BRANCH   2   3
HETATM    3  C           1      -0.035  -0.026  -1.920  0.00  0.00    -0.056 A 
HETATM    4  C           1       0.499  -1.270  -1.587  0.00  0.00     0.010 A 
HETATM    5  C           1      -0.349  -2.341  -1.304  0.00  0.00     0.038 A 
HETATM    6  C           1      -1.732  -2.166  -1.352  0.00  0.00     0.081 A 
HETATM    7  C           1      -2.267  -0.922  -1.685  0.00  0.00     0.038 A 
HETATM    8  C           1      -1.418   0.149  -1.969  0.00  0.00     0.010 A 
BRANCH   6   9
HETATM    9  O           1      -2.556  -3.206  -1.077  0.00  0.00    -0.247 OA
BRANCH   9  10
HETATM   10  P           1      -4.149  -2.950  -1.147  0.00  0.00     0.411 P 
HETATM   11  O           1      -4.865  -4.202  -0.815  0.00  0.00    -0.624 OA
HETATM   12  O           1      -4.524  -1.896  -0.178  0.00  0.00    -0.624 OA
BRANCH  10  13
HETATM   13  O           1      -4.552  -2.477  -2.638  0.00  0.00    -0.300 OA
HETATM   14  H           1      -5.485  -2.347  -2.609  0.00  0.00     0.223 HD
ENDBRANCH  10  13
ENDBRANCH   9  10
ENDBRANCH   6   9
ENDBRANCH   2   3
ENDBRANCH   1   2
BRANCH   1  15
HETATM   15  C           1       3.184   1.469  -3.050  0.00  0.00     0.197 C 
HETATM   16  O           1       4.414   1.255  -3.109  0.00  0.00    -0.646 OA
HETATM   17  O           1       2.666   2.345  -3.776  0.00  0.00    -0.646 OA
ENDBRANCH   1  15
BRANCH   1  18
HETATM   18  N           1       2.781   0.879  -0.742  0.00  0.00    -0.344 N 
HETATM   19  C           1       2.149   0.251   0.297  0.00  0.00     0.249 C 
HETATM   20  O           1       2.521  -0.839   0.662  0.00  0.00    -0.271 OA
HETATM   21  H           1       3.568   1.489  -0.561  0.00  0.00     0.163 HD
BRANCH  19  22
HETATM   22  C           1       0.986   0.921   0.988  0.00  0.00     0.280 C 
BRANCH  22  23
HETATM   23  N           1      -0.110   1.168  -0.007  0.00  0.00    -0.066 N 
HETATM   24  H           1       0.246   1.788  -0.769  0.00  0.00     0.275 HD
HETATM   25  H           1      -0.915   1.632   0.471  0.00  0.00     0.275 HD
HETATM   26  H           1      -0.423   0.258  -0.414  0.00  0.00     0.275 HD
ENDBRANCH  22  23
BRANCH  22  27
HETATM   27  C           1       0.467   0.018   2.099  0.00  0.00     0.101 C 
BRANCH  27  28
HETATM   28  C           1       0.576   0.730   3.412  0.00  0.00     0.028 A 
HETATM   29  N           1       1.070   1.998   3.572  0.00  0.00    -0.355 N 
HETATM   30  C           1       0.992   2.241   4.860  0.00  0.00     0.180 A 
ATOM     31  HN          1       1.423   2.621   2.845  1.00  0.00     0.166 HD
HETATM   32  N           1       0.466   1.178   5.538  0.00  0.00    -0.360 N 
HETATM   33  H           1       0.302   1.121   6.574  0.00  0.00     0.166 HD
HETATM   34  C           1       0.195   0.200   4.622  0.00  0.00     0.114 A 
ENDBRANCH  27  28
ENDBRANCH  22  27
ENDBRANCH  19  22
ENDBRANCH   1  18
TORSDOF 11
