REMARK  8 active torsions:
REMARK  status: ('A' for Active; 'I' for Inactive)
REMARK    1  A    between atoms: C_4  and  S_11 
REMARK    2  A    between atoms: C_4  and  C_5 
REMARK    3  A    between atoms: C_5  and  C_13 
REMARK    4  A    between atoms: C_5  and  N_23 
REMARK    5  A    between atoms: N_8  and  C_22 
REMARK    6  A    between atoms: C_12  and  C_14 
REMARK    7  A    between atoms: C_14  and  C_22 
REMARK    8  A    between atoms: C_22  and  C_24 
REMARK       I    between atoms: N_23  and  C_24 
ROOT
HETATM    1  C           1       0.524   0.654  -1.411  0.00  0.00     0.280 C 
ENDROOT
BRANCH   1   2
HETATM    2  N           1       0.869   2.107  -1.555  0.00  0.00    -0.066 N 
HETATM    3  H           1       1.349   2.262  -2.470  0.00  0.00     0.275 HD
HETATM    4  H           1      -0.006   2.677  -1.520  0.00  0.00     0.275 HD
HETATM    5  H           1       1.504   2.393  -0.775  0.00  0.00     0.275 HD
ENDBRANCH   1   2
BRANCH   1   6
HETATM    6  C           1       1.799  -0.177  -1.463  0.00  0.00     0.101 C 
BRANCH   6   7
HETATM    7  C           1       1.456  -1.627  -1.318  0.00  0.00     0.028 A 
HETATM    8  N           1       0.184  -2.116  -1.164  0.00  0.00    -0.355 N 
HETATM    9  C           1       0.322  -3.419  -1.075  0.00  0.00     0.180 A 
ATOM     10  HN          1      -0.684  -1.582  -1.127  1.00  0.00     0.166 HD
HETATM   11  N           1       1.633  -3.790  -1.166  0.00  0.00    -0.360 N 
HETATM   12  C           1       2.373  -2.651  -1.323  0.00  0.00     0.114 A 
HETATM   13  H           1       2.005  -4.772  -1.124  0.00  0.00     0.166 HD
ENDBRANCH   6   7
ENDBRANCH   1   6
BRANCH   1  14
HETATM   14  C           1      -0.169   0.431  -0.089  0.00  0.00     0.249 C 
HETATM   15  O           1       0.312  -0.319   0.726  0.00  0.00    -0.271 OA
HETATM   16  N           1      -1.344   1.079   0.186  0.00  0.00    -0.344 N 
HETATM   17  H           1      -1.747   1.707  -0.498  0.00  0.00     0.163 HD
BRANCH  16  18
HETATM   18  C           1      -2.010   0.864   1.456  0.00  0.00     0.194 C 
BRANCH  18  19
HETATM   19  C           1      -1.085   1.282   2.592  0.00  0.00     0.106 C 
BRANCH  19  20
HETATM   20  S           1      -0.767  -0.143   3.669  0.00  0.00    -0.180 SA
HETATM   21  H           1       0.036   0.508   4.530  0.00  0.00     0.101 HD
ENDBRANCH  19  20
ENDBRANCH  18  19
BRANCH  18  22
HETATM   22  C           1      -3.272   1.689   1.506  0.00  0.00     0.197 C 
HETATM   23  O           1      -4.173   1.507   0.658  0.00  0.00    -0.646 OA
HETATM   24  O           1      -3.418   2.555   2.396  0.00  0.00    -0.646 OA
ENDBRANCH  18  22
ENDBRANCH  16  18
ENDBRANCH   1  14
TORSDOF 8
