REMARK  8 active torsions:
REMARK  status: ('A' for Active; 'I' for Inactive)
REMARK    1  A    between atoms: C_2  and  C_3 
REMARK    2  A    between atoms: C_3  and  C_6 
REMARK    3  A    between atoms: C_3  and  N_23 
REMARK    4  A    between atoms: C_6  and  C_20 
REMARK       I    between atoms: C_7  and  N_23 
REMARK    5  A    between atoms: C_7  and  C_10 
REMARK    6  A    between atoms: C_8  and  C_9 
REMARK    7  A    between atoms: C_9  and  C_10 
REMARK    8  A    between atoms: C_10  and  N_22 
ROOT
HETATM    1  C           1       0.571   0.687  -1.505  0.00  0.00     0.280 C 
ENDROOT
BRANCH   1   2
HETATM    2  C           1      -0.122   0.464  -0.183  0.00  0.00     0.249 C 
HETATM    3  N           1      -1.297   1.111   0.092  0.00  0.00    -0.344 N 
HETATM    4  H           1      -1.700   1.740  -0.591  0.00  0.00     0.163 HD
HETATM    5  O           1       0.359  -0.286   0.632  0.00  0.00    -0.271 OA
BRANCH   3   6
HETATM    6  C           1      -1.963   0.897   1.362  0.00  0.00     0.195 C 
BRANCH   6   7
HETATM    7  C           1      -3.225   1.722   1.412  0.00  0.00     0.197 C 
HETATM    8  O           1      -4.125   1.540   0.564  0.00  0.00    -0.646 OA
HETATM    9  O           1      -3.371   2.588   2.302  0.00  0.00    -0.646 OA
ENDBRANCH   6   7
BRANCH   6  10
HETATM   10  C           1      -1.038   1.315   2.498  0.00  0.00     0.149 C 
BRANCH  10  11
HETATM   11  C           1      -0.774   0.130   3.394  0.00  0.00     0.175 C 
HETATM   12  O           1      -1.294  -0.977   3.136  0.00  0.00    -0.648 OA
HETATM   13  O           1      -0.034   0.255   4.394  0.00  0.00    -0.648 OA
ENDBRANCH  10  11
ENDBRANCH   6  10
ENDBRANCH   3   6
ENDBRANCH   1   2
BRANCH   1  14
HETATM   14  C           1       1.846  -0.144  -1.557  0.00  0.00     0.101 C 
BRANCH  14  15
HETATM   15  C           1       1.503  -1.594  -1.412  0.00  0.00     0.028 A 
HETATM   16  C           1       2.420  -2.618  -1.417  0.00  0.00     0.114 A 
HETATM   17  N           1       1.680  -3.757  -1.260  0.00  0.00    -0.360 N 
HETATM   18  C           1       0.369  -3.386  -1.169  0.00  0.00     0.180 A 
HETATM   19  H           1       2.052  -4.739  -1.218  0.00  0.00     0.166 HD
HETATM   20  N           1       0.232  -2.083  -1.258  0.00  0.00    -0.355 N 
ATOM     21  HN          1      -0.636  -1.548  -1.220  1.00  0.00     0.166 HD
ENDBRANCH  14  15
ENDBRANCH   1  14
BRANCH   1  22
HETATM   22  N           1       0.916   2.140  -1.649  0.00  0.00    -0.066 N 
HETATM   23  H           1       0.041   2.710  -1.613  0.00  0.00     0.275 HD
HETATM   24  H           1       1.551   2.426  -0.869  0.00  0.00     0.275 HD
HETATM   25  H           1       1.396   2.295  -2.564  0.00  0.00     0.275 HD
ENDBRANCH   1  22
TORSDOF 8
