REMARK  8 active torsions:
REMARK  status: ('A' for Active; 'I' for Inactive)
REMARK    1  A    between atoms: C_2  and  C_26 
REMARK    2  A    between atoms: C_2  and  C_3 
REMARK    3  A    between atoms: C_2  and  N_14 
REMARK    4  A    between atoms: C_3  and  C_24 
REMARK       I    between atoms: N_14  and  C_22 
REMARK    5  A    between atoms: C_21  and  C_22 
REMARK    6  A    between atoms: C_21  and  C_27 
REMARK    7  A    between atoms: C_21  and  N_23 
REMARK    8  A    between atoms: C_27  and  C_28 
ROOT
HETATM    1  N           1      -2.452  -0.500   1.363  0.00  0.00    -0.344 N 
HETATM    2  O           1      -1.512  -2.352   0.542  0.00  0.00    -0.271 OA
HETATM    3  C           1      -1.720  -1.168   0.419  0.00  0.00     0.249 C 
HETATM    4  H           1      -3.457  -0.428   1.266  0.00  0.00     0.163 HD
ENDROOT
BRANCH   1   5
HETATM    5  C           1      -1.788   0.105   2.501  0.00  0.00     0.190 C 
BRANCH   5   6
HETATM    6  C           1      -2.814   0.774   3.383  0.00  0.00     0.197 C 
HETATM    7  O           1      -3.734   0.100   3.894  0.00  0.00    -0.646 OA
HETATM    8  O           1      -2.742   2.003   3.604  0.00  0.00    -0.646 OA
ENDBRANCH   5   6
BRANCH   5   9
HETATM    9  C           1      -0.786   1.142   2.011  0.00  0.00     0.077 C 
BRANCH   9  10
HETATM   10  C           1       0.544   0.488   1.796  0.00  0.00    -0.028 A 
HETATM   11  C           1       0.837  -0.841   2.002  0.00  0.00     0.096 A 
HETATM   12  N           1       2.158  -1.031   1.690  0.00  0.00    -0.365 N 
HETATM   13  C           1       2.727   0.155   1.284  0.00  0.00     0.042 A 
HETATM   14  H           1       2.663  -1.949   1.752  0.00  0.00     0.165 HD
HETATM   15  C           1       4.035   0.437   0.874  0.00  0.00     0.030 A 
HETATM   16  C           1       1.730   1.129   1.342  0.00  0.00    -0.002 A 
HETATM   17  C           1       4.330   1.755   0.512  0.00  0.00     0.002 A 
HETATM   18  C           1       3.354   2.749   0.560  0.00  0.00     0.001 A 
HETATM   19  C           1       2.050   2.450   0.973  0.00  0.00     0.014 A 
ENDBRANCH   9  10
ENDBRANCH   5   9
ENDBRANCH   1   5
BRANCH   3  20
HETATM   20  C           1      -1.172  -0.426  -0.776  0.00  0.00     0.280 C 
BRANCH  20  21
HETATM   21  C           1      -0.402  -1.393  -1.665  0.00  0.00     0.101 C 
BRANCH  21  22
HETATM   22  C           1      -1.027  -1.428  -3.025  0.00  0.00     0.028 A 
HETATM   23  N           1      -2.125  -0.696  -3.396  0.00  0.00    -0.355 N 
HETATM   24  C           1      -2.345  -1.013  -4.651  0.00  0.00     0.180 A 
ATOM     25  HN          1      -2.658  -0.044  -2.820  1.00  0.00     0.166 HD
HETATM   26  N           1      -1.432  -1.923  -5.104  0.00  0.00    -0.360 N 
HETATM   27  H           1      -1.392  -2.335  -6.069  0.00  0.00     0.166 HD
HETATM   28  C           1      -0.580  -2.198  -4.071  0.00  0.00     0.114 A 
ENDBRANCH  21  22
ENDBRANCH  20  21
BRANCH  20  29
HETATM   29  N           1      -0.253   0.663  -0.308  0.00  0.00    -0.066 N 
HETATM   30  H           1       0.127   1.178  -1.135  0.00  0.00     0.275 HD
HETATM   31  H           1      -0.782   1.327   0.301  0.00  0.00     0.275 HD
HETATM   32  H           1       0.536   0.244   0.234  0.00  0.00     0.275 HD
ENDBRANCH  20  29
ENDBRANCH   3  20
TORSDOF 8
