REMARK  10 active torsions:
REMARK  status: ('A' for Active; 'I' for Inactive)
REMARK    1  A    between atoms: C_5  and  C_6 
REMARK    2  A    between atoms: C_5  and  C_24 
REMARK    3  A    between atoms: C_6  and  C_7 
REMARK    4  A    between atoms: C_7  and  N_8 
REMARK    5  A    between atoms: C_9  and  C_26 
REMARK    6  A    between atoms: C_9  and  C_17 
REMARK    7  A    between atoms: N_14  and  C_26 
REMARK    8  A    between atoms: C_19  and  C_24 
REMARK    9  A    between atoms: C_24  and  N_28 
REMARK       I    between atoms: C_25  and  N_28 
REMARK   10  A    between atoms: C_25  and  C_26 
ROOT
HETATM    1  O           1       0.306  -0.265  -0.271  0.00  0.00    -0.271 OA
HETATM    2  H           1      -1.754   1.761  -1.495  0.00  0.00     0.163 HD
HETATM    3  C           1      -0.176   0.485  -1.086  0.00  0.00     0.249 C 
HETATM    4  N           1      -1.350   1.133  -0.812  0.00  0.00    -0.345 N 
ENDROOT
BRANCH   3   5
HETATM    5  C           1       0.517   0.708  -2.408  0.00  0.00     0.280 C 
BRANCH   5   6
HETATM    6  C           1       1.792  -0.123  -2.460  0.00  0.00     0.101 C 
BRANCH   6   7
HETATM    7  C           1       1.450  -1.573  -2.316  0.00  0.00     0.028 A 
HETATM    8  N           1       0.178  -2.062  -2.161  0.00  0.00    -0.355 N 
HETATM    9  C           1       0.316  -3.365  -2.072  0.00  0.00     0.180 A 
ATOM     10  HN          1      -0.690  -1.528  -2.123  1.00  0.00     0.166 HD
HETATM   11  N           1       1.627  -3.736  -2.164  0.00  0.00    -0.360 N 
HETATM   12  C           1       2.367  -2.597  -2.320  0.00  0.00     0.114 A 
HETATM   13  H           1       1.998  -4.717  -2.121  0.00  0.00     0.166 HD
ENDBRANCH   6   7
ENDBRANCH   5   6
BRANCH   5  14
HETATM   14  N           1       0.862   2.161  -2.552  0.00  0.00    -0.066 N 
HETATM   15  H           1       1.342   2.316  -3.467  0.00  0.00     0.275 HD
HETATM   16  H           1      -0.013   2.731  -2.517  0.00  0.00     0.275 HD
HETATM   17  H           1       1.497   2.447  -1.773  0.00  0.00     0.275 HD
ENDBRANCH   5  14
ENDBRANCH   3   5
BRANCH   4  18
HETATM   18  C           1      -2.016   0.918   0.458  0.00  0.00     0.185 C 
BRANCH  18  19
HETATM   19  C           1      -1.092   1.336   1.594  0.00  0.00     0.038 C 
BRANCH  19  20
HETATM   20  C           1      -0.825   0.140   2.499  0.00  0.00     0.030 C 
BRANCH  20  21
HETATM   21  C           1       0.099   0.558   3.635  0.00  0.00     0.230 C 
BRANCH  21  22
HETATM   22  N           1       0.362  -0.620   4.525  0.00  0.00    -0.079 N 
HETATM   23  H           1       0.997  -0.333   5.305  0.00  0.00     0.274 HD
HETATM   24  H           1      -0.541  -0.965   4.921  0.00  0.00     0.274 HD
HETATM   25  H           1       0.814  -1.382   3.971  0.00  0.00     0.274 HD
ENDBRANCH  21  22
ENDBRANCH  20  21
ENDBRANCH  19  20
ENDBRANCH  18  19
BRANCH  18  26
HETATM   26  C           1      -3.279   1.743   0.509  0.00  0.00     0.196 C 
HETATM   27  O           1      -4.179   1.561  -0.339  0.00  0.00    -0.646 OA
HETATM   28  O           1      -3.425   2.609   1.399  0.00  0.00    -0.646 OA
ENDBRANCH  18  26
ENDBRANCH   4  18
TORSDOF 10
