REMARK  8 active torsions:
REMARK  status: ('A' for Active; 'I' for Inactive)
REMARK    1  A    between atoms: C_1  and  C_8 
REMARK    2  A    between atoms: C_5  and  C_6 
REMARK    3  A    between atoms: C_5  and  C_8 
REMARK    4  A    between atoms: C_5  and  N_25 
REMARK       I    between atoms: C_6  and  N_21 
REMARK    5  A    between atoms: C_11  and  C_12 
REMARK    6  A    between atoms: C_12  and  C_13 
REMARK    7  A    between atoms: C_12  and  N_21 
REMARK    8  A    between atoms: C_13  and  C_17 
ROOT
HETATM    1  C           1       0.777   0.829  -2.090  0.00  0.00     0.261 C 
ENDROOT
BRANCH   1   2
HETATM    2  C           1       0.084   0.606  -0.768  0.00  0.00     0.130 C 
HETATM    3  N           1      -1.090   1.254  -0.494  0.00  0.00    -0.359 N 
HETATM    4  H           1      -1.494   1.882  -1.177  0.00  0.00     0.162 HD
HETATM    5  O           1       0.566  -0.144   0.047  0.00  0.00    -0.397 OA
BRANCH   3   6
HETATM    6  C           1      -1.756   1.039   0.776  0.00  0.00     0.184 C 
BRANCH   6   7
HETATM    7  C           1      -3.019   1.864   0.827  0.00  0.00     0.196 C 
HETATM    8  O           1      -3.165   2.730   1.717  0.00  0.00    -0.646 OA
HETATM    9  O           1      -3.919   1.682  -0.021  0.00  0.00    -0.646 OA
ENDBRANCH   6   7
BRANCH   6  10
HETATM   10  C           1      -0.832   1.457   1.912  0.00  0.00     0.040 C 
BRANCH  10  11
HETATM   11  C           1      -0.565   0.261   2.817  0.00  0.00    -0.018 C 
HETATM   12  C           1       0.094  -0.849   2.009  0.00  0.00     0.289 C 
HETATM   13  C           1      -1.882  -0.243   3.392  0.00  0.00     0.009 C 
ENDBRANCH  10  11
ENDBRANCH   6  10
ENDBRANCH   3   6
ENDBRANCH   1   2
BRANCH   1  14
HETATM   14  C           1       2.052  -0.002  -2.142  0.00  0.00     0.099 C 
BRANCH  14  15
HETATM   15  C           1       1.710  -1.452  -1.998  0.00  0.00     0.028 A 
HETATM   16  C           1       2.627  -2.476  -2.002  0.00  0.00     0.114 A 
HETATM   17  N           1       1.887  -3.615  -1.846  0.00  0.00    -0.360 N 
HETATM   18  C           1       0.576  -3.243  -1.754  0.00  0.00     0.180 A 
HETATM   19  H           1       2.259  -4.596  -1.803  0.00  0.00     0.166 HD
HETATM   20  N           1       0.438  -1.941  -1.843  0.00  0.00    -0.355 N 
ATOM     21  HN          1      -0.430  -1.407  -1.805  1.00  0.00     0.166 HD
ENDBRANCH  14  15
ENDBRANCH   1  14
BRANCH   1  22
HETATM   22  N           1       1.122   2.282  -2.234  0.00  0.00    -0.067 N 
HETATM   23  H           1       0.248   2.853  -2.199  0.00  0.00     0.275 HD
HETATM   24  H           1       1.603   2.438  -3.149  0.00  0.00     0.275 HD
HETATM   25  H           1       1.757   2.568  -1.455  0.00  0.00     0.275 HD
ENDBRANCH   1  22
TORSDOF 8
