REMARK  8 active torsions:
REMARK  status: ('A' for Active; 'I' for Inactive)
REMARK    1  A    between atoms: C_1  and  C_19 
REMARK    2  A    between atoms: N_2  and  C_19 
REMARK       I    between atoms: N_2  and  C_13 
REMARK    3  A    between atoms: N_3  and  C_24 
REMARK    4  A    between atoms: C_9  and  C_20 
REMARK    5  A    between atoms: C_12  and  C_24 
REMARK    6  A    between atoms: C_12  and  C_28 
REMARK    7  A    between atoms: C_13  and  C_24 
REMARK    8  A    between atoms: C_19  and  C_20 
ROOT
HETATM    1  N           1       2.188   0.527  -0.925  0.00  0.00    -0.344 N 
HETATM    2  O           1       1.928  -1.190   0.478  0.00  0.00    -0.271 OA
HETATM    3  C           1       1.555  -0.101   0.114  0.00  0.00     0.249 C 
HETATM    4  H           1       2.975   1.137  -0.744  0.00  0.00     0.163 HD
ENDROOT
BRANCH   3   5
HETATM    5  C           1       0.393   0.569   0.804  0.00  0.00     0.280 C 
BRANCH   5   6
HETATM    6  N           1      -0.703   0.817  -0.190  0.00  0.00    -0.066 N 
HETATM    7  H           1      -1.509   1.280   0.287  0.00  0.00     0.275 HD
HETATM    8  H           1      -0.347   1.436  -0.952  0.00  0.00     0.275 HD
HETATM    9  H           1      -1.016  -0.093  -0.597  0.00  0.00     0.275 HD
ENDBRANCH   5   6
BRANCH   5  10
HETATM   10  C           1      -0.127  -0.333   1.916  0.00  0.00     0.101 C 
BRANCH  10  11
HETATM   11  C           1      -0.017   0.378   3.229  0.00  0.00     0.028 A 
HETATM   12  N           1       0.476   1.647   3.389  0.00  0.00    -0.355 N 
HETATM   13  C           1       0.398   1.889   4.677  0.00  0.00     0.180 A 
ATOM     14  HN          1       0.828   2.270   2.662  1.00  0.00     0.166 HD
HETATM   15  N           1      -0.127   0.826   5.355  0.00  0.00    -0.360 N 
HETATM   16  H           1      -0.292   0.770   6.391  0.00  0.00     0.166 HD
HETATM   17  C           1      -0.399  -0.152   4.439  0.00  0.00     0.114 A 
ENDBRANCH  10  11
ENDBRANCH   5  10
ENDBRANCH   3   5
BRANCH   1  18
HETATM   18  C           1       1.731   0.318  -2.285  0.00  0.00     0.189 C 
BRANCH  18  19
HETATM   19  C           1       2.591   1.117  -3.233  0.00  0.00     0.197 C 
HETATM   20  O           1       3.821   0.903  -3.292  0.00  0.00    -0.646 OA
HETATM   21  O           1       2.073   1.993  -3.959  0.00  0.00    -0.646 OA
ENDBRANCH  18  19
BRANCH  18  22
HETATM   22  C           1       0.282   0.771  -2.408  0.00  0.00     0.074 C 
BRANCH  22  23
HETATM   23  C           1      -0.628  -0.378  -2.103  0.00  0.00    -0.056 A 
HETATM   24  C           1      -2.011  -0.203  -2.152  0.00  0.00     0.007 A 
HETATM   25  C           1      -2.860  -1.273  -1.868  0.00  0.00     0.001 A 
HETATM   26  C           1      -2.325  -2.518  -1.536  0.00  0.00     0.000 A 
HETATM   27  C           1      -0.942  -2.692  -1.487  0.00  0.00     0.001 A 
HETATM   28  C           1      -0.094  -1.622  -1.771  0.00  0.00     0.007 A 
ENDBRANCH  22  23
ENDBRANCH  18  22
ENDBRANCH   1  18
TORSDOF 8
