REMARK  6 active torsions:
REMARK  status: ('A' for Active; 'I' for Inactive)
REMARK    1  A    between atoms: C_8  and  C_21 
REMARK    2  A    between atoms: C_10  and  C_17 
REMARK    3  A    between atoms: C_10  and  C_20 
REMARK    4  A    between atoms: C_10  and  N_18 
REMARK    5  A    between atoms: N_11  and  C_21 
REMARK       I    between atoms: N_11  and  C_17 
REMARK    6  A    between atoms: C_19  and  C_20 
ROOT
HETATM    1  C           1       0.443   0.811  -0.898  0.00  0.00     0.280 C 
ENDROOT
BRANCH   1   2
HETATM    2  C           1      -0.250   0.587   0.424  0.00  0.00     0.249 C 
HETATM    3  N           1      -1.424   1.235   0.699  0.00  0.00    -0.349 N 
HETATM    4  H           1      -1.828   1.863   0.016  0.00  0.00     0.163 HD
HETATM    5  O           1       0.232  -0.162   1.240  0.00  0.00    -0.271 OA
BRANCH   3   6
HETATM    6  C           1      -2.090   1.021   1.969  0.00  0.00     0.235 C 
BRANCH   6   7
HETATM    7  C           1      -3.354   1.844   2.020  0.00  0.00     0.191 C 
HETATM    8  O           1      -4.083   1.807   3.035  0.00  0.00    -0.647 OA
HETATM    9  O           1      -3.670   2.565   1.049  0.00  0.00    -0.647 OA
ENDBRANCH   6   7
ENDBRANCH   3   6
ENDBRANCH   1   2
BRANCH   1  10
HETATM   10  C           1       1.718  -0.021  -0.950  0.00  0.00     0.101 C 
BRANCH  10  11
HETATM   11  C           1       1.376  -1.471  -0.805  0.00  0.00     0.028 A 
HETATM   12  C           1       2.293  -2.495  -0.810  0.00  0.00     0.114 A 
HETATM   13  N           1       1.553  -3.634  -0.653  0.00  0.00    -0.360 N 
HETATM   14  C           1       0.242  -3.262  -0.562  0.00  0.00     0.180 A 
HETATM   15  H           1       1.924  -4.615  -0.611  0.00  0.00     0.166 HD
HETATM   16  N           1       0.104  -1.959  -0.651  0.00  0.00    -0.355 N 
ATOM     17  HN          1      -0.764  -1.424  -0.614  1.00  0.00     0.166 HD
ENDBRANCH  10  11
ENDBRANCH   1  10
BRANCH   1  18
HETATM   18  N           1       0.788   2.263  -1.042  0.00  0.00    -0.066 N 
HETATM   19  H           1      -0.086   2.834  -1.006  0.00  0.00     0.275 HD
HETATM   20  H           1       1.423   2.549  -0.262  0.00  0.00     0.275 HD
HETATM   21  H           1       1.269   2.419  -1.957  0.00  0.00     0.275 HD
ENDBRANCH   1  18
TORSDOF 6
