REMARK  9 active torsions:
REMARK  status: ('A' for Active; 'I' for Inactive)
REMARK    1  A    between atoms: N_3  and  C_11 
REMARK       I    between atoms: N_3  and  C_23 
REMARK    2  A    between atoms: C_6  and  C_18 
REMARK    3  A    between atoms: C_6  and  C_26 
REMARK    4  A    between atoms: C_11  and  C_12 
REMARK    5  A    between atoms: C_11  and  C_15 
REMARK    6  A    between atoms: C_12  and  C_13 
REMARK    7  A    between atoms: C_13  and  C_22 
REMARK       I    between atoms: N_17  and  C_22 
REMARK    8  A    between atoms: C_18  and  C_23 
REMARK    9  A    between atoms: C_18  and  N_19 
ROOT
HETATM    1  N           1      -1.352   0.937  -0.526  0.00  0.00    -0.345 N 
HETATM    2  H           1      -1.755   1.565  -1.210  0.00  0.00     0.163 HD
HETATM    3  C           1      -0.178   0.290  -0.801  0.00  0.00     0.249 C 
HETATM    4  O           1       0.304  -0.460   0.014  0.00  0.00    -0.271 OA
ENDROOT
BRANCH   3   5
HETATM    5  C           1       0.516   0.513  -2.123  0.00  0.00     0.280 C 
BRANCH   5   6
HETATM    6  C           1       1.791  -0.319  -2.175  0.00  0.00     0.101 C 
BRANCH   6   7
HETATM    7  C           1       1.448  -1.769  -2.031  0.00  0.00     0.028 A 
HETATM    8  N           1       0.176  -2.257  -1.876  0.00  0.00    -0.355 N 
HETATM    9  C           1       0.314  -3.560  -1.787  0.00  0.00     0.180 A 
ATOM     10  HN          1      -0.692  -1.722  -1.838  1.00  0.00     0.166 HD
HETATM   11  N           1       1.625  -3.932  -1.878  0.00  0.00    -0.360 N 
HETATM   12  H           1       1.997  -4.913  -1.836  0.00  0.00     0.166 HD
HETATM   13  C           1       2.365  -2.793  -2.035  0.00  0.00     0.114 A 
ENDBRANCH   6   7
ENDBRANCH   5   6
BRANCH   5  14
HETATM   14  N           1       0.861   1.965  -2.267  0.00  0.00    -0.066 N 
HETATM   15  H           1       1.495   2.251  -1.487  0.00  0.00     0.275 HD
HETATM   16  H           1      -0.014   2.536  -2.232  0.00  0.00     0.275 HD
HETATM   17  H           1       1.341   2.121  -3.182  0.00  0.00     0.275 HD
ENDBRANCH   5  14
ENDBRANCH   3   5
BRANCH   1  18
HETATM   18  C           1      -2.018   0.723   0.744  0.00  0.00     0.186 C 
BRANCH  18  19
HETATM   19  C           1      -1.094   1.141   1.879  0.00  0.00     0.045 C 
BRANCH  19  20
HETATM   20  C           1      -0.827  -0.055   2.784  0.00  0.00     0.105 C 
BRANCH  20  21
HETATM   21  C           1       0.089   0.359   3.909  0.00  0.00     0.215 C 
HETATM   22  O           1       0.426  -0.449   4.743  0.00  0.00    -0.274 OA
HETATM   23  N           1       0.539   1.649   3.986  0.00  0.00    -0.370 N 
HETATM   24  H           1       0.258   2.326   3.288  0.00  0.00     0.159 HD
HETATM   25  H           1       1.154   1.927   4.741  0.00  0.00     0.159 HD
ENDBRANCH  20  21
ENDBRANCH  19  20
ENDBRANCH  18  19
BRANCH  18  26
HETATM   26  C           1      -3.281   1.548   0.794  0.00  0.00     0.196 C 
HETATM   27  O           1      -4.181   1.365  -0.054  0.00  0.00    -0.646 OA
HETATM   28  O           1      -3.426   2.413   1.684  0.00  0.00    -0.646 OA
ENDBRANCH  18  26
ENDBRANCH   1  18
TORSDOF 9
