REMARK  6 active torsions:
REMARK  status: ('A' for Active; 'I' for Inactive)
REMARK    1  A    between atoms: N_2  and  C_13 
REMARK       I    between atoms: C_8  and  N_15 
REMARK    2  A    between atoms: C_8  and  C_13 
REMARK    3  A    between atoms: C_10  and  C_11 
REMARK    4  A    between atoms: C_11  and  C_13 
REMARK    5  A    between atoms: N_15  and  C_21 
REMARK    6  A    between atoms: C_20  and  C_21 
ROOT
HETATM    1  C           1       0.529   0.653  -1.246  0.00  0.00     0.280 C 
ENDROOT
BRANCH   1   2
HETATM    2  N           1       0.874   2.105  -1.390  0.00  0.00    -0.066 N 
HETATM    3  H           1       1.509   2.391  -0.610  0.00  0.00     0.275 HD
HETATM    4  H           1       1.354   2.261  -2.305  0.00  0.00     0.275 HD
HETATM    5  H           1      -0.001   2.676  -1.355  0.00  0.00     0.275 HD
ENDBRANCH   1   2
BRANCH   1   6
HETATM    6  C           1      -0.164   0.430   0.076  0.00  0.00     0.249 C 
HETATM    7  N           1      -1.339   1.077   0.351  0.00  0.00    -0.345 N 
HETATM    8  H           1      -1.742   1.705  -0.333  0.00  0.00     0.163 HD
HETATM    9  O           1       0.317  -0.320   0.891  0.00  0.00    -0.271 OA
BRANCH   7  10
HETATM   10  C           1      -2.005   0.863   1.621  0.00  0.00     0.181 C 
HETATM   11  C           1      -1.080   1.281   2.756  0.00  0.00     0.043 C 
BRANCH  10  12
HETATM   12  C           1      -3.267   1.688   1.671  0.00  0.00     0.196 C 
HETATM   13  O           1      -3.413   2.553   2.561  0.00  0.00    -0.646 OA
HETATM   14  O           1      -4.167   1.505   0.823  0.00  0.00    -0.646 OA
ENDBRANCH  10  12
ENDBRANCH   7  10
ENDBRANCH   1   6
BRANCH   1  15
HETATM   15  C           1       1.804  -0.179  -1.298  0.00  0.00     0.101 C 
BRANCH  15  16
HETATM   16  C           1       1.461  -1.629  -1.154  0.00  0.00     0.028 A 
HETATM   17  N           1       0.190  -2.117  -0.999  0.00  0.00    -0.355 N 
HETATM   18  C           1       0.327  -3.420  -0.910  0.00  0.00     0.180 A 
ATOM     19  HN          1      -0.678  -1.582  -0.961  1.00  0.00     0.166 HD
HETATM   20  N           1       1.638  -3.792  -1.001  0.00  0.00    -0.360 N 
HETATM   21  C           1       2.378  -2.653  -1.158  0.00  0.00     0.114 A 
HETATM   22  H           1       2.010  -4.773  -0.959  0.00  0.00     0.166 HD
ENDBRANCH  15  16
ENDBRANCH   1  15
TORSDOF 6
