REMARK  8 active torsions:
REMARK  status: ('A' for Active; 'I' for Inactive)
REMARK    1  A    between atoms: C_2  and  C_12 
REMARK    2  A    between atoms: C_2  and  C_3 
REMARK    3  A    between atoms: N_7  and  C_12 
REMARK    4  A    between atoms: C_10  and  C_24 
REMARK    5  A    between atoms: C_12  and  C_20 
REMARK    6  A    between atoms: C_15  and  C_24 
REMARK    7  A    between atoms: C_15  and  C_16 
REMARK    8  A    between atoms: C_15  and  N_19 
REMARK       I    between atoms: N_19  and  C_20 
ROOT
HETATM    1  C           1       0.645   0.488  -2.130  0.00  0.00     0.280 C 
ENDROOT
BRANCH   1   2
HETATM    2  C           1       1.920  -0.343  -2.182  0.00  0.00     0.101 C 
BRANCH   2   3
HETATM    3  C           1       1.577  -1.793  -2.038  0.00  0.00     0.028 A 
HETATM    4  C           1       2.494  -2.817  -2.042  0.00  0.00     0.114 A 
HETATM    5  N           1       1.754  -3.956  -1.885  0.00  0.00    -0.360 N 
HETATM    6  H           1       2.126  -4.938  -1.843  0.00  0.00     0.166 HD
HETATM    7  C           1       0.443  -3.585  -1.794  0.00  0.00     0.180 A 
HETATM    8  N           1       0.305  -2.282  -1.883  0.00  0.00    -0.355 N 
ATOM      9  HN          1      -0.563  -1.748  -1.845  1.00  0.00     0.166 HD
ENDBRANCH   2   3
ENDBRANCH   1   2
BRANCH   1  10
HETATM   10  N           1       0.990   1.941  -2.274  0.00  0.00    -0.066 N 
HETATM   11  H           1       1.625   2.227  -1.495  0.00  0.00     0.275 HD
HETATM   12  H           1       1.470   2.096  -3.189  0.00  0.00     0.275 HD
HETATM   13  H           1       0.115   2.511  -2.239  0.00  0.00     0.275 HD
ENDBRANCH   1  10
BRANCH   1  14
HETATM   14  C           1      -0.048   0.265  -0.808  0.00  0.00     0.249 C 
HETATM   15  O           1       0.433  -0.485   0.007  0.00  0.00    -0.271 OA
HETATM   16  N           1      -1.223   0.913  -0.533  0.00  0.00    -0.344 N 
HETATM   17  H           1      -1.626   1.541  -1.217  0.00  0.00     0.163 HD
BRANCH  16  18
HETATM   18  C           1      -1.889   0.698   0.737  0.00  0.00     0.189 C 
BRANCH  18  19
HETATM   19  C           1      -0.964   1.116   1.872  0.00  0.00     0.014 C 
HETATM   20  C           1      -1.624   2.226   2.681  0.00  0.00     0.012 C 
BRANCH  19  21
HETATM   21  C           1      -0.698  -0.080   2.777  0.00  0.00     0.002 C 
HETATM   22  C           1       0.797  -0.374   2.804  0.00  0.00     0.005 C 
ENDBRANCH  19  21
ENDBRANCH  18  19
BRANCH  18  23
HETATM   23  C           1      -3.151   1.523   0.787  0.00  0.00     0.197 C 
HETATM   24  O           1      -4.132   1.125   1.453  0.00  0.00    -0.646 OA
HETATM   25  O           1      -3.217   2.605   0.163  0.00  0.00    -0.646 OA
ENDBRANCH  18  23
ENDBRANCH  16  18
ENDBRANCH   1  14
TORSDOF 8
