REMARK  9 active torsions:
REMARK  status: ('A' for Active; 'I' for Inactive)
REMARK       I    between atoms: C_4  and  N_5 
REMARK    1  A    between atoms: C_4  and  C_10 
REMARK    2  A    between atoms: N_5  and  C_18 
REMARK    3  A    between atoms: C_9  and  C_18 
REMARK    4  A    between atoms: C_10  and  C_20 
REMARK    5  A    between atoms: C_10  and  N_14 
REMARK    6  A    between atoms: C_11  and  S_12 
REMARK    7  A    between atoms: C_11  and  C_17 
REMARK    8  A    between atoms: C_17  and  C_18 
REMARK    9  A    between atoms: C_20  and  C_21 
ROOT
HETATM    1  C           1       0.537   0.812  -2.224  0.00  0.00     0.280 C 
ENDROOT
BRANCH   1   2
HETATM    2  C           1      -0.157   0.589  -0.903  0.00  0.00     0.249 C 
HETATM    3  N           1      -1.331   1.237  -0.628  0.00  0.00    -0.345 N 
HETATM    4  H           1      -1.734   1.865  -1.311  0.00  0.00     0.163 HD
HETATM    5  O           1       0.325  -0.161  -0.087  0.00  0.00    -0.271 OA
BRANCH   3   6
HETATM    6  C           1      -1.997   1.022   0.642  0.00  0.00     0.186 C 
BRANCH   6   7
HETATM    7  C           1      -3.260   1.847   0.693  0.00  0.00     0.196 C 
HETATM    8  O           1      -3.405   2.713   1.583  0.00  0.00    -0.646 OA
HETATM    9  O           1      -4.160   1.665  -0.155  0.00  0.00    -0.646 OA
ENDBRANCH   6   7
BRANCH   6  10
HETATM   10  C           1      -1.073   1.440   1.778  0.00  0.00     0.046 C 
BRANCH  10  11
HETATM   11  C           1      -0.806   0.244   2.683  0.00  0.00     0.076 C 
BRANCH  11  12
HETATM   12  S           1       0.296   0.742   4.036  0.00  0.00    -0.173 SA
HETATM   13  C           1       0.364  -0.881   4.845  0.00  0.00     0.089 C 
ENDBRANCH  11  12
ENDBRANCH  10  11
ENDBRANCH   6  10
ENDBRANCH   3   6
ENDBRANCH   1   2
BRANCH   1  14
HETATM   14  C           1       1.812  -0.019  -2.276  0.00  0.00     0.101 C 
BRANCH  14  15
HETATM   15  C           1       1.469  -1.469  -2.132  0.00  0.00     0.028 A 
HETATM   16  C           1       2.386  -2.493  -2.136  0.00  0.00     0.114 A 
HETATM   17  N           1       1.646  -3.632  -1.980  0.00  0.00    -0.360 N 
HETATM   18  C           1       0.335  -3.260  -1.889  0.00  0.00     0.180 A 
HETATM   19  H           1       2.018  -4.613  -1.937  0.00  0.00     0.166 HD
HETATM   20  N           1       0.197  -1.958  -1.977  0.00  0.00    -0.355 N 
ATOM     21  HN          1      -0.671  -1.424  -1.938  1.00  0.00     0.166 HD
ENDBRANCH  14  15
ENDBRANCH   1  14
BRANCH   1  22
HETATM   22  N           1       0.882   2.265  -2.368  0.00  0.00    -0.066 N 
HETATM   23  H           1       1.362   2.421  -3.283  0.00  0.00     0.275 HD
HETATM   24  H           1       0.007   2.835  -2.333  0.00  0.00     0.275 HD
HETATM   25  H           1       1.516   2.551  -1.589  0.00  0.00     0.275 HD
ENDBRANCH   1  22
TORSDOF 9
