REMARK  7 active torsions:
REMARK  status: ('A' for Active; 'I' for Inactive)
REMARK    1  A    between atoms: N_1  and  C_11 
REMARK    2  A    between atoms: N_4  and  C_19 
REMARK       I    between atoms: N_4  and  C_5 
REMARK    3  A    between atoms: C_5  and  C_11 
REMARK    4  A    between atoms: C_11  and  C_21 
REMARK    5  A    between atoms: C_14  and  C_21 
REMARK    6  A    between atoms: C_15  and  C_19 
REMARK    7  A    between atoms: C_18  and  C_19 
ROOT
HETATM    1  C           1       0.753   0.449  -1.896  0.00  0.00     0.280 C 
ENDROOT
BRANCH   1   2
HETATM    2  N           1       1.098   1.901  -2.039  0.00  0.00    -0.066 N 
HETATM    3  H           1       1.578   2.057  -2.955  0.00  0.00     0.275 HD
HETATM    4  H           1       0.223   2.472  -2.004  0.00  0.00     0.275 HD
HETATM    5  H           1       1.733   2.187  -1.260  0.00  0.00     0.275 HD
ENDBRANCH   1   2
BRANCH   1   6
HETATM    6  C           1       0.060   0.226  -0.574  0.00  0.00     0.249 C 
HETATM    7  O           1       0.541  -0.524   0.242  0.00  0.00    -0.271 OA
HETATM    8  N           1      -1.115   0.873  -0.299  0.00  0.00    -0.344 N 
HETATM    9  H           1      -1.518   1.501  -0.982  0.00  0.00     0.163 HD
BRANCH   8  10
HETATM   10  C           1      -1.781   0.659   0.971  0.00  0.00     0.189 C 
BRANCH  10  11
HETATM   11  C           1      -0.857   1.077   2.107  0.00  0.00     0.010 C 
HETATM   12  C           1      -0.590  -0.119   3.011  0.00  0.00     0.012 C 
HETATM   13  C           1      -1.516   2.186   2.915  0.00  0.00     0.012 C 
ENDBRANCH  10  11
BRANCH  10  14
HETATM   14  C           1      -3.044   1.484   1.021  0.00  0.00     0.197 C 
HETATM   15  O           1      -3.109   2.565   0.398  0.00  0.00    -0.646 OA
HETATM   16  O           1      -4.024   1.086   1.687  0.00  0.00    -0.646 OA
ENDBRANCH  10  14
ENDBRANCH   8  10
ENDBRANCH   1   6
BRANCH   1  17
HETATM   17  C           1       2.028  -0.383  -1.948  0.00  0.00     0.101 C 
BRANCH  17  18
HETATM   18  C           1       1.685  -1.833  -1.803  0.00  0.00     0.028 A 
HETATM   19  C           1       2.602  -2.857  -1.808  0.00  0.00     0.114 A 
HETATM   20  N           1       1.862  -3.996  -1.651  0.00  0.00    -0.360 N 
HETATM   21  H           1       2.234  -4.977  -1.609  0.00  0.00     0.166 HD
HETATM   22  C           1       0.551  -3.624  -1.560  0.00  0.00     0.180 A 
HETATM   23  N           1       0.413  -2.321  -1.649  0.00  0.00    -0.355 N 
ATOM     24  HN          1      -0.455  -1.786  -1.612  1.00  0.00     0.166 HD
ENDBRANCH  17  18
ENDBRANCH   1  17
TORSDOF 7
