REMARK  8 active torsions:
REMARK  status: ('A' for Active; 'I' for Inactive)
REMARK    1  A    between atoms: C_1  and  C_2 
REMARK    2  A    between atoms: C_1  and  C_20 
REMARK    3  A    between atoms: C_1  and  N_17 
REMARK    4  A    between atoms: C_2  and  Se_3 
REMARK       I    between atoms: N_17  and  C_21 
REMARK    5  A    between atoms: C_18  and  C_23 
REMARK    6  A    between atoms: C_18  and  C_19 
REMARK    7  A    between atoms: C_21  and  C_23 
REMARK    8  A    between atoms: N_22  and  C_23 
ROOT
HETATM    1  C           1       0.520   0.658  -1.418  0.00  0.00     0.280 C 
ENDROOT
BRANCH   1   2
HETATM    2  C           1       1.795  -0.174  -1.470  0.00  0.00     0.101 C 
BRANCH   2   3
HETATM    3  C           1       1.452  -1.624  -1.326  0.00  0.00     0.028 A 
HETATM    4  N           1       0.181  -2.112  -1.171  0.00  0.00    -0.355 N 
HETATM    5  C           1       0.318  -3.415  -1.082  0.00  0.00     0.180 A 
ATOM      6  HN          1      -0.687  -1.577  -1.133  1.00  0.00     0.166 HD
HETATM    7  N           1       1.629  -3.787  -1.173  0.00  0.00    -0.360 N 
HETATM    8  H           1       2.001  -4.768  -1.131  0.00  0.00     0.166 HD
HETATM    9  C           1       2.369  -2.647  -1.330  0.00  0.00     0.114 A 
ENDBRANCH   2   3
ENDBRANCH   1   2
BRANCH   1  10
HETATM   10  C           1      -0.173   0.435  -0.096  0.00  0.00     0.249 C 
HETATM   11  O           1       0.308  -0.315   0.719  0.00  0.00    -0.271 OA
HETATM   12  N           1      -1.348   1.082   0.179  0.00  0.00    -0.345 N 
HETATM   13  H           1      -1.751   1.711  -0.505  0.00  0.00     0.163 HD
BRANCH  12  14
HETATM   14  C           1      -2.014   0.868   1.449  0.00  0.00     0.185 C 
BRANCH  14  15
HETATM   15  C           1      -1.089   1.286   2.584  0.00  0.00     0.039 C 
BRANCH  15  16
HETATM   16 Se           1      -0.748  -0.245   3.742  0.00  0.00     0.000 Se
HETATM   17  H           1       0.126   0.500   4.663  0.00  0.00     0.000 HD
ENDBRANCH  15  16
ENDBRANCH  14  15
BRANCH  14  18
HETATM   18  C           1      -3.276   1.693   1.499  0.00  0.00     0.196 C 
HETATM   19  O           1      -4.176   1.511   0.651  0.00  0.00    -0.646 OA
HETATM   20  O           1      -3.422   2.559   2.389  0.00  0.00    -0.646 OA
ENDBRANCH  14  18
ENDBRANCH  12  14
ENDBRANCH   1  10
BRANCH   1  21
HETATM   21  N           1       0.865   2.111  -1.562  0.00  0.00    -0.066 N 
HETATM   22  H           1       1.500   2.396  -0.782  0.00  0.00     0.275 HD
HETATM   23  H           1      -0.010   2.681  -1.527  0.00  0.00     0.275 HD
HETATM   24  H           1       1.345   2.266  -2.477  0.00  0.00     0.275 HD
ENDBRANCH   1  21
TORSDOF 8
