REMARK  10 active torsions:
REMARK  status: ('A' for Active; 'I' for Inactive)
REMARK    1  A    between atoms: C_1  and  C_2 
REMARK    2  A    between atoms: C_2  and  C_5 
REMARK    3  A    between atoms: C_2  and  N_22 
REMARK    4  A    between atoms: C_5  and  C_6 
REMARK    5  A    between atoms: C_6  and  C_30 
REMARK       I    between atoms: N_7  and  C_8 
REMARK       I    between atoms: C_8  and  N_9 
REMARK    6  A    between atoms: N_15  and  C_20 
REMARK    7  A    between atoms: C_18  and  C_19 
REMARK    8  A    between atoms: C_19  and  C_20 
REMARK    9  A    between atoms: C_20  and  C_21 
REMARK       I    between atoms: C_21  and  N_22 
REMARK   10  A    between atoms: N_25  and  C_30 
ROOT
HETATM    1  H           1      -2.012   0.263  -1.633  0.00  0.00     0.163 HD
HETATM    2  C           1      -0.435  -1.013  -1.224  0.00  0.00     0.249 C 
HETATM    3  N           1      -1.609  -0.366  -0.949  0.00  0.00    -0.345 N 
HETATM    4  O           1       0.047  -1.763  -0.409  0.00  0.00    -0.271 OA
ENDROOT
BRANCH   3   5
HETATM    5  C           1      -2.275  -0.580   0.321  0.00  0.00     0.185 C 
BRANCH   5   6
HETATM    6  C           1      -3.538   0.245   0.371  0.00  0.00     0.196 C 
HETATM    7  O           1      -4.438   0.063  -0.477  0.00  0.00    -0.646 OA
HETATM    8  O           1      -3.683   1.111   1.261  0.00  0.00    -0.646 OA
ENDBRANCH   5   6
BRANCH   5   9
HETATM    9  C           1      -1.351  -0.162   1.457  0.00  0.00     0.038 C 
BRANCH   9  10
HETATM   10  C           1      -1.000   1.313   1.310  0.00  0.00     0.023 C 
BRANCH  10  11
HETATM   11  C           1      -0.076   1.731   2.446  0.00  0.00     0.138 C 
BRANCH  11  12
HETATM   12  N           1       0.262   3.154   2.305  0.00  0.00    -0.227 N 
HETATM   13  C           1       1.025   3.711   3.149  0.00  0.00     0.665 C 
HETATM   14  N           1       1.496   3.041   4.115  0.00  0.00    -0.235 N 
HETATM   15  N           1       1.324   4.970   3.025  0.00  0.00    -0.235 N 
HETATM   16  H           1       1.254   2.024   4.215  0.00  0.00     0.174 HD
HETATM   17  H           1       2.128   3.502   4.815  0.00  0.00     0.174 HD
HETATM   18  H           1       0.935   5.523   2.228  0.00  0.00     0.174 HD
HETATM   19  H           1       1.953   5.429   3.721  0.00  0.00     0.174 HD
HETATM   20  H           1      -0.128   3.710   1.505  0.00  0.00     0.177 HD
ENDBRANCH  11  12
ENDBRANCH  10  11
ENDBRANCH   9  10
ENDBRANCH   5   9
ENDBRANCH   3   5
BRANCH   2  21
HETATM   21  C           1       0.259  -0.790  -2.546  0.00  0.00     0.280 C 
BRANCH  21  22
HETATM   22  N           1       0.604   0.663  -2.690  0.00  0.00    -0.066 N 
HETATM   23  H           1       1.238   0.949  -1.910  0.00  0.00     0.275 HD
HETATM   24  H           1      -0.271   1.233  -2.655  0.00  0.00     0.275 HD
HETATM   25  H           1       1.084   0.818  -3.605  0.00  0.00     0.275 HD
ENDBRANCH  21  22
BRANCH  21  26
HETATM   26  C           1       1.534  -1.621  -2.598  0.00  0.00     0.101 C 
BRANCH  26  27
HETATM   27  C           1       1.191  -3.071  -2.453  0.00  0.00     0.028 A 
HETATM   28  N           1      -0.081  -3.560  -2.299  0.00  0.00    -0.355 N 
HETATM   29  C           1       0.057  -4.863  -2.210  0.00  0.00     0.180 A 
ATOM     30  HN          1      -0.949  -3.026  -2.262  1.00  0.00     0.166 HD
HETATM   31  N           1       1.368  -5.235  -2.301  0.00  0.00    -0.360 N 
HETATM   32  H           1       1.740  -6.216  -2.259  0.00  0.00     0.166 HD
HETATM   33  C           1       2.108  -4.095  -2.458  0.00  0.00     0.114 A 
ENDBRANCH  26  27
ENDBRANCH  21  26
ENDBRANCH   2  21
TORSDOF 10
