REMARK  8 active torsions:
REMARK  status: ('A' for Active; 'I' for Inactive)
REMARK    1  A    between atoms: N_1  and  C_16 
REMARK       I    between atoms: N_1  and  C_3 
REMARK    2  A    between atoms: C_3  and  C_18 
REMARK    3  A    between atoms: C_10  and  C_16 
REMARK    4  A    between atoms: C_13  and  C_15 
REMARK    5  A    between atoms: C_15  and  C_16 
REMARK    6  A    between atoms: C_17  and  C_19 
REMARK    7  A    between atoms: C_18  and  C_19 
REMARK    8  A    between atoms: C_18  and  N_20 
ROOT
HETATM    1  N           1       0.753  -1.301  -0.177  0.00  0.00    -0.344 N 
HETATM    2  C           1       0.070  -0.115  -0.177  0.00  0.00     0.249 C 
HETATM    3  O           1      -1.138  -0.114  -0.178  0.00  0.00    -0.271 OA
HETATM    4  H           1       1.765  -1.302  -0.177  0.00  0.00     0.163 HD
ENDROOT
BRANCH   2   5
HETATM    5  C           1       0.826   1.191  -0.176  0.00  0.00     0.278 C 
BRANCH   5   6
HETATM    6  C           1      -0.162   2.350  -0.176  0.00  0.00     0.021 C 
HETATM    7  C           1      -1.038   2.272  -1.420  0.00  0.00     0.012 C 
BRANCH   6   8
HETATM    8  C           1      -1.039   2.269   1.067  0.00  0.00     0.002 C 
HETATM    9  C           1      -0.860   3.533   1.898  0.00  0.00     0.005 C 
ENDBRANCH   6   8
ENDBRANCH   5   6
BRANCH   5  10
HETATM   10  N           1       1.688   1.270  -1.401  0.00  0.00    -0.066 N 
HETATM   11  H           1       2.366   0.475  -1.401  0.00  0.00     0.275 HD
HETATM   12  H           1       2.212   2.174  -1.401  0.00  0.00     0.275 HD
HETATM   13  H           1       1.087   1.215  -2.254  0.00  0.00     0.275 HD
ENDBRANCH   5  10
ENDBRANCH   2   5
BRANCH   1  14
HETATM   14  C           1       0.027  -2.556  -0.178  0.00  0.00     0.195 C 
BRANCH  14  15
HETATM   15  C           1      -0.841  -2.635   1.054  0.00  0.00     0.197 C 
HETATM   16  O           1      -1.726  -1.775   1.251  0.00  0.00    -0.646 OA
HETATM   17  O           1      -0.675  -3.561   1.877  0.00  0.00    -0.646 OA
ENDBRANCH  14  15
BRANCH  14  18
HETATM   18  C           1       1.016  -3.714  -0.178  0.00  0.00     0.149 C 
BRANCH  18  19
HETATM   19  C           1       0.262  -5.021  -0.178  0.00  0.00     0.175 C 
HETATM   20  O           1      -0.988  -5.021  -0.178  0.00  0.00    -0.648 OA
HETATM   21  O           1       0.887  -6.104  -0.178  0.00  0.00    -0.648 OA
ENDBRANCH  18  19
ENDBRANCH  14  18
ENDBRANCH   1  14
TORSDOF 8
