REMARK  8 active torsions:
REMARK  status: ('A' for Active; 'I' for Inactive)
REMARK    1  A    between atoms: C_2  and  C_3 
REMARK    2  A    between atoms: C_2  and  C_19 
REMARK    3  A    between atoms: C_2  and  N_16 
REMARK       I    between atoms: C_3  and  N_8 
REMARK    4  A    between atoms: S_4  and  C_5 
REMARK    5  A    between atoms: C_5  and  C_13 
REMARK    6  A    between atoms: N_8  and  C_13 
REMARK    7  A    between atoms: C_9  and  C_13 
REMARK    8  A    between atoms: C_18  and  C_19 
ROOT
HETATM    1  C           1      -0.208  -0.161  -0.182  0.00  0.00     0.249 C 
HETATM    2  H           1      -0.388  -2.222  -0.182  0.00  0.00     0.163 HD
HETATM    3  N           1      -0.893  -1.345  -0.183  0.00  0.00    -0.344 N 
HETATM    4  O           1      -0.810   0.886  -0.183  0.00  0.00    -0.271 OA
ENDROOT
BRANCH   1   5
HETATM    5  C           1       1.301  -0.162  -0.182  0.00  0.00     0.278 C 
BRANCH   5   6
HETATM    6  C           1       1.811   1.273  -0.182  0.00  0.00     0.021 C 
HETATM    7  C           1       1.306   1.992  -1.425  0.00  0.00     0.012 C 
BRANCH   6   8
HETATM    8  C           1       1.303   1.992   1.061  0.00  0.00     0.002 C 
HETATM    9  C           1       2.486   2.469   1.892  0.00  0.00     0.005 C 
ENDBRANCH   6   8
ENDBRANCH   5   6
BRANCH   5  10
HETATM   10  N           1       1.801  -0.869  -1.406  0.00  0.00    -0.066 N 
HETATM   11  H           1       2.846  -0.871  -1.407  0.00  0.00     0.275 HD
HETATM   12  H           1       1.453  -0.376  -2.259  0.00  0.00     0.275 HD
HETATM   13  H           1       1.451  -1.854  -1.406  0.00  0.00     0.275 HD
ENDBRANCH   5  10
ENDBRANCH   1   5
BRANCH   3  14
HETATM   14  C           1      -2.343  -1.344  -0.183  0.00  0.00     0.194 C 
BRANCH  14  15
HETATM   15  C           1      -2.852  -2.780  -0.183  0.00  0.00     0.106 C 
BRANCH  15  16
HETATM   16  S           1      -4.667  -2.780  -0.183  0.00  0.00    -0.180 SA
HETATM   17  H           1      -4.807  -4.117  -0.183  0.00  0.00     0.101 HD
ENDBRANCH  15  16
ENDBRANCH  14  15
BRANCH  14  18
HETATM   18  C           1      -2.846  -0.632   1.048  0.00  0.00     0.197 C 
HETATM   19  O           1      -2.543   0.565   1.246  0.00  0.00    -0.646 OA
HETATM   20  O           1      -3.565  -1.238   1.872  0.00  0.00    -0.646 OA
ENDBRANCH  14  18
ENDBRANCH   3  14
TORSDOF 8
