REMARK  5 active torsions:
REMARK  status: ('A' for Active; 'I' for Inactive)
REMARK    1  A    between atoms: C_2  and  C_16 
REMARK       I    between atoms: N_4  and  C_11 
REMARK    2  A    between atoms: C_5  and  C_9 
REMARK    3  A    between atoms: C_11  and  C_15 
REMARK    4  A    between atoms: N_14  and  C_15 
REMARK    5  A    between atoms: C_15  and  C_16 
ROOT
HETATM    1  N           1      -1.203  -0.730   0.044  0.00  0.00    -0.336 N 
HETATM    2  C           1      -2.629  -0.678   0.354  0.00  0.00     0.188 C 
HETATM    3  C           1      -3.268  -1.519  -0.737  0.00  0.00     0.038 C 
HETATM    4  C           1      -2.168  -2.465  -1.204  0.00  0.00     0.022 C 
HETATM    5  C           1      -0.296   0.293   0.117  0.00  0.00     0.251 C 
HETATM    6  C           1      -0.956  -2.111  -0.360  0.00  0.00     0.127 C 
HETATM    7  O           1      -0.652   1.392   0.471  0.00  0.00    -0.271 OA
ENDROOT
BRANCH   5   8
HETATM    8  C           1       1.148   0.048  -0.246  0.00  0.00     0.278 C 
BRANCH   8   9
HETATM    9  N           1       1.233  -0.412  -1.672  0.00  0.00    -0.066 N 
HETATM   10  H           1       2.233  -0.581  -1.924  0.00  0.00     0.275 HD
HETATM   11  H           1       0.690  -1.297  -1.785  0.00  0.00     0.275 HD
HETATM   12  H           1       0.836   0.324  -2.299  0.00  0.00     0.275 HD
ENDBRANCH   8   9
BRANCH   8  13
HETATM   13  C           1       1.939   1.339  -0.082  0.00  0.00     0.021 C 
HETATM   14  C           1       1.361   2.410  -0.997  0.00  0.00     0.012 C 
BRANCH  13  15
HETATM   15  C           1       1.851   1.806   1.365  0.00  0.00     0.002 C 
HETATM   16  C           1       3.250   1.870   1.965  0.00  0.00     0.005 C 
ENDBRANCH  13  15
ENDBRANCH   8  13
ENDBRANCH   5   8
BRANCH   2  17
HETATM   17  C           1      -2.905  -1.266   1.716  0.00  0.00     0.196 C 
HETATM   18  O           1      -1.963  -1.712   2.407  0.00  0.00    -0.646 OA
HETATM   19  O           1      -4.075  -1.307   2.154  0.00  0.00    -0.646 OA
ENDBRANCH   2  17
TORSDOF 5
