REMARK  9 active torsions:
REMARK  status: ('A' for Active; 'I' for Inactive)
REMARK    1  A    between atoms: N_1  and  C_17 
REMARK    2  A    between atoms: O_4  and  C_12 
REMARK    3  A    between atoms: C_8  and  C_13 
REMARK    4  A    between atoms: C_13  and  C_17 
REMARK    5  A    between atoms: N_15  and  C_21 
REMARK       I    between atoms: N_15  and  C_16 
REMARK    6  A    between atoms: C_16  and  C_17 
REMARK    7  A    between atoms: C_20  and  C_26 
REMARK    8  A    between atoms: C_20  and  C_21 
REMARK    9  A    between atoms: C_21  and  C_22 
ROOT
HETATM    1  O           1      -1.776  -0.366  -0.628  0.00  0.00    -0.271 OA
HETATM    2  H           1       0.875  -0.827   0.985  0.00  0.00     0.163 HD
HETATM    3  N           1       0.251  -0.829   0.189  0.00  0.00    -0.344 N 
HETATM    4  C           1      -1.030  -0.364   0.322  0.00  0.00     0.249 C 
ENDROOT
BRANCH   3   5
HETATM    5  C           1       0.712  -1.324  -1.094  0.00  0.00     0.189 C 
BRANCH   5   6
HETATM    6  C           1       2.161  -1.777  -0.971  0.00  0.00     0.074 C 
BRANCH   6   7
HETATM    7  C           1       3.071  -0.628  -1.275  0.00  0.00    -0.056 A 
HETATM    8  C           1       4.454  -0.803  -1.227  0.00  0.00     0.010 A 
HETATM    9  C           1       5.303   0.267  -1.511  0.00  0.00     0.037 A 
HETATM   10  C           1       4.768   1.512  -1.843  0.00  0.00     0.065 A 
HETATM   11  C           1       3.385   1.687  -1.892  0.00  0.00     0.037 A 
HETATM   12  C           1       2.536   0.616  -1.608  0.00  0.00     0.010 A 
BRANCH  10  13
HETATM   13  O           1       5.592   2.552  -2.119  0.00  0.00    -0.361 OA
HETATM   14  H           1       5.041   3.325  -2.326  0.00  0.00     0.217 HD
ENDBRANCH  10  13
ENDBRANCH   6   7
ENDBRANCH   5   6
BRANCH   5  15
HETATM   15  C           1      -0.146  -2.489  -1.521  0.00  0.00     0.197 C 
HETATM   16  O           1       0.373  -3.610  -1.713  0.00  0.00    -0.646 OA
HETATM   17  O           1      -1.376  -2.334  -1.682  0.00  0.00    -0.646 OA
ENDBRANCH   5  15
ENDBRANCH   3   5
BRANCH   4  18
HETATM   18  C           1      -1.510   0.151   1.657  0.00  0.00     0.278 C 
BRANCH  18  19
HETATM   19  N           1      -0.658   1.310   2.081  0.00  0.00    -0.066 N 
HETATM   20  H           1      -0.990   1.668   3.005  0.00  0.00     0.275 HD
HETATM   21  H           1       0.336   0.999   2.165  0.00  0.00     0.275 HD
HETATM   22  H           1      -0.726   2.072   1.368  0.00  0.00     0.275 HD
ENDBRANCH  18  19
BRANCH  18  23
HETATM   23  C           1      -2.959   0.605   1.536  0.00  0.00     0.021 C 
HETATM   24  C           1      -3.059   1.715   0.498  0.00  0.00     0.012 C 
BRANCH  23  25
HETATM   25  C           1      -3.824  -0.572   1.104  0.00  0.00     0.002 C 
HETATM   26  C           1      -4.886  -0.838   2.163  0.00  0.00     0.005 C 
ENDBRANCH  23  25
ENDBRANCH  18  23
ENDBRANCH   4  18
TORSDOF 9
