REMARK  8 active torsions:
REMARK  status: ('A' for Active; 'I' for Inactive)
REMARK    1  A    between atoms: C_1  and  C_3 
REMARK    2  A    between atoms: C_3  and  C_15 
REMARK    3  A    between atoms: N_5  and  C_19 
REMARK       I    between atoms: N_5  and  C_13 
REMARK    4  A    between atoms: C_6  and  O_14 
REMARK    5  A    between atoms: C_6  and  C_19 
REMARK    6  A    between atoms: N_8  and  C_15 
REMARK    7  A    between atoms: C_13  and  C_15 
REMARK    8  A    between atoms: C_19  and  C_20 
ROOT
HETATM    1  H           1      -0.409  -2.236  -0.182  0.00  0.00     0.163 HD
HETATM    2  N           1      -0.914  -1.359  -0.183  0.00  0.00    -0.343 N 
HETATM    3  O           1      -0.831   0.873  -0.183  0.00  0.00    -0.271 OA
HETATM    4  C           1      -0.229  -0.174  -0.182  0.00  0.00     0.249 C 
ENDROOT
BRANCH   4   5
HETATM    5  C           1       1.280  -0.175  -0.182  0.00  0.00     0.278 C 
BRANCH   5   6
HETATM    6  C           1       1.790   1.260  -0.182  0.00  0.00     0.021 C 
HETATM    7  C           1       1.285   1.979  -1.425  0.00  0.00     0.012 C 
BRANCH   6   8
HETATM    8  C           1       1.282   1.978   1.061  0.00  0.00     0.002 C 
HETATM    9  C           1       2.465   2.456   1.892  0.00  0.00     0.005 C 
ENDBRANCH   6   8
ENDBRANCH   5   6
BRANCH   5  10
HETATM   10  N           1       1.780  -0.883  -1.406  0.00  0.00    -0.066 N 
HETATM   11  H           1       2.825  -0.884  -1.407  0.00  0.00     0.275 HD
HETATM   12  H           1       1.430  -1.867  -1.406  0.00  0.00     0.275 HD
HETATM   13  H           1       1.432  -0.389  -2.259  0.00  0.00     0.275 HD
ENDBRANCH   5  10
ENDBRANCH   4   5
BRANCH   2  14
HETATM   14  C           1      -2.364  -1.357  -0.183  0.00  0.00     0.209 C 
BRANCH  14  15
HETATM   15  C           1      -2.873  -2.793  -0.183  0.00  0.00     0.200 C 
BRANCH  15  16
HETATM   16  O           1      -4.275  -2.793  -0.183  0.00  0.00    -0.398 OA
HETATM   17  H           1      -4.548  -3.694  -0.183  0.00  0.00     0.209 HD
ENDBRANCH  15  16
ENDBRANCH  14  15
BRANCH  14  18
HETATM   18  C           1      -2.867  -0.645   1.048  0.00  0.00     0.198 C 
HETATM   19  O           1      -2.564   0.552   1.246  0.00  0.00    -0.646 OA
HETATM   20  O           1      -3.585  -1.252   1.872  0.00  0.00    -0.646 OA
ENDBRANCH  14  18
ENDBRANCH   2  14
TORSDOF 8
