REMARK  9 active torsions:
REMARK  status: ('A' for Active; 'I' for Inactive)
REMARK    1  A    between atoms: C_1  and  C_15 
REMARK    2  A    between atoms: C_1  and  C_8 
REMARK    3  A    between atoms: C_3  and  C_4 
REMARK    4  A    between atoms: C_4  and  C_8 
REMARK    5  A    between atoms: C_4  and  N_10 
REMARK    6  A    between atoms: C_5  and  C_6 
REMARK    7  A    between atoms: C_5  and  C_18 
REMARK    8  A    between atoms: C_6  and  C_7 
REMARK    9  A    between atoms: C_6  and  N_20 
REMARK       I    between atoms: C_7  and  N_10 
ROOT
HETATM    1  C           1      -0.263   0.194   0.009  0.00  0.00     0.249 C 
HETATM    2  H           1       0.639   0.726  -1.777  0.00  0.00     0.163 HD
HETATM    3  N           1       0.633   0.057  -1.018  0.00  0.00    -0.345 N 
HETATM    4  O           1      -0.269  -0.605   0.915  0.00  0.00    -0.271 OA
ENDROOT
BRANCH   1   5
HETATM    5  C           1      -1.242   1.342   0.008  0.00  0.00     0.278 C 
BRANCH   5   6
HETATM    6  C           1      -2.118   1.264   1.251  0.00  0.00     0.021 C 
HETATM    7  C           1      -2.882  -0.053   1.251  0.00  0.00     0.012 C 
BRANCH   6   8
HETATM    8  C           1      -1.243   1.343   2.494  0.00  0.00     0.002 C 
HETATM    9  C           1      -1.646   2.555   3.323  0.00  0.00     0.005 C 
ENDBRANCH   6   8
ENDBRANCH   5   6
BRANCH   5  10
HETATM   10  N           1      -2.104   1.263  -1.217  0.00  0.00    -0.066 N 
HETATM   11  H           1      -2.627   0.358  -1.216  0.00  0.00     0.275 HD
HETATM   12  H           1      -1.502   1.317  -2.070  0.00  0.00     0.275 HD
HETATM   13  H           1      -2.782   2.058  -1.219  0.00  0.00     0.275 HD
ENDBRANCH   5  10
ENDBRANCH   1   5
BRANCH   3  14
HETATM   14  C           1       1.574  -1.046  -1.017  0.00  0.00     0.186 C 
BRANCH  14  15
HETATM   15  C           1       2.440  -0.967   0.216  0.00  0.00     0.196 C 
HETATM   16  O           1       1.919  -1.014   1.351  0.00  0.00    -0.646 OA
HETATM   17  O           1       3.680  -0.854   0.102  0.00  0.00    -0.646 OA
ENDBRANCH  14  15
BRANCH  14  18
HETATM   18  C           1       2.450  -0.967  -2.260  0.00  0.00     0.046 C 
BRANCH  18  19
HETATM   19  C           1       3.439  -2.125  -2.260  0.00  0.00     0.116 C 
BRANCH  19  20
HETATM   20  C           1       2.684  -3.432  -2.260  0.00  0.00     0.172 C 
HETATM   21  O           1       3.309  -4.514  -2.260  0.00  0.00    -0.648 OA
HETATM   22  O           1       1.434  -3.432  -2.260  0.00  0.00    -0.648 OA
ENDBRANCH  19  20
ENDBRANCH  18  19
ENDBRANCH  14  18
ENDBRANCH   3  14
TORSDOF 9
