REMARK  8 active torsions:
REMARK  status: ('A' for Active; 'I' for Inactive)
REMARK    1  A    between atoms: C_1  and  C_9 
REMARK    2  A    between atoms: C_1  and  C_18 
REMARK       I    between atoms: C_2  and  N_3 
REMARK    3  A    between atoms: C_2  and  C_9 
REMARK    4  A    between atoms: N_3  and  C_12 
REMARK    5  A    between atoms: C_7  and  C_12 
REMARK    6  A    between atoms: C_9  and  N_16 
REMARK    7  A    between atoms: C_10  and  C_20 
REMARK    8  A    between atoms: C_12  and  C_20 
ROOT
HETATM    1  C           1       0.362  -0.766   0.334  0.00  0.00     0.249 C 
HETATM    2  N           1      -0.425   0.347   0.457  0.00  0.00    -0.345 N 
HETATM    3  H           1      -0.670   0.694   1.376  0.00  0.00     0.163 HD
HETATM    4  O           1       0.654  -1.181  -0.762  0.00  0.00    -0.271 OA
ENDROOT
BRANCH   1   5
HETATM    5  C           1       0.864  -1.476   1.568  0.00  0.00     0.278 C 
BRANCH   5   6
HETATM    6  C           1       1.711  -2.673   1.157  0.00  0.00     0.021 C 
HETATM    7  C           1       0.866  -3.633   0.329  0.00  0.00     0.012 C 
BRANCH   6   8
HETATM    8  C           1       2.895  -2.196   0.327  0.00  0.00     0.002 C 
HETATM    9  C           1       4.193  -2.592   1.018  0.00  0.00     0.005 C 
ENDBRANCH   6   8
ENDBRANCH   5   6
BRANCH   5  10
HETATM   10  N           1      -0.303  -1.946   2.384  0.00  0.00    -0.066 N 
HETATM   11  H           1      -0.884  -1.124   2.666  0.00  0.00     0.275 HD
HETATM   12  H           1       0.044  -2.437   3.238  0.00  0.00     0.275 HD
HETATM   13  H           1      -0.883  -2.604   1.815  0.00  0.00     0.275 HD
ENDBRANCH   5  10
ENDBRANCH   1   5
BRANCH   2  14
HETATM   14  C           1      -0.908   1.028  -0.728  0.00  0.00     0.185 C 
BRANCH  14  15
HETATM   15  C           1       0.267   1.501  -1.549  0.00  0.00     0.196 C 
HETATM   16  O           1       1.093   0.674  -1.992  0.00  0.00    -0.646 OA
HETATM   17  O           1       0.414   2.719  -1.787  0.00  0.00    -0.646 OA
ENDBRANCH  14  15
BRANCH  14  18
HETATM   18  C           1      -1.754   2.226  -0.315  0.00  0.00     0.040 C 
BRANCH  18  19
HETATM   19  C           1      -2.261   2.943  -1.560  0.00  0.00    -0.020 C 
HETATM   20  C           1      -3.784   2.943  -1.560  0.00  0.00     0.009 C 
HETATM   21  C           1      -1.752   4.379  -1.560  0.00  0.00     0.009 C 
ENDBRANCH  18  19
ENDBRANCH  14  18
ENDBRANCH   2  14
TORSDOF 8
