REMARK  11 active torsions:
REMARK  status: ('A' for Active; 'I' for Inactive)
REMARK    1  A    between atoms: N_2  and  C_12 
REMARK       I    between atoms: N_2  and  C_3 
REMARK    2  A    between atoms: C_3  and  C_4 
REMARK    3  A    between atoms: C_4  and  C_9 
REMARK    4  A    between atoms: C_4  and  N_21 
REMARK    5  A    between atoms: O_7  and  P_23 
REMARK    6  A    between atoms: C_9  and  C_19 
REMARK    7  A    between atoms: C_12  and  C_26 
REMARK    8  A    between atoms: C_12  and  C_13 
REMARK    9  A    between atoms: C_13  and  C_14 
REMARK   10  A    between atoms: P_23  and  O_24 
REMARK   11  A    between atoms: O_24  and  C_25 
ROOT
HETATM    1  C           1       2.232   0.971  -1.962  0.00  0.00     0.189 C 
ENDROOT
BRANCH   1   2
HETATM    2  N           1       2.690   1.181  -0.602  0.00  0.00    -0.344 N 
HETATM    3  C           1       2.057   0.553   0.438  0.00  0.00     0.249 C 
HETATM    4  O           1       2.430  -0.537   0.802  0.00  0.00    -0.271 OA
HETATM    5  H           1       3.477   1.791  -0.421  0.00  0.00     0.163 HD
BRANCH   3   6
HETATM    6  C           1       0.894   1.222   1.128  0.00  0.00     0.278 C 
BRANCH   6   7
HETATM    7  C           1       0.375   0.320   2.240  0.00  0.00     0.021 C 
HETATM    8  C           1      -0.083  -1.006   1.646  0.00  0.00     0.012 C 
BRANCH   7   9
HETATM    9  C           1       1.488   0.067   3.248  0.00  0.00     0.002 C 
HETATM   10  C           1       1.057   0.575   4.618  0.00  0.00     0.005 C 
ENDBRANCH   7   9
ENDBRANCH   6   7
BRANCH   6  11
HETATM   11  N           1      -0.201   1.470   0.134  0.00  0.00    -0.066 N 
HETATM   12  H           1      -0.514   0.560  -0.274  0.00  0.00     0.275 HD
HETATM   13  H           1      -1.007   1.934   0.611  0.00  0.00     0.275 HD
HETATM   14  H           1       0.155   2.090  -0.629  0.00  0.00     0.275 HD
ENDBRANCH   6  11
ENDBRANCH   3   6
ENDBRANCH   1   2
BRANCH   1  15
HETATM   15  C           1       3.092   1.771  -2.909  0.00  0.00     0.197 C 
HETATM   16  O           1       4.323   1.557  -2.968  0.00  0.00    -0.646 OA
HETATM   17  O           1       2.575   2.647  -3.635  0.00  0.00    -0.646 OA
ENDBRANCH   1  15
BRANCH   1  18
HETATM   18  C           1       0.783   1.425  -2.085  0.00  0.00     0.074 C 
BRANCH  18  19
HETATM   19  C           1      -0.127   0.276  -1.780  0.00  0.00    -0.056 A 
HETATM   20  C           1       0.408  -0.969  -1.447  0.00  0.00     0.010 A 
HETATM   21  C           1      -0.441  -2.039  -1.164  0.00  0.00     0.038 A 
HETATM   22  C           1      -1.824  -1.864  -1.212  0.00  0.00     0.081 A 
HETATM   23  C           1      -2.358  -0.620  -1.545  0.00  0.00     0.038 A 
HETATM   24  C           1      -1.510   0.451  -1.828  0.00  0.00     0.010 A 
BRANCH  22  25
HETATM   25  O           1      -2.648  -2.904  -0.936  0.00  0.00    -0.247 OA
BRANCH  25  26
HETATM   26  P           1      -4.241  -2.648  -1.007  0.00  0.00     0.411 P 
HETATM   27  O           1      -4.615  -1.594  -0.038  0.00  0.00    -0.624 OA
HETATM   28  O           1      -4.957  -3.900  -0.675  0.00  0.00    -0.624 OA
BRANCH  26  29
HETATM   29  O           1      -4.644  -2.176  -2.498  0.00  0.00    -0.300 OA
HETATM   30  H           1      -5.576  -2.045  -2.469  0.00  0.00     0.223 HD
ENDBRANCH  26  29
ENDBRANCH  25  26
ENDBRANCH  22  25
ENDBRANCH  18  19
ENDBRANCH   1  18
TORSDOF 11
