REMARK  10 active torsions:
REMARK  status: ('A' for Active; 'I' for Inactive)
REMARK    1  A    between atoms: C_2  and  C_3 
REMARK    2  A    between atoms: C_3  and  C_24 
REMARK    3  A    between atoms: C_3  and  N_5 
REMARK    4  A    between atoms: N_4  and  C_19 
REMARK       I    between atoms: N_5  and  C_16 
REMARK    5  A    between atoms: C_6  and  C_7 
REMARK    6  A    between atoms: C_6  and  C_24 
REMARK    7  A    between atoms: C_7  and  N_10 
REMARK       I    between atoms: N_10  and  C_15 
REMARK       I    between atoms: N_11  and  C_15 
REMARK    8  A    between atoms: C_16  and  C_19 
REMARK    9  A    between atoms: C_19  and  C_20 
REMARK   10  A    between atoms: C_20  and  C_27 
ROOT
HETATM    1  C           1       1.690   0.088   0.854  0.00  0.00     0.185 C 
ENDROOT
BRANCH   1   2
HETATM    2  C           1       2.572   1.305   0.717  0.00  0.00     0.196 C 
HETATM    3  O           1       2.076   2.402   0.382  0.00  0.00    -0.646 OA
HETATM    4  O           1       3.799   1.215   0.939  0.00  0.00    -0.646 OA
ENDBRANCH   1   2
BRANCH   1   5
HETATM    5  C           1       2.535  -1.109   1.270  0.00  0.00     0.038 C 
BRANCH   5   6
HETATM    6  C           1       1.689  -2.066   2.099  0.00  0.00     0.023 C 
BRANCH   6   7
HETATM    7  C           1       1.180  -1.348   3.343  0.00  0.00     0.138 C 
BRANCH   7   8
HETATM    8  N           1      -0.290  -1.348   3.343  0.00  0.00    -0.227 N 
HETATM    9  H           1      -0.815  -0.438   3.343  0.00  0.00     0.177 HD
HETATM   10  C           1      -0.923  -2.444   3.343  0.00  0.00     0.665 C 
HETATM   11  N           1      -2.223  -2.444   3.343  0.00  0.00    -0.235 N 
HETATM   12  N           1      -0.290  -3.541   3.343  0.00  0.00    -0.235 N 
HETATM   13  H           1      -2.745  -1.539   3.343  0.00  0.00     0.174 HD
HETATM   14  H           1      -2.745  -3.349   3.343  0.00  0.00     0.174 HD
HETATM   15  H           1      -0.815  -4.450   3.343  0.00  0.00     0.174 HD
HETATM   16  H           1       0.760  -3.541   3.343  0.00  0.00     0.174 HD
ENDBRANCH   7   8
ENDBRANCH   6   7
ENDBRANCH   5   6
ENDBRANCH   1   5
BRANCH   1  17
HETATM   17  N           1       1.051  -0.191  -0.417  0.00  0.00    -0.345 N 
HETATM   18  H           1       1.207  -1.078  -0.878  0.00  0.00     0.163 HD
HETATM   19  C           1       0.235   0.746  -0.993  0.00  0.00     0.249 C 
HETATM   20  O           1       0.049   1.805  -0.443  0.00  0.00    -0.271 OA
BRANCH  19  21
HETATM   21  C           1      -0.430   0.456  -2.316  0.00  0.00     0.278 C 
BRANCH  21  22
HETATM   22  N           1      -1.307  -0.753  -2.180  0.00  0.00    -0.066 N 
HETATM   23  H           1      -1.768  -0.955  -3.096  0.00  0.00     0.275 HD
HETATM   24  H           1      -0.727  -1.574  -1.894  0.00  0.00     0.275 HD
HETATM   25  H           1      -2.038  -0.573  -1.454  0.00  0.00     0.275 HD
ENDBRANCH  21  22
BRANCH  21  26
HETATM   26  C           1      -1.275   1.652  -2.733  0.00  0.00     0.021 C 
HETATM   27  C           1      -2.341   1.914  -1.677  0.00  0.00     0.012 C 
BRANCH  26  28
HETATM   28  C           1      -0.385   2.880  -2.870  0.00  0.00     0.002 C 
HETATM   29  C           1      -0.460   3.406  -4.298  0.00  0.00     0.005 C 
ENDBRANCH  26  28
ENDBRANCH  21  26
ENDBRANCH  19  21
ENDBRANCH   1  17
TORSDOF 10
