REMARK  8 active torsions:
REMARK  status: ('A' for Active; 'I' for Inactive)
REMARK    1  A    between atoms: C_1  and  C_8 
REMARK    2  A    between atoms: C_1  and  C_2 
REMARK    3  A    between atoms: C_1  and  N_11 
REMARK    4  A    between atoms: C_2  and  C_18 
REMARK    5  A    between atoms: C_3  and  C_4 
REMARK    6  A    between atoms: C_4  and  C_5 
REMARK    7  A    between atoms: C_5  and  C_6 
REMARK    8  A    between atoms: C_5  and  N_13 
REMARK       I    between atoms: C_8  and  N_13 
ROOT
HETATM    1  C           1      -0.048   0.291  -0.438  0.00  0.00     0.249 C 
HETATM    2  O           1       0.123   1.426  -0.814  0.00  0.00    -0.271 OA
HETATM    3  N           1       0.520  -0.134   0.733  0.00  0.00    -0.344 N 
HETATM    4  H           1       0.377  -1.085   1.049  0.00  0.00     0.163 HD
ENDROOT
BRANCH   1   5
HETATM    5  C           1      -0.886  -0.658  -1.258  0.00  0.00     0.278 C 
BRANCH   5   6
HETATM    6  C           1      -1.395   0.058  -2.502  0.00  0.00     0.021 C 
HETATM    7  C           1      -2.242   1.255  -2.088  0.00  0.00     0.012 C 
BRANCH   6   8
HETATM    8  C           1      -0.211   0.538  -3.331  0.00  0.00     0.002 C 
HETATM    9  C           1      -0.266  -0.101  -4.713  0.00  0.00     0.005 C 
ENDBRANCH   6   8
ENDBRANCH   5   6
BRANCH   5  10
HETATM   10  N           1      -2.052  -1.129  -0.440  0.00  0.00    -0.066 N 
HETATM   11  H           1      -2.633  -1.786  -1.008  0.00  0.00     0.275 HD
HETATM   12  H           1      -1.703  -1.621   0.413  0.00  0.00     0.275 HD
HETATM   13  H           1      -2.632  -0.307  -0.157  0.00  0.00     0.275 HD
ENDBRANCH   5  10
ENDBRANCH   1   5
BRANCH   3  14
HETATM   14  C           1       1.325   0.778   1.522  0.00  0.00     0.189 C 
BRANCH  14  15
HETATM   15  C           1       1.834   0.060   2.765  0.00  0.00     0.014 C 
HETATM   16  C           1       1.327   0.779   4.008  0.00  0.00     0.012 C 
BRANCH  15  17
HETATM   17  C           1       1.325  -1.375   2.765  0.00  0.00     0.002 C 
HETATM   18  C           1      -0.198  -1.375   2.765  0.00  0.00     0.005 C 
ENDBRANCH  15  17
ENDBRANCH  14  15
BRANCH  14  19
HETATM   19  C           1       2.498   1.252   0.699  0.00  0.00     0.197 C 
HETATM   20  O           1       2.302   1.869  -0.370  0.00  0.00    -0.646 OA
HETATM   21  O           1       3.665   1.028   1.087  0.00  0.00    -0.646 OA
ENDBRANCH  14  19
ENDBRANCH   3  14
TORSDOF 8
