REMARK  8 active torsions:
REMARK  status: ('A' for Active; 'I' for Inactive)
REMARK       I    between atoms: C_1  and  N_4 
REMARK    1  A    between atoms: C_1  and  C_3 
REMARK    2  A    between atoms: C_3  and  C_16 
REMARK    3  A    between atoms: C_3  and  N_8 
REMARK    4  A    between atoms: N_4  and  C_12 
REMARK    5  A    between atoms: C_6  and  C_16 
REMARK    6  A    between atoms: C_10  and  O_11 
REMARK    7  A    between atoms: C_10  and  C_12 
REMARK    8  A    between atoms: C_12  and  C_13 
ROOT
HETATM    1  C           1      -0.028  -0.047   0.083  0.00  0.00     0.249 C 
HETATM    2  N           1      -0.594   0.378  -1.089  0.00  0.00    -0.343 N 
HETATM    3  O           1      -0.200  -1.181   0.460  0.00  0.00    -0.271 OA
HETATM    4  H           1      -0.451   1.329  -1.405  0.00  0.00     0.163 HD
ENDROOT
BRANCH   1   5
HETATM    5  C           1       0.811   0.902   0.903  0.00  0.00     0.278 C 
BRANCH   5   6
HETATM    6  C           1       1.318   0.186   2.147  0.00  0.00     0.021 C 
HETATM    7  C           1       0.134  -0.291   2.978  0.00  0.00     0.012 C 
BRANCH   6   8
HETATM    8  C           1       2.163  -1.012   1.734  0.00  0.00     0.002 C 
HETATM    9  C           1       3.574  -0.853   2.285  0.00  0.00     0.005 C 
ENDBRANCH   6   8
ENDBRANCH   5   6
BRANCH   5  10
HETATM   10  N           1      -0.023   2.081   1.310  0.00  0.00    -0.066 N 
HETATM   11  H           1       0.557   2.739   1.878  0.00  0.00     0.275 HD
HETATM   12  H           1      -0.371   2.573   0.456  0.00  0.00     0.275 HD
HETATM   13  H           1      -0.835   1.753   1.879  0.00  0.00     0.275 HD
ENDBRANCH   5  10
ENDBRANCH   1   5
BRANCH   2  14
HETATM   14  C           1      -1.400  -0.534  -1.877  0.00  0.00     0.214 C 
BRANCH  14  15
HETATM   15  C           1      -1.907   0.183  -3.122  0.00  0.00     0.147 C 
HETATM   16  C           1      -3.430   0.183  -3.122  0.00  0.00     0.042 C 
BRANCH  15  17
HETATM   17  O           1      -1.439   1.505  -3.122  0.00  0.00    -0.393 OA
HETATM   18  H           1      -0.498   1.462  -3.122  0.00  0.00     0.210 HD
ENDBRANCH  15  17
ENDBRANCH  14  15
BRANCH  14  19
HETATM   19  C           1      -0.562  -1.720  -2.286  0.00  0.00     0.199 C 
HETATM   20  O           1      -0.384  -1.972  -3.498  0.00  0.00    -0.646 OA
HETATM   21  O           1      -0.046  -2.451  -1.413  0.00  0.00    -0.646 OA
ENDBRANCH  14  19
ENDBRANCH   2  14
TORSDOF 8
