REMARK  9 active torsions:
REMARK  status: ('A' for Active; 'I' for Inactive)
REMARK    1  A    between atoms: C_1  and  C_2 
REMARK    2  A    between atoms: C_1  and  C_9 
REMARK    3  A    between atoms: C_2  and  C_3 
REMARK       I    between atoms: C_3  and  N_5 
REMARK    4  A    between atoms: C_7  and  C_20 
REMARK    5  A    between atoms: C_9  and  C_19 
REMARK    6  A    between atoms: C_9  and  N_16 
REMARK    7  A    between atoms: C_14  and  C_15 
REMARK    8  A    between atoms: C_14  and  C_20 
REMARK    9  A    between atoms: C_14  and  N_24 
REMARK       I    between atoms: C_15  and  N_16 
ROOT
HETATM    1  O           1      -0.458  -0.343   1.031  0.00  0.00    -0.271 OA
HETATM    2  H           1       0.450   0.988  -1.661  0.00  0.00     0.163 HD
HETATM    3  C           1      -0.451   0.456   0.124  0.00  0.00     0.249 C 
HETATM    4  N           1       0.445   0.319  -0.902  0.00  0.00    -0.345 N 
ENDROOT
BRANCH   4   5
HETATM    5  C           1       1.385  -0.785  -0.901  0.00  0.00     0.186 C 
BRANCH   5   6
HETATM    6  C           1       2.261  -0.705  -2.144  0.00  0.00     0.045 C 
BRANCH   6   7
HETATM    7  C           1       3.250  -1.863  -2.144  0.00  0.00     0.105 C 
BRANCH   7   8
HETATM    8  C           1       2.496  -3.170  -2.144  0.00  0.00     0.215 C 
HETATM    9  O           1       1.288  -3.170  -2.144  0.00  0.00    -0.274 OA
HETATM   10  N           1       3.180  -4.355  -2.144  0.00  0.00    -0.370 N 
HETATM   11  H           1       4.192  -4.355  -2.144  0.00  0.00     0.159 HD
HETATM   12  H           1       2.674  -5.232  -2.144  0.00  0.00     0.159 HD
ENDBRANCH   7   8
ENDBRANCH   6   7
ENDBRANCH   5   6
BRANCH   5  13
HETATM   13  C           1       2.252  -0.705   0.332  0.00  0.00     0.196 C 
HETATM   14  O           1       3.492  -0.592   0.218  0.00  0.00    -0.646 OA
HETATM   15  O           1       1.730  -0.752   1.467  0.00  0.00    -0.646 OA
ENDBRANCH   5  13
ENDBRANCH   4   5
BRANCH   3  16
HETATM   16  C           1      -1.430   1.604   0.124  0.00  0.00     0.278 C 
BRANCH  16  17
HETATM   17  C           1      -2.307   1.526   1.366  0.00  0.00     0.021 C 
HETATM   18  C           1      -3.071   0.208   1.367  0.00  0.00     0.012 C 
BRANCH  17  19
HETATM   19  C           1      -1.431   1.605   2.610  0.00  0.00     0.002 C 
HETATM   20  C           1      -1.834   2.817   3.439  0.00  0.00     0.005 C 
ENDBRANCH  17  19
ENDBRANCH  16  17
BRANCH  16  21
HETATM   21  N           1      -2.292   1.525  -1.101  0.00  0.00    -0.066 N 
HETATM   22  H           1      -2.815   0.620  -1.100  0.00  0.00     0.275 HD
HETATM   23  H           1      -2.970   2.319  -1.103  0.00  0.00     0.275 HD
HETATM   24  H           1      -1.690   1.579  -1.954  0.00  0.00     0.275 HD
ENDBRANCH  16  21
ENDBRANCH   3  16
TORSDOF 9
