REMARK  8 active torsions:
REMARK  status: ('A' for Active; 'I' for Inactive)
REMARK    1  A    between atoms: C_1  and  C_20 
REMARK    2  A    between atoms: C_5  and  C_6 
REMARK    3  A    between atoms: C_5  and  C_16 
REMARK    4  A    between atoms: C_6  and  C_7 
REMARK    5  A    between atoms: C_6  and  N_13 
REMARK       I    between atoms: C_7  and  N_8 
REMARK    6  A    between atoms: N_8  and  C_20 
REMARK    7  A    between atoms: C_20  and  C_21 
REMARK    8  A    between atoms: C_21  and  C_22 
ROOT
HETATM    1  H           1       2.901   1.492  -0.579  0.00  0.00     0.163 HD
HETATM    2  C           1       1.481   0.254   0.280  0.00  0.00     0.249 C 
HETATM    3  N           1       2.114   0.882  -0.760  0.00  0.00    -0.344 N 
HETATM    4  O           1       1.854  -0.836   0.644  0.00  0.00    -0.271 OA
ENDROOT
BRANCH   3   5
HETATM    5  C           1       1.656   0.672  -2.120  0.00  0.00     0.189 C 
BRANCH   5   6
HETATM    6  C           1       2.516   1.472  -3.067  0.00  0.00     0.197 C 
HETATM    7  O           1       3.747   1.258  -3.126  0.00  0.00    -0.646 OA
HETATM    8  O           1       1.999   2.348  -3.793  0.00  0.00    -0.646 OA
ENDBRANCH   5   6
BRANCH   5   9
HETATM    9  C           1       0.208   1.126  -2.243  0.00  0.00     0.074 C 
BRANCH   9  10
HETATM   10  C           1      -0.703  -0.023  -1.938  0.00  0.00    -0.056 A 
HETATM   11  C           1      -2.086   0.152  -1.986  0.00  0.00     0.007 A 
HETATM   12  C           1      -2.934  -0.919  -1.702  0.00  0.00     0.001 A 
HETATM   13  C           1      -2.400  -2.163  -1.370  0.00  0.00     0.000 A 
HETATM   14  C           1      -1.017  -2.338  -1.321  0.00  0.00     0.001 A 
HETATM   15  C           1      -0.168  -1.268  -1.605  0.00  0.00     0.007 A 
ENDBRANCH   9  10
ENDBRANCH   5   9
ENDBRANCH   3   5
BRANCH   2  16
HETATM   16  C           1       0.318   0.923   0.970  0.00  0.00     0.278 C 
BRANCH  16  17
HETATM   17  C           1      -0.201   0.021   2.082  0.00  0.00     0.021 C 
HETATM   18  C           1      -0.659  -1.305   1.488  0.00  0.00     0.012 C 
BRANCH  17  19
HETATM   19  C           1       0.912  -0.232   3.090  0.00  0.00     0.002 C 
HETATM   20  C           1       0.481   0.276   4.460  0.00  0.00     0.005 C 
ENDBRANCH  17  19
ENDBRANCH  16  17
BRANCH  16  21
HETATM   21  N           1      -0.777   1.171  -0.024  0.00  0.00    -0.066 N 
HETATM   22  H           1      -1.583   1.635   0.453  0.00  0.00     0.275 HD
HETATM   23  H           1      -0.421   1.791  -0.787  0.00  0.00     0.275 HD
HETATM   24  H           1      -1.090   0.261  -0.432  0.00  0.00     0.275 HD
ENDBRANCH  16  21
ENDBRANCH   2  16
TORSDOF 8
