REMARK  11 active torsions:
REMARK  status: ('A' for Active; 'I' for Inactive)
REMARK    1  A    between atoms: N_2  and  C_3 
REMARK    2  A    between atoms: C_3  and  C_5 
REMARK    3  A    between atoms: C_4  and  C_12 
REMARK    4  A    between atoms: C_4  and  C_14 
REMARK    5  A    between atoms: C_4  and  N_8 
REMARK    6  A    between atoms: C_5  and  C_6 
REMARK    7  A    between atoms: C_6  and  C_12 
REMARK       I    between atoms: N_8  and  C_9 
REMARK    8  A    between atoms: C_9  and  C_10 
REMARK    9  A    between atoms: C_10  and  C_11 
REMARK   10  A    between atoms: C_10  and  N_19 
REMARK   11  A    between atoms: C_11  and  C_24 
ROOT
HETATM    1  H           1      -0.615  -1.165   0.420  0.00  0.00     0.163 HD
HETATM    2  N           1      -0.109  -0.289   0.420  0.00  0.00    -0.345 N 
HETATM    3  C           1      -0.794   0.897   0.419  0.00  0.00     0.249 C 
HETATM    4  O           1      -0.190   1.943   0.419  0.00  0.00    -0.271 OA
ENDROOT
BRANCH   2   5
HETATM    5  C           1       1.341  -0.289   0.420  0.00  0.00     0.185 C 
BRANCH   5   6
HETATM    6  C           1       1.848  -1.725   0.420  0.00  0.00     0.036 C 
BRANCH   6   7
HETATM    7  C           1       3.371  -1.727   0.419  0.00  0.00     0.004 C 
BRANCH   7   8
HETATM    8  C           1       3.878  -2.445  -0.824  0.00  0.00     0.027 C 
BRANCH   8   9
HETATM    9  C           1       3.369  -3.881  -0.824  0.00  0.00     0.229 C 
BRANCH   9  10
HETATM   10  N           1       1.869  -3.881  -0.824  0.00  0.00    -0.079 N 
HETATM   11  H           1       1.520  -4.866  -0.824  0.00  0.00     0.274 HD
HETATM   12  H           1       1.521  -3.389   0.030  0.00  0.00     0.274 HD
HETATM   13  H           1       1.521  -3.388  -1.677  0.00  0.00     0.274 HD
ENDBRANCH   9  10
ENDBRANCH   8   9
ENDBRANCH   7   8
ENDBRANCH   6   7
ENDBRANCH   5   6
BRANCH   5  14
HETATM   14  C           1       1.843   0.422  -0.813  0.00  0.00     0.196 C 
HETATM   15  O           1       1.541   1.619  -1.010  0.00  0.00    -0.646 OA
HETATM   16  O           1       2.561  -0.185  -1.636  0.00  0.00    -0.646 OA
ENDBRANCH   5  14
ENDBRANCH   2   5
BRANCH   3  17
HETATM   17  C           1      -2.303   0.897   0.419  0.00  0.00     0.278 C 
BRANCH  17  18
HETATM   18  C           1      -2.811   2.332   0.419  0.00  0.00     0.021 C 
HETATM   19  C           1      -2.304   3.051   1.662  0.00  0.00     0.012 C 
BRANCH  18  20
HETATM   20  C           1      -2.303   3.050  -0.824  0.00  0.00     0.002 C 
HETATM   21  C           1      -3.486   3.528  -1.655  0.00  0.00     0.005 C 
ENDBRANCH  18  20
ENDBRANCH  17  18
BRANCH  17  22
HETATM   22  N           1      -2.802   0.190   1.645  0.00  0.00    -0.066 N 
HETATM   23  H           1      -3.847   0.190   1.646  0.00  0.00     0.275 HD
HETATM   24  H           1      -2.454   0.684   2.498  0.00  0.00     0.275 HD
HETATM   25  H           1      -2.454  -0.795   1.645  0.00  0.00     0.275 HD
ENDBRANCH  17  22
ENDBRANCH   3  17
TORSDOF 11
