REMARK  6 active torsions:
REMARK  status: ('A' for Active; 'I' for Inactive)
REMARK    1  A    between atoms: C_4  and  C_13 
REMARK    2  A    between atoms: C_6  and  C_15 
REMARK    3  A    between atoms: N_12  and  C_13 
REMARK       I    between atoms: N_12  and  C_16 
REMARK    4  A    between atoms: N_14  and  C_17 
REMARK    5  A    between atoms: C_15  and  C_17 
REMARK    6  A    between atoms: C_16  and  C_17 
ROOT
HETATM    1  C           1      -0.833   0.340   0.076  0.00  0.00     0.278 C 
ENDROOT
BRANCH   1   2
HETATM    2  N           1      -1.695   0.261   1.301  0.00  0.00    -0.066 N 
HETATM    3  H           1      -2.218  -0.644   1.301  0.00  0.00     0.275 HD
HETATM    4  H           1      -1.093   0.316   2.154  0.00  0.00     0.275 HD
HETATM    5  H           1      -2.374   1.055   1.302  0.00  0.00     0.275 HD
ENDBRANCH   1   2
BRANCH   1   6
HETATM    6  C           1      -0.072   1.659   0.076  0.00  0.00     0.021 C 
HETATM    7  C           1       0.804   1.740   1.319  0.00  0.00     0.012 C 
BRANCH   6   8
HETATM    8  C           1       0.804   1.738  -1.167  0.00  0.00     0.002 C 
HETATM    9  C           1       0.399   2.949  -1.998  0.00  0.00     0.005 C 
ENDBRANCH   6   8
ENDBRANCH   1   6
BRANCH   1  10
HETATM   10  C           1       0.147  -0.808   0.076  0.00  0.00     0.249 C 
HETATM   11  O           1       1.335  -0.587   0.076  0.00  0.00    -0.271 OA
HETATM   12  N           1      -0.310  -2.098   0.076  0.00  0.00    -0.349 N 
HETATM   13  H           1      -1.305  -2.282   0.076  0.00  0.00     0.163 HD
BRANCH  12  14
HETATM   14  C           1       0.631  -3.201   0.076  0.00  0.00     0.235 C 
BRANCH  14  15
HETATM   15  C           1      -0.123  -4.507   0.076  0.00  0.00     0.191 C 
HETATM   16  O           1      -1.373  -4.507   0.076  0.00  0.00    -0.647 OA
HETATM   17  O           1       0.502  -5.590   0.076  0.00  0.00    -0.647 OA
ENDBRANCH  14  15
ENDBRANCH  12  14
ENDBRANCH   1  10
TORSDOF 6
