REMARK  10 active torsions:
REMARK  status: ('A' for Active; 'I' for Inactive)
REMARK    1  A    between atoms: C_4  and  C_7 
REMARK    2  A    between atoms: C_4  and  C_14 
REMARK       I    between atoms: C_6  and  N_13 
REMARK    3  A    between atoms: C_6  and  C_7 
REMARK    4  A    between atoms: C_7  and  N_20 
REMARK    5  A    between atoms: C_9  and  C_16 
REMARK    6  A    between atoms: O_12  and  P_17 
REMARK    7  A    between atoms: N_13  and  C_16 
REMARK    8  A    between atoms: C_16  and  C_18 
REMARK    9  A    between atoms: P_17  and  O_19 
REMARK   10  A    between atoms: C_18  and  O_19 
ROOT
HETATM    1  C           1       0.452  -0.509   0.255  0.00  0.00     0.249 C 
HETATM    2  N           1      -0.329  -1.612   0.473  0.00  0.00    -0.343 N 
HETATM    3  H           1      -0.326  -2.373  -0.194  0.00  0.00     0.163 HD
HETATM    4  O           1       0.448   0.401   1.050  0.00  0.00    -0.271 OA
ENDROOT
BRANCH   2   5
HETATM    5  C           1      -1.162  -1.688   1.657  0.00  0.00     0.210 C 
BRANCH   5   6
HETATM    6  C           1      -1.917  -2.995   1.657  0.00  0.00     0.198 C 
HETATM    7  O           1      -3.167  -2.995   1.657  0.00  0.00    -0.646 OA
HETATM    8  O           1      -1.292  -4.078   1.657  0.00  0.00    -0.646 OA
ENDBRANCH   5   6
BRANCH   5   9
HETATM    9  C           1      -2.151  -0.530   1.657  0.00  0.00     0.217 C 
BRANCH   9  10
HETATM   10  O           1      -2.958  -0.603   0.513  0.00  0.00    -0.287 OA
BRANCH  10  11
HETATM   11  P           1      -4.069   0.557   0.354  0.00  0.00     0.406 P 
HETATM   12  O           1      -4.992   0.517   1.511  0.00  0.00    -0.624 OA
HETATM   13  O           1      -3.401   1.877   0.302  0.00  0.00    -0.624 OA
BRANCH  11  14
HETATM   14  O           1      -4.902   0.322  -1.009  0.00  0.00    -0.300 OA
HETATM   15  H           1      -5.526   1.027  -1.039  0.00  0.00     0.223 HD
ENDBRANCH  11  14
ENDBRANCH  10  11
ENDBRANCH   9  10
ENDBRANCH   5   9
ENDBRANCH   2   5
BRANCH   1  16
HETATM   16  C           1       1.319  -0.429  -0.978  0.00  0.00     0.278 C 
BRANCH  16  17
HETATM   17  C           1       2.081   0.889  -0.979  0.00  0.00     0.021 C 
HETATM   18  C           1       1.092   2.048  -0.978  0.00  0.00     0.012 C 
BRANCH  17  19
HETATM   19  C           1       2.957   0.970   0.264  0.00  0.00     0.002 C 
HETATM   20  C           1       4.416   1.103  -0.150  0.00  0.00     0.005 C 
ENDBRANCH  17  19
ENDBRANCH  16  17
BRANCH  16  21
HETATM   21  N           1       0.455  -0.508  -2.201  0.00  0.00    -0.066 N 
HETATM   22  H           1      -0.068  -1.413  -2.201  0.00  0.00     0.275 HD
HETATM   23  H           1       1.054  -0.453  -3.055  0.00  0.00     0.275 HD
HETATM   24  H           1      -0.224   0.287  -2.200  0.00  0.00     0.275 HD
ENDBRANCH  16  21
ENDBRANCH   1  16
TORSDOF 10
