REMARK  8 active torsions:
REMARK  status: ('A' for Active; 'I' for Inactive)
REMARK    1  A    between atoms: C_1  and  C_19 
REMARK    2  A    between atoms: N_3  and  C_18 
REMARK    3  A    between atoms: N_9  and  C_21 
REMARK       I    between atoms: N_9  and  C_10 
REMARK    4  A    between atoms: C_10  and  C_18 
REMARK    5  A    between atoms: C_15  and  C_17 
REMARK    6  A    between atoms: C_17  and  C_21 
REMARK    7  A    between atoms: C_18  and  C_19 
REMARK    8  A    between atoms: C_21  and  C_25 
ROOT
HETATM    1  N           1       1.283   1.632  -0.904  0.00  0.00    -0.344 N 
HETATM    2  C           1       1.142   0.646   0.035  0.00  0.00     0.249 C 
HETATM    3  H           1       1.807   2.469  -0.684  0.00  0.00     0.163 HD
HETATM    4  O           1       1.955  -0.246   0.102  0.00  0.00    -0.271 OA
ENDROOT
BRANCH   1   5
HETATM    5  C           1       0.681   1.476  -2.214  0.00  0.00     0.191 C 
BRANCH   5   6
HETATM    6  C           1      -0.827   1.323  -2.064  0.00  0.00     0.094 C 
BRANCH   6   7
HETATM    7  C           1      -1.170  -0.127  -1.919  0.00  0.00     0.028 A 
HETATM    8  N           1      -2.442  -0.616  -1.765  0.00  0.00    -0.354 N 
HETATM    9  C           1      -2.304  -1.918  -1.676  0.00  0.00     0.180 A 
ATOM     10  HN          1      -3.310  -0.082  -1.728  1.00  0.00     0.166 HD
HETATM   11  N           1      -0.993  -2.290  -1.767  0.00  0.00    -0.360 N 
HETATM   12  H           1      -0.621  -3.271  -1.725  0.00  0.00     0.166 HD
HETATM   13  C           1      -0.253  -1.151  -1.923  0.00  0.00     0.114 A 
ENDBRANCH   6   7
ENDBRANCH   5   6
BRANCH   5  14
HETATM   14  C           1       0.982   2.694  -3.053  0.00  0.00     0.197 C 
HETATM   15  O           1       2.167   3.005  -3.300  0.00  0.00    -0.646 OA
HETATM   16  O           1       0.046   3.392  -3.500  0.00  0.00    -0.646 OA
ENDBRANCH   5  14
ENDBRANCH   1   5
BRANCH   2  17
HETATM   17  C           1      -0.028   0.672   0.988  0.00  0.00     0.278 C 
BRANCH  17  18
HETATM   18  N           1      -1.308   0.614   0.208  0.00  0.00    -0.066 N 
HETATM   19  H           1      -2.119   0.633   0.866  0.00  0.00     0.275 HD
HETATM   20  H           1      -1.362   1.438  -0.433  0.00  0.00     0.275 HD
HETATM   21  H           1      -1.335  -0.267  -0.353  0.00  0.00     0.275 HD
ENDBRANCH  17  18
BRANCH  17  22
HETATM   22  C           1       0.050  -0.528   1.923  0.00  0.00     0.021 C 
HETATM   23  C           1       0.010  -1.812   1.106  0.00  0.00     0.012 C 
BRANCH  22  24
HETATM   24  C           1       1.351  -0.470   2.713  0.00  0.00     0.002 C 
HETATM   25  C           1       1.038  -0.404   4.203  0.00  0.00     0.005 C 
ENDBRANCH  22  24
ENDBRANCH  17  22
ENDBRANCH   2  17
TORSDOF 8
