REMARK  8 active torsions:
REMARK  status: ('A' for Active; 'I' for Inactive)
REMARK    1  A    between atoms: C_4  and  C_10 
REMARK    2  A    between atoms: C_4  and  C_20 
REMARK    3  A    between atoms: C_4  and  N_19 
REMARK    4  A    between atoms: Se_9  and  C_10 
REMARK    5  A    between atoms: C_11  and  C_18 
REMARK    6  A    between atoms: C_11  and  C_12 
REMARK    7  A    between atoms: C_11  and  N_16 
REMARK    8  A    between atoms: C_12  and  C_14 
REMARK       I    between atoms: C_18  and  N_19 
ROOT
HETATM    1  H           1      -0.381  -2.218  -0.182  0.00  0.00     0.163 HD
HETATM    2  O           1      -0.803   0.890  -0.183  0.00  0.00    -0.271 OA
HETATM    3  C           1      -0.200  -0.157  -0.182  0.00  0.00     0.249 C 
HETATM    4  N           1      -0.886  -1.342  -0.183  0.00  0.00    -0.345 N 
ENDROOT
BRANCH   3   5
HETATM    5  C           1       1.309  -0.158  -0.182  0.00  0.00     0.278 C 
BRANCH   5   6
HETATM    6  C           1       1.819   1.277  -0.182  0.00  0.00     0.021 C 
HETATM    7  C           1       1.313   1.996  -1.425  0.00  0.00     0.012 C 
BRANCH   6   8
HETATM    8  C           1       1.310   1.996   1.061  0.00  0.00     0.002 C 
HETATM    9  C           1       2.494   2.473   1.892  0.00  0.00     0.005 C 
ENDBRANCH   6   8
ENDBRANCH   5   6
BRANCH   5  10
HETATM   10  N           1       1.808  -0.865  -1.406  0.00  0.00    -0.066 N 
HETATM   11  H           1       2.853  -0.867  -1.407  0.00  0.00     0.275 HD
HETATM   12  H           1       1.460  -0.372  -2.259  0.00  0.00     0.275 HD
HETATM   13  H           1       1.459  -1.850  -1.406  0.00  0.00     0.275 HD
ENDBRANCH   5  10
ENDBRANCH   3   5
BRANCH   4  14
HETATM   14  C           1      -2.336  -1.340  -0.183  0.00  0.00     0.185 C 
BRANCH  14  15
HETATM   15  C           1      -2.844  -2.776  -0.183  0.00  0.00     0.039 C 
BRANCH  15  16
HETATM   16 Se           1      -4.793  -2.776  -0.183  0.00  0.00     0.000 Se
HETATM   17  H           1      -4.909  -4.243  -0.183  0.00  0.00     0.000 HD
ENDBRANCH  15  16
ENDBRANCH  14  15
BRANCH  14  18
HETATM   18  C           1      -2.838  -0.628   1.048  0.00  0.00     0.196 C 
HETATM   19  O           1      -3.557  -1.234   1.872  0.00  0.00    -0.646 OA
HETATM   20  O           1      -2.535   0.569   1.246  0.00  0.00    -0.646 OA
ENDBRANCH  14  18
ENDBRANCH   4  14
TORSDOF 8
