REMARK  7 active torsions:
REMARK  status: ('A' for Active; 'I' for Inactive)
REMARK    1  A    between atoms: C_1  and  C_7 
REMARK    2  A    between atoms: C_1  and  C_4 
REMARK    3  A    between atoms: C_1  and  N_13 
REMARK    4  A    between atoms: N_3  and  C_19 
REMARK       I    between atoms: N_13  and  C_20 
REMARK    5  A    between atoms: C_16  and  C_18 
REMARK    6  A    between atoms: C_18  and  C_19 
REMARK    7  A    between atoms: C_19  and  C_20 
ROOT
HETATM    1  O           1      -0.113  -1.301   0.624  0.00  0.00    -0.271 OA
HETATM    2  H           1      -0.364   1.209  -1.241  0.00  0.00     0.163 HD
HETATM    3  N           1      -0.508   0.258  -0.925  0.00  0.00    -0.344 N 
HETATM    4  C           1       0.058  -0.167   0.247  0.00  0.00     0.249 C 
ENDROOT
BRANCH   4   5
HETATM    5  C           1       0.897   0.782   1.067  0.00  0.00     0.278 C 
BRANCH   5   6
HETATM    6  N           1       0.064   1.961   1.474  0.00  0.00    -0.066 N 
HETATM    7  H           1       0.644   2.619   2.042  0.00  0.00     0.275 HD
HETATM    8  H           1      -0.284   2.453   0.620  0.00  0.00     0.275 HD
HETATM    9  H           1      -0.749   1.633   2.043  0.00  0.00     0.275 HD
ENDBRANCH   5   6
BRANCH   5  10
HETATM   10  C           1       1.405   0.066   2.312  0.00  0.00     0.021 C 
HETATM   11  C           1       0.221  -0.411   3.142  0.00  0.00     0.012 C 
BRANCH  10  12
HETATM   12  C           1       2.250  -1.131   1.898  0.00  0.00     0.002 C 
HETATM   13  C           1       3.661  -0.973   2.449  0.00  0.00     0.005 C 
ENDBRANCH  10  12
ENDBRANCH   5  10
ENDBRANCH   4   5
BRANCH   3  14
HETATM   14  C           1      -1.314  -0.654  -1.713  0.00  0.00     0.189 C 
BRANCH  14  15
HETATM   15  C           1      -1.821   0.063  -2.957  0.00  0.00     0.010 C 
HETATM   16  C           1      -3.344   0.063  -2.957  0.00  0.00     0.012 C 
HETATM   17  C           1      -1.312   1.499  -2.957  0.00  0.00     0.012 C 
ENDBRANCH  14  15
BRANCH  14  18
HETATM   18  C           1      -0.476  -1.840  -2.122  0.00  0.00     0.197 C 
HETATM   19  O           1       0.041  -2.571  -1.249  0.00  0.00    -0.646 OA
HETATM   20  O           1      -0.298  -2.092  -3.333  0.00  0.00    -0.646 OA
ENDBRANCH  14  18
ENDBRANCH   3  14
TORSDOF 7
