REMARK  6 active torsions:
REMARK  status: ('A' for Active; 'I' for Inactive)
REMARK    1  A    between atoms: C_3  and  C_15 
REMARK    2  A    between atoms: N_8  and  C_13 
REMARK    3  A    between atoms: N_11  and  C_15 
REMARK       I    between atoms: N_11  and  C_12 
REMARK    4  A    between atoms: C_12  and  C_13 
REMARK    5  A    between atoms: C_13  and  C_16 
REMARK    6  A    between atoms: C_16  and  C_18 
ROOT
HETATM    1  H           1      -2.403  -0.291   0.128  0.00  0.00     0.163 HD
HETATM    2  O           1       0.386   0.426  -1.116  0.00  0.00    -0.271 OA
HETATM    3  N           1      -1.745   0.093  -0.538  0.00  0.00    -0.345 N 
HETATM    4  C           1      -0.399  -0.032  -0.320  0.00  0.00     0.249 C 
ENDROOT
BRANCH   4   5
HETATM    5  C           1       0.103  -0.743   0.912  0.00  0.00     0.278 C 
BRANCH   5   6
HETATM    6  N           1      -0.397  -2.157   0.912  0.00  0.00    -0.066 N 
HETATM    7  H           1      -0.048  -2.650   0.059  0.00  0.00     0.275 HD
HETATM    8  H           1      -1.442  -2.157   0.912  0.00  0.00     0.275 HD
HETATM    9  H           1      -0.050  -2.650   1.765  0.00  0.00     0.275 HD
ENDBRANCH   5   6
BRANCH   5  10
HETATM   10  C           1       1.626  -0.744   0.914  0.00  0.00     0.021 C 
HETATM   11  C           1       2.135  -1.463  -0.329  0.00  0.00     0.012 C 
BRANCH  10  12
HETATM   12  C           1       2.134   0.692   0.912  0.00  0.00     0.002 C 
HETATM   13  C           1       2.979   0.934   2.156  0.00  0.00     0.005 C 
ENDBRANCH  10  12
ENDBRANCH   5  10
ENDBRANCH   4   5
BRANCH   3  14
HETATM   14  C           1      -2.228   0.776  -1.722  0.00  0.00     0.181 C 
HETATM   15  C           1      -3.751   0.776  -1.722  0.00  0.00     0.043 C 
BRANCH  14  16
HETATM   16  C           1      -1.724   2.198  -1.722  0.00  0.00     0.196 C 
HETATM   17  O           1      -2.536   3.149  -1.722  0.00  0.00    -0.646 OA
HETATM   18  O           1      -0.495   2.426  -1.722  0.00  0.00    -0.646 OA
ENDBRANCH  14  16
ENDBRANCH   3  14
TORSDOF 6
