REMARK  9 active torsions:
REMARK  status: ('A' for Active; 'I' for Inactive)
REMARK       I    between atoms: C_1  and  N_7 
REMARK    1  A    between atoms: C_1  and  C_3 
REMARK    2  A    between atoms: C_2  and  C_8 
REMARK    3  A    between atoms: C_2  and  C_17 
REMARK    4  A    between atoms: C_2  and  N_7 
REMARK    5  A    between atoms: C_3  and  C_4 
REMARK    6  A    between atoms: C_3  and  N_20 
REMARK    7  A    between atoms: C_4  and  C_13 
REMARK    8  A    between atoms: C_8  and  C_9 
REMARK    9  A    between atoms: C_9  and  Se_10 
ROOT
HETATM    1  C           1       0.273  -0.361  -0.532  0.00  0.00     0.249 C 
HETATM    2  N           1      -0.455   0.368   0.369  0.00  0.00    -0.345 N 
HETATM    3  H           1      -1.441   0.530   0.210  0.00  0.00     0.163 HD
HETATM    4  O           1       1.450  -0.555  -0.342  0.00  0.00    -0.271 OA
ENDROOT
BRANCH   1   5
HETATM    5  C           1      -0.395  -0.923  -1.763  0.00  0.00     0.278 C 
BRANCH   5   6
HETATM    6  C           1       0.628  -1.687  -2.594  0.00  0.00     0.021 C 
HETATM    7  C           1       1.750  -0.744  -3.011  0.00  0.00     0.012 C 
BRANCH   6   8
HETATM    8  C           1       1.206  -2.826  -1.764  0.00  0.00     0.002 C 
HETATM    9  C           1       0.916  -4.153  -2.452  0.00  0.00     0.005 C 
ENDBRANCH   6   8
ENDBRANCH   5   6
BRANCH   5  10
HETATM   10  N           1      -0.962   0.200  -2.580  0.00  0.00    -0.066 N 
HETATM   11  H           1      -1.425  -0.188  -3.433  0.00  0.00     0.275 HD
HETATM   12  H           1      -0.192   0.847  -2.865  0.00  0.00     0.275 HD
HETATM   13  H           1      -1.665   0.724  -2.010  0.00  0.00     0.275 HD
ENDBRANCH   5  10
ENDBRANCH   1   5
BRANCH   2  14
HETATM   14  C           1       0.187   0.907   1.552  0.00  0.00     0.185 C 
BRANCH  14  15
HETATM   15  C           1      -0.837   1.671   2.381  0.00  0.00     0.036 C 
BRANCH  15  16
HETATM   16  C           1      -0.164   2.237   3.624  0.00  0.00     0.003 C 
BRANCH  16  17
HETATM   17 Se           1      -0.327   4.180   3.624  0.00  0.00     0.000 Se
HETATM   18  C           1      -2.276   4.180   3.624  0.00  0.00     0.000 C 
ENDBRANCH  16  17
ENDBRANCH  15  16
ENDBRANCH  14  15
BRANCH  14  19
HETATM   19  C           1       0.759  -0.222   2.373  0.00  0.00     0.196 C 
HETATM   20  O           1       0.368  -0.402   3.547  0.00  0.00    -0.646 OA
HETATM   21  O           1       1.623  -0.979   1.879  0.00  0.00    -0.646 OA
ENDBRANCH  14  19
ENDBRANCH   2  14
TORSDOF 9
