REMARK  10 active torsions:
REMARK  status: ('A' for Active; 'I' for Inactive)
REMARK       I    between atoms: C_4  and  N_5 
REMARK    1  A    between atoms: C_4  and  C_19 
REMARK    2  A    between atoms: N_5  and  C_8 
REMARK    3  A    between atoms: C_8  and  C_20 
REMARK    4  A    between atoms: C_8  and  C_9 
REMARK    5  A    between atoms: N_10  and  C_11 
REMARK    6  A    between atoms: C_11  and  C_21 
REMARK    7  A    between atoms: C_13  and  C_18 
REMARK    8  A    between atoms: N_15  and  C_19 
REMARK    9  A    between atoms: C_18  and  C_19 
REMARK   10  A    between atoms: C_20  and  C_21 
ROOT
HETATM    1  C           1       0.342   0.486   0.709  0.00  0.00     0.249 C 
HETATM    2  N           1      -0.547  -0.035  -0.192  0.00  0.00    -0.345 N 
HETATM    3  O           1       1.530   0.374   0.519  0.00  0.00    -0.271 OA
HETATM    4  H           1      -1.542   0.058  -0.033  0.00  0.00     0.163 HD
ENDROOT
BRANCH   2   5
HETATM    5  C           1      -0.063  -0.720  -1.375  0.00  0.00     0.185 C 
BRANCH   5   6
HETATM    6  C           1      -1.247  -1.198  -2.204  0.00  0.00     0.038 C 
BRANCH   6   7
HETATM    7  C           1      -0.740  -1.917  -3.448  0.00  0.00     0.030 C 
BRANCH   7   8
HETATM    8  C           1      -1.249  -3.353  -3.448  0.00  0.00     0.230 C 
BRANCH   8   9
HETATM    9  N           1      -2.749  -3.353  -3.448  0.00  0.00    -0.079 N 
HETATM   10  H           1      -3.097  -2.860  -4.301  0.00  0.00     0.274 HD
HETATM   11  H           1      -3.096  -2.861  -2.594  0.00  0.00     0.274 HD
HETATM   12  H           1      -3.097  -4.338  -3.448  0.00  0.00     0.274 HD
ENDBRANCH   8   9
ENDBRANCH   7   8
ENDBRANCH   6   7
ENDBRANCH   5   6
BRANCH   5  13
HETATM   13  C           1       0.777   0.228  -2.196  0.00  0.00     0.196 C 
HETATM   14  O           1       1.805   0.740  -1.702  0.00  0.00    -0.646 OA
HETATM   15  O           1       0.445   0.501  -3.370  0.00  0.00    -0.646 OA
ENDBRANCH   5  13
ENDBRANCH   2   5
BRANCH   1  16
HETATM   16  C           1      -0.161   1.198   1.940  0.00  0.00     0.278 C 
BRANCH  16  17
HETATM   17  N           1      -0.995   0.256   2.757  0.00  0.00    -0.066 N 
HETATM   18  H           1      -1.808  -0.072   2.187  0.00  0.00     0.275 HD
HETATM   19  H           1      -0.414  -0.565   3.042  0.00  0.00     0.275 HD
HETATM   20  H           1      -1.344   0.749   3.609  0.00  0.00     0.275 HD
ENDBRANCH  16  17
BRANCH  16  21
HETATM   21  C           1       1.022   1.677   2.770  0.00  0.00     0.021 C 
HETATM   22  C           1       1.868   0.481   3.188  0.00  0.00     0.012 C 
BRANCH  21  23
HETATM   23  C           1       1.870   2.633   1.941  0.00  0.00     0.002 C 
HETATM   24  C           1       1.927   3.990   2.629  0.00  0.00     0.005 C 
ENDBRANCH  21  23
ENDBRANCH  16  21
ENDBRANCH   1  16
TORSDOF 10
