REMARK  10 active torsions:
REMARK  status: ('A' for Active; 'I' for Inactive)
REMARK    1  A    between atoms: C_1  and  C_6 
REMARK    2  A    between atoms: N_5  and  C_20 
REMARK       I    between atoms: N_5  and  C_24 
REMARK    3  A    between atoms: C_6  and  C_12 
REMARK    4  A    between atoms: C_7  and  C_16 
REMARK    5  A    between atoms: C_7  and  C_20 
REMARK    6  A    between atoms: C_8  and  N_15 
REMARK    7  A    between atoms: C_8  and  C_16 
REMARK    8  A    between atoms: C_12  and  C_24 
REMARK    9  A    between atoms: C_12  and  N_17 
REMARK   10  A    between atoms: C_14  and  C_20 
ROOT
HETATM    1  N           1      -0.613   0.446  -0.472  0.00  0.00    -0.345 N 
HETATM    2  O           1       1.464   0.855   0.240  0.00  0.00    -0.271 OA
HETATM    3  H           1      -1.608   0.539  -0.313  0.00  0.00     0.163 HD
HETATM    4  C           1       0.276   0.966   0.430  0.00  0.00     0.249 C 
ENDROOT
BRANCH   1   5
HETATM    5  C           1      -0.129  -0.239  -1.655  0.00  0.00     0.185 C 
BRANCH   5   6
HETATM    6  C           1      -1.314  -0.717  -2.484  0.00  0.00     0.038 C 
BRANCH   6   7
HETATM    7  C           1      -0.807  -1.436  -3.727  0.00  0.00     0.030 C 
BRANCH   7   8
HETATM    8  C           1      -1.315  -2.872  -3.727  0.00  0.00     0.230 C 
BRANCH   8   9
HETATM    9  N           1      -2.815  -2.872  -3.727  0.00  0.00    -0.079 N 
HETATM   10  H           1      -3.163  -2.380  -2.873  0.00  0.00     0.274 HD
HETATM   11  H           1      -3.164  -3.857  -3.727  0.00  0.00     0.274 HD
HETATM   12  H           1      -3.163  -2.379  -4.580  0.00  0.00     0.274 HD
ENDBRANCH   8   9
ENDBRANCH   7   8
ENDBRANCH   6   7
ENDBRANCH   5   6
BRANCH   5  13
HETATM   13  C           1       0.710   0.709  -2.476  0.00  0.00     0.196 C 
HETATM   14  O           1       1.738   1.221  -1.982  0.00  0.00    -0.646 OA
HETATM   15  O           1       0.378   0.981  -3.649  0.00  0.00    -0.646 OA
ENDBRANCH   5  13
ENDBRANCH   1   5
BRANCH   4  16
HETATM   16  C           1      -0.228   1.679   1.661  0.00  0.00     0.275 C 
BRANCH  16  17
HETATM   17  C           1       0.956   2.158   2.491  0.00  0.00     0.046 C 
BRANCH  17  18
HETATM   18  C           1       1.801   0.962   2.908  0.00  0.00    -0.020 C 
HETATM   19  C           1       3.256   1.392   3.048  0.00  0.00     0.009 C 
HETATM   20  C           1       1.300   0.428   4.243  0.00  0.00     0.009 C 
ENDBRANCH  17  18
ENDBRANCH  16  17
BRANCH  16  21
HETATM   21  N           1      -1.062   0.737   2.477  0.00  0.00    -0.066 N 
HETATM   22  H           1      -1.411   1.229   3.330  0.00  0.00     0.275 HD
HETATM   23  H           1      -1.874   0.409   1.908  0.00  0.00     0.275 HD
HETATM   24  H           1      -0.481  -0.084   2.763  0.00  0.00     0.275 HD
ENDBRANCH  16  21
ENDBRANCH   4  16
TORSDOF 10
