REMARK  10 active torsions:
REMARK  status: ('A' for Active; 'I' for Inactive)
REMARK    1  A    between atoms: C_1  and  C_10 
REMARK    2  A    between atoms: C_1  and  O_18 
REMARK       I    between atoms: C_2  and  N_9 
REMARK    3  A    between atoms: C_2  and  C_20 
REMARK    4  A    between atoms: C_3  and  C_20 
REMARK    5  A    between atoms: C_3  and  C_4 
REMARK    6  A    between atoms: N_9  and  C_10 
REMARK    7  A    between atoms: C_10  and  C_15 
REMARK    8  A    between atoms: O_12  and  P_19 
REMARK    9  A    between atoms: N_13  and  C_20 
REMARK   10  A    between atoms: O_18  and  P_19 
ROOT
HETATM    1  C           1       0.905  -0.838   0.523  0.00  0.00     0.249 C 
HETATM    2  H           1       0.127  -2.703   0.075  0.00  0.00     0.163 HD
HETATM    3  N           1       0.123  -1.941   0.741  0.00  0.00    -0.343 N 
HETATM    4  O           1       0.901   0.072   1.318  0.00  0.00    -0.271 OA
ENDROOT
BRANCH   3   5
HETATM    5  C           1      -0.709  -2.017   1.925  0.00  0.00     0.210 C 
BRANCH   5   6
HETATM    6  C           1      -1.698  -0.859   1.925  0.00  0.00     0.217 C 
BRANCH   6   7
HETATM    7  O           1      -2.505  -0.932   0.781  0.00  0.00    -0.287 OA
BRANCH   7   8
HETATM    8  P           1      -3.616   0.228   0.622  0.00  0.00     0.406 P 
HETATM    9  O           1      -4.539   0.188   1.779  0.00  0.00    -0.624 OA
HETATM   10  O           1      -2.949   1.548   0.570  0.00  0.00    -0.624 OA
BRANCH   8  11
HETATM   11  O           1      -4.449  -0.007  -0.741  0.00  0.00    -0.300 OA
HETATM   12  H           1      -5.073   0.698  -0.770  0.00  0.00     0.223 HD
ENDBRANCH   8  11
ENDBRANCH   7   8
ENDBRANCH   6   7
ENDBRANCH   5   6
BRANCH   5  13
HETATM   13  C           1      -1.464  -3.324   1.925  0.00  0.00     0.198 C 
HETATM   14  O           1      -0.839  -4.407   1.925  0.00  0.00    -0.646 OA
HETATM   15  O           1      -2.714  -3.324   1.925  0.00  0.00    -0.646 OA
ENDBRANCH   5  13
ENDBRANCH   3   5
BRANCH   1  16
HETATM   16  C           1       1.771  -0.758  -0.709  0.00  0.00     0.275 C 
BRANCH  16  17
HETATM   17  C           1       2.534   0.560  -0.711  0.00  0.00     0.046 C 
BRANCH  17  18
HETATM   18  C           1       1.545   1.719  -0.710  0.00  0.00    -0.020 C 
HETATM   19  C           1       2.162   2.913   0.006  0.00  0.00     0.009 C 
HETATM   20  C           1       1.215   2.105  -2.146  0.00  0.00     0.009 C 
ENDBRANCH  17  18
ENDBRANCH  16  17
BRANCH  16  21
HETATM   21  N           1       0.907  -0.837  -1.933  0.00  0.00    -0.066 N 
HETATM   22  H           1       1.507  -0.782  -2.787  0.00  0.00     0.275 HD
HETATM   23  H           1       0.385  -1.742  -1.932  0.00  0.00     0.275 HD
HETATM   24  H           1       0.229  -0.042  -1.932  0.00  0.00     0.275 HD
ENDBRANCH  16  21
ENDBRANCH   1  16
TORSDOF 10
