REMARK  10 active torsions:
REMARK  status: ('A' for Active; 'I' for Inactive)
REMARK    1  A    between atoms: C_5  and  C_25 
REMARK    2  A    between atoms: C_5  and  C_14 
REMARK    3  A    between atoms: C_6  and  C_14 
REMARK    4  A    between atoms: N_7  and  C_14 
REMARK       I    between atoms: N_7  and  C_8 
REMARK    5  A    between atoms: C_8  and  C_9 
REMARK    6  A    between atoms: C_9  and  C_27 
REMARK    7  A    between atoms: C_9  and  N_21 
REMARK       I    between atoms: N_12  and  C_15 
REMARK    8  A    between atoms: N_12  and  C_29 
REMARK       I    between atoms: N_13  and  C_15 
REMARK    9  A    between atoms: C_25  and  C_29 
REMARK   10  A    between atoms: C_26  and  C_27 
ROOT
HETATM    1  C           1       2.095   0.226   0.599  0.00  0.00     0.185 C 
ENDROOT
BRANCH   1   2
HETATM    2  C           1       2.941  -0.971   1.014  0.00  0.00     0.038 C 
BRANCH   2   3
HETATM    3  C           1       2.095  -1.928   1.843  0.00  0.00     0.023 C 
BRANCH   3   4
HETATM    4  C           1       1.586  -1.210   3.087  0.00  0.00     0.138 C 
BRANCH   4   5
HETATM    5  N           1       0.116  -1.210   3.087  0.00  0.00    -0.227 N 
HETATM    6  H           1      -0.409  -0.301   3.087  0.00  0.00     0.177 HD
HETATM    7  C           1      -0.517  -2.306   3.087  0.00  0.00     0.665 C 
HETATM    8  N           1       0.116  -3.403   3.087  0.00  0.00    -0.235 N 
HETATM    9  N           1      -1.817  -2.306   3.087  0.00  0.00    -0.235 N 
HETATM   10  H           1       1.166  -3.403   3.087  0.00  0.00     0.174 HD
HETATM   11  H           1      -0.409  -4.312   3.087  0.00  0.00     0.174 HD
HETATM   12  H           1      -2.339  -1.401   3.087  0.00  0.00     0.174 HD
HETATM   13  H           1      -2.339  -3.211   3.087  0.00  0.00     0.174 HD
ENDBRANCH   4   5
ENDBRANCH   3   4
ENDBRANCH   2   3
ENDBRANCH   1   2
BRANCH   1  14
HETATM   14  C           1       2.978   1.442   0.461  0.00  0.00     0.196 C 
HETATM   15  O           1       2.481   2.540   0.126  0.00  0.00    -0.646 OA
HETATM   16  O           1       4.205   1.353   0.683  0.00  0.00    -0.646 OA
ENDBRANCH   1  14
BRANCH   1  17
HETATM   17  N           1       1.456  -0.053  -0.673  0.00  0.00    -0.345 N 
HETATM   18  C           1       0.641   0.884  -1.249  0.00  0.00     0.249 C 
HETATM   19  O           1       0.454   1.943  -0.699  0.00  0.00    -0.271 OA
HETATM   20  H           1       1.613  -0.940  -1.134  0.00  0.00     0.163 HD
BRANCH  18  21
HETATM   21  C           1      -0.024   0.594  -2.572  0.00  0.00     0.275 C 
BRANCH  21  22
HETATM   22  C           1      -0.870   1.790  -2.989  0.00  0.00     0.046 C 
BRANCH  22  23
HETATM   23  C           1      -1.935   2.052  -1.933  0.00  0.00    -0.020 C 
HETATM   24  C           1      -3.191   1.261  -2.273  0.00  0.00     0.009 C 
HETATM   25  C           1      -2.265   3.538  -1.901  0.00  0.00     0.009 C 
ENDBRANCH  22  23
ENDBRANCH  21  22
BRANCH  21  26
HETATM   26  N           1      -0.901  -0.615  -2.436  0.00  0.00    -0.066 N 
HETATM   27  H           1      -0.321  -1.436  -2.150  0.00  0.00     0.275 HD
HETATM   28  H           1      -1.632  -0.435  -1.710  0.00  0.00     0.275 HD
HETATM   29  H           1      -1.362  -0.817  -3.351  0.00  0.00     0.275 HD
ENDBRANCH  21  26
ENDBRANCH  18  21
ENDBRANCH   1  17
TORSDOF 10
