REMARK  6 active torsions:
REMARK  status: ('A' for Active; 'I' for Inactive)
REMARK    1  A    between atoms: C_1  and  C_15 
REMARK    2  A    between atoms: N_6  and  C_13 
REMARK    3  A    between atoms: N_7  and  C_15 
REMARK       I    between atoms: N_7  and  C_17 
REMARK    4  A    between atoms: C_13  and  C_17 
REMARK    5  A    between atoms: C_13  and  C_14 
REMARK    6  A    between atoms: C_14  and  C_16 
ROOT
HETATM    1  C           1      -0.921   0.305  -0.710  0.00  0.00     0.275 C 
ENDROOT
BRANCH   1   2
HETATM    2  N           1      -1.783   0.225   0.515  0.00  0.00    -0.066 N 
HETATM    3  H           1      -2.462   1.020   0.516  0.00  0.00     0.275 HD
HETATM    4  H           1      -2.306  -0.679   0.515  0.00  0.00     0.275 HD
HETATM    5  H           1      -1.181   0.281   1.368  0.00  0.00     0.275 HD
ENDBRANCH   1   2
BRANCH   1   6
HETATM    6  C           1       0.059  -0.843  -0.710  0.00  0.00     0.248 C 
HETATM    7  O           1       1.247  -0.623  -0.710  0.00  0.00    -0.271 OA
HETATM    8  N           1      -0.398  -2.133  -0.710  0.00  0.00    -0.349 N 
HETATM    9  H           1      -1.393  -2.318  -0.710  0.00  0.00     0.163 HD
BRANCH   8  10
HETATM   10  C           1       0.544  -3.236  -0.710  0.00  0.00     0.235 C 
BRANCH  10  11
HETATM   11  C           1      -0.211  -4.543  -0.710  0.00  0.00     0.191 C 
HETATM   12  O           1      -1.461  -4.543  -0.710  0.00  0.00    -0.647 OA
HETATM   13  O           1       0.414  -5.625  -0.710  0.00  0.00    -0.647 OA
ENDBRANCH  10  11
ENDBRANCH   8  10
ENDBRANCH   1   6
BRANCH   1  14
HETATM   14  C           1      -0.160   1.624  -0.710  0.00  0.00     0.046 C 
BRANCH  14  15
HETATM   15  C           1       0.716   1.705   0.533  0.00  0.00    -0.020 C 
HETATM   16  C           1      -0.069   2.355   1.665  0.00  0.00     0.009 C 
HETATM   17  C           1       1.953   2.540   0.230  0.00  0.00     0.009 C 
ENDBRANCH  14  15
ENDBRANCH   1  14
TORSDOF 6
