REMARK  8 active torsions:
REMARK  status: ('A' for Active; 'I' for Inactive)
REMARK    1  A    between atoms: N_2  and  C_7 
REMARK       I    between atoms: N_2  and  C_3 
REMARK    2  A    between atoms: C_3  and  C_14 
REMARK    3  A    between atoms: Se_4  and  C_5 
REMARK    4  A    between atoms: C_5  and  C_7 
REMARK    5  A    between atoms: C_7  and  C_20 
REMARK    6  A    between atoms: N_11  and  C_14 
REMARK    7  A    between atoms: C_14  and  C_19 
REMARK    8  A    between atoms: C_17  and  C_19 
ROOT
HETATM    1  N           1      -0.860  -1.420   0.508  0.00  0.00    -0.345 N 
HETATM    2  C           1      -0.174  -0.235   0.508  0.00  0.00     0.249 C 
HETATM    3  O           1      -0.777   0.811   0.508  0.00  0.00    -0.271 OA
HETATM    4  H           1      -0.355  -2.297   0.509  0.00  0.00     0.163 HD
ENDROOT
BRANCH   2   5
HETATM    5  C           1       1.335  -0.237   0.509  0.00  0.00     0.275 C 
BRANCH   5   6
HETATM    6  N           1       1.834  -0.944  -0.716  0.00  0.00    -0.066 N 
HETATM    7  H           1       1.486  -0.451  -1.569  0.00  0.00     0.275 HD
HETATM    8  H           1       2.879  -0.946  -0.716  0.00  0.00     0.275 HD
HETATM    9  H           1       1.485  -1.929  -0.715  0.00  0.00     0.275 HD
ENDBRANCH   5   6
BRANCH   5  10
HETATM   10  C           1       1.845   1.198   0.509  0.00  0.00     0.046 C 
BRANCH  10  11
HETATM   11  C           1       1.339   1.917  -0.734  0.00  0.00    -0.020 C 
HETATM   12  C           1       2.344   1.741  -1.865  0.00  0.00     0.009 C 
HETATM   13  C           1       1.172   3.400  -0.431  0.00  0.00     0.009 C 
ENDBRANCH  10  11
ENDBRANCH   5  10
ENDBRANCH   2   5
BRANCH   1  14
HETATM   14  C           1      -2.310  -1.419   0.507  0.00  0.00     0.185 C 
BRANCH  14  15
HETATM   15  C           1      -2.818  -2.855   0.507  0.00  0.00     0.039 C 
BRANCH  15  16
HETATM   16 Se           1      -4.767  -2.855   0.507  0.00  0.00     0.000 Se
HETATM   17  H           1      -4.883  -4.322   0.507  0.00  0.00     0.000 HD
ENDBRANCH  15  16
ENDBRANCH  14  15
BRANCH  14  18
HETATM   18  C           1      -2.812  -0.707   1.739  0.00  0.00     0.196 C 
HETATM   19  O           1      -3.531  -1.313   2.562  0.00  0.00    -0.646 OA
HETATM   20  O           1      -2.509   0.490   1.937  0.00  0.00    -0.646 OA
ENDBRANCH  14  18
ENDBRANCH   1  14
TORSDOF 8
