REMARK  11 active torsions:
REMARK  status: ('A' for Active; 'I' for Inactive)
REMARK    1  A    between atoms: C_4  and  O_5 
REMARK    2  A    between atoms: O_5  and  P_24 
REMARK    3  A    between atoms: C_6  and  C_22 
REMARK    4  A    between atoms: C_6  and  C_9 
REMARK    5  A    between atoms: C_6  and  N_28 
REMARK    6  A    between atoms: C_9  and  C_25 
REMARK    7  A    between atoms: N_12  and  C_18 
REMARK    8  A    between atoms: C_15  and  C_17 
REMARK    9  A    between atoms: C_17  and  C_18 
REMARK   10  A    between atoms: C_18  and  C_27 
REMARK   11  A    between atoms: P_24  and  O_30 
REMARK       I    between atoms: C_27  and  N_28 
ROOT
HETATM    1  C           1       2.529   1.232  -1.674  0.00  0.00     0.189 C 
ENDROOT
BRANCH   1   2
HETATM    2  C           1       3.389   2.032  -2.622  0.00  0.00     0.197 C 
HETATM    3  O           1       2.871   2.908  -3.348  0.00  0.00    -0.646 OA
HETATM    4  O           1       4.619   1.818  -2.681  0.00  0.00    -0.646 OA
ENDBRANCH   1   2
BRANCH   1   5
HETATM    5  C           1       1.080   1.686  -1.797  0.00  0.00     0.074 C 
BRANCH   5   6
HETATM    6  C           1       0.170   0.537  -1.493  0.00  0.00    -0.056 A 
HETATM    7  C           1       0.704  -0.708  -1.160  0.00  0.00     0.010 A 
HETATM    8  C           1      -0.144  -1.778  -0.876  0.00  0.00     0.038 A 
HETATM    9  C           1      -1.527  -1.603  -0.925  0.00  0.00     0.081 A 
HETATM   10  C           1      -2.062  -0.359  -1.257  0.00  0.00     0.038 A 
HETATM   11  C           1      -1.213   0.712  -1.541  0.00  0.00     0.010 A 
BRANCH   9  12
HETATM   12  O           1      -2.351  -2.643  -0.649  0.00  0.00    -0.247 OA
BRANCH  12  13
HETATM   13  P           1      -3.944  -2.387  -0.720  0.00  0.00     0.411 P 
HETATM   14  O           1      -4.660  -3.639  -0.387  0.00  0.00    -0.624 OA
HETATM   15  O           1      -4.319  -1.333   0.249  0.00  0.00    -0.624 OA
BRANCH  13  16
HETATM   16  O           1      -4.347  -1.915  -2.211  0.00  0.00    -0.300 OA
HETATM   17  H           1      -5.280  -1.784  -2.181  0.00  0.00     0.223 HD
ENDBRANCH  13  16
ENDBRANCH  12  13
ENDBRANCH   9  12
ENDBRANCH   5   6
ENDBRANCH   1   5
BRANCH   1  18
HETATM   18  N           1       2.986   1.442  -0.314  0.00  0.00    -0.344 N 
HETATM   19  H           1       3.773   2.052  -0.133  0.00  0.00     0.163 HD
HETATM   20  C           1       2.354   0.814   0.725  0.00  0.00     0.249 C 
HETATM   21  O           1       2.726  -0.276   1.089  0.00  0.00    -0.271 OA
BRANCH  20  22
HETATM   22  C           1       1.191   1.483   1.415  0.00  0.00     0.275 C 
BRANCH  22  23
HETATM   23  N           1       0.095   1.731   0.421  0.00  0.00    -0.066 N 
HETATM   24  H           1      -0.711   2.195   0.898  0.00  0.00     0.275 HD
HETATM   25  H           1       0.451   2.351  -0.342  0.00  0.00     0.275 HD
HETATM   26  H           1      -0.218   0.821   0.014  0.00  0.00     0.275 HD
ENDBRANCH  22  23
BRANCH  22  27
HETATM   27  C           1       0.672   0.581   2.527  0.00  0.00     0.046 C 
BRANCH  27  28
HETATM   28  C           1       0.214  -0.745   1.934  0.00  0.00    -0.020 C 
HETATM   29  C           1      -1.258  -0.650   1.556  0.00  0.00     0.009 C 
HETATM   30  C           1       0.404  -1.853   2.960  0.00  0.00     0.009 C 
ENDBRANCH  27  28
ENDBRANCH  22  27
ENDBRANCH  20  22
ENDBRANCH   1  18
TORSDOF 11
