REMARK  8 active torsions:
REMARK  status: ('A' for Active; 'I' for Inactive)
REMARK       I    between atoms: C_2  and  N_11 
REMARK    1  A    between atoms: C_2  and  C_12 
REMARK    2  A    between atoms: N_5  and  C_22 
REMARK       I    between atoms: N_5  and  C_23 
REMARK    3  A    between atoms: C_6  and  C_7 
REMARK    4  A    between atoms: C_6  and  C_19 
REMARK    5  A    between atoms: C_7  and  C_23 
REMARK    6  A    between atoms: C_7  and  N_14 
REMARK    7  A    between atoms: C_12  and  C_22 
REMARK    8  A    between atoms: C_21  and  C_22 
ROOT
HETATM    1  H           1       1.770  -0.946   0.467  0.00  0.00     0.163 HD
HETATM    2  N           1       0.758  -0.945   0.466  0.00  0.00    -0.344 N 
HETATM    3  O           1      -1.133   0.243   0.466  0.00  0.00    -0.271 OA
HETATM    4  C           1       0.075   0.242   0.466  0.00  0.00     0.249 C 
ENDROOT
BRANCH   2   5
HETATM    5  C           1       0.032  -2.200   0.465  0.00  0.00     0.194 C 
BRANCH   5   6
HETATM    6  C           1       1.021  -3.358   0.465  0.00  0.00     0.138 C 
BRANCH   6   7
HETATM    7  C           1       0.267  -4.665   0.465  0.00  0.00     0.217 C 
HETATM    8  O           1      -0.941  -4.665   0.465  0.00  0.00    -0.274 OA
HETATM    9  N           1       0.951  -5.850   0.465  0.00  0.00    -0.370 N 
HETATM   10  H           1       1.963  -5.850   0.465  0.00  0.00     0.159 HD
HETATM   11  H           1       0.445  -6.727   0.465  0.00  0.00     0.159 HD
ENDBRANCH   6   7
ENDBRANCH   5   6
BRANCH   5  12
HETATM   12  C           1      -0.836  -2.279   1.697  0.00  0.00     0.197 C 
HETATM   13  O           1      -1.721  -1.418   1.894  0.00  0.00    -0.646 OA
HETATM   14  O           1      -0.670  -3.205   2.520  0.00  0.00    -0.646 OA
ENDBRANCH   5  12
ENDBRANCH   2   5
BRANCH   4  15
HETATM   15  C           1       0.831   1.548   0.467  0.00  0.00     0.275 C 
BRANCH  15  16
HETATM   16  C           1      -0.157   2.707   0.467  0.00  0.00     0.046 C 
BRANCH  16  17
HETATM   17  C           1      -1.033   2.628  -0.777  0.00  0.00    -0.020 C 
HETATM   18  C           1      -0.377   3.410  -1.908  0.00  0.00     0.009 C 
HETATM   19  C           1      -2.401   3.225  -0.474  0.00  0.00     0.009 C 
ENDBRANCH  16  17
ENDBRANCH  15  16
BRANCH  15  20
HETATM   20  N           1       1.693   1.626  -0.758  0.00  0.00    -0.066 N 
HETATM   21  H           1       1.092   1.572  -1.611  0.00  0.00     0.275 HD
HETATM   22  H           1       2.371   0.831  -0.758  0.00  0.00     0.275 HD
HETATM   23  H           1       2.217   2.531  -0.758  0.00  0.00     0.275 HD
ENDBRANCH  15  20
ENDBRANCH   4  15
TORSDOF 8
