REMARK  11 active torsions:
REMARK  status: ('A' for Active; 'I' for Inactive)
REMARK    1  A    between atoms: C_1  and  C_21 
REMARK    2  A    between atoms: C_6  and  C_13 
REMARK    3  A    between atoms: C_6  and  C_7 
REMARK    4  A    between atoms: C_9  and  N_14 
REMARK    5  A    between atoms: C_9  and  C_10 
REMARK    6  A    between atoms: C_10  and  C_19 
REMARK    7  A    between atoms: N_12  and  C_13 
REMARK    8  A    between atoms: C_13  and  C_22 
REMARK    9  A    between atoms: C_19  and  C_20 
REMARK   10  A    between atoms: C_20  and  C_21 
REMARK   11  A    between atoms: C_21  and  N_23 
REMARK       I    between atoms: C_22  and  N_23 
ROOT
HETATM    1  H           1      -0.635  -1.225  -0.098  0.00  0.00     0.163 HD
HETATM    2  O           1      -0.210   1.884  -0.099  0.00  0.00    -0.271 OA
HETATM    3  C           1      -0.814   0.837  -0.099  0.00  0.00     0.249 C 
HETATM    4  N           1      -0.129  -0.348  -0.098  0.00  0.00    -0.345 N 
ENDROOT
BRANCH   4   5
HETATM    5  C           1       1.321  -0.348  -0.098  0.00  0.00     0.185 C 
BRANCH   5   6
HETATM    6  C           1       1.823   0.363  -1.331  0.00  0.00     0.196 C 
HETATM    7  O           1       1.521   1.560  -1.528  0.00  0.00    -0.646 OA
HETATM    8  O           1       2.541  -0.245  -2.154  0.00  0.00    -0.646 OA
ENDBRANCH   5   6
BRANCH   5   9
HETATM    9  C           1       1.828  -1.784  -0.098  0.00  0.00     0.036 C 
BRANCH   9  10
HETATM   10  C           1       3.351  -1.786  -0.099  0.00  0.00     0.004 C 
BRANCH  10  11
HETATM   11  C           1       3.858  -2.505  -1.342  0.00  0.00     0.027 C 
BRANCH  11  12
HETATM   12  C           1       3.349  -3.940  -1.342  0.00  0.00     0.229 C 
BRANCH  12  13
HETATM   13  N           1       1.849  -3.940  -1.342  0.00  0.00    -0.079 N 
HETATM   14  H           1       1.501  -3.448  -2.196  0.00  0.00     0.274 HD
HETATM   15  H           1       1.500  -4.925  -1.342  0.00  0.00     0.274 HD
HETATM   16  H           1       1.501  -3.448  -0.489  0.00  0.00     0.274 HD
ENDBRANCH  12  13
ENDBRANCH  11  12
ENDBRANCH  10  11
ENDBRANCH   9  10
ENDBRANCH   5   9
ENDBRANCH   4   5
BRANCH   3  17
HETATM   17  C           1      -2.323   0.837  -0.099  0.00  0.00     0.275 C 
BRANCH  17  18
HETATM   18  C           1      -2.831   2.273  -0.099  0.00  0.00     0.046 C 
BRANCH  18  19
HETATM   19  C           1      -2.324   2.992   1.144  0.00  0.00    -0.020 C 
HETATM   20  C           1      -2.156   4.475   0.841  0.00  0.00     0.009 C 
HETATM   21  C           1      -3.328   2.817   2.276  0.00  0.00     0.009 C 
ENDBRANCH  18  19
ENDBRANCH  17  18
BRANCH  17  22
HETATM   22  N           1      -2.822   0.131   1.127  0.00  0.00    -0.066 N 
HETATM   23  H           1      -3.867   0.131   1.128  0.00  0.00     0.275 HD
HETATM   24  H           1      -2.474  -0.854   1.127  0.00  0.00     0.275 HD
HETATM   25  H           1      -2.473   0.625   1.979  0.00  0.00     0.275 HD
ENDBRANCH  17  22
ENDBRANCH   3  17
TORSDOF 11
