REMARK  6 active torsions:
REMARK  status: ('A' for Active; 'I' for Inactive)
REMARK    1  A    between atoms: N_1  and  C_12 
REMARK    2  A    between atoms: C_5  and  C_6 
REMARK    3  A    between atoms: C_5  and  N_18 
REMARK       I    between atoms: C_11  and  N_18 
REMARK    4  A    between atoms: C_11  and  C_12 
REMARK    5  A    between atoms: C_12  and  C_13 
REMARK    6  A    between atoms: C_13  and  C_14 
ROOT
HETATM    1  O           1       0.318   1.017  -0.714  0.00  0.00    -0.271 OA
HETATM    2  H           1      -2.471   0.300   0.530  0.00  0.00     0.163 HD
HETATM    3  C           1      -0.467   0.559   0.081  0.00  0.00     0.249 C 
HETATM    4  N           1      -1.813   0.684  -0.136  0.00  0.00    -0.345 N 
ENDROOT
BRANCH   3   5
HETATM    5  C           1       0.035  -0.152   1.314  0.00  0.00     0.275 C 
BRANCH   5   6
HETATM    6  N           1      -0.465  -1.566   1.314  0.00  0.00    -0.066 N 
HETATM    7  H           1      -0.117  -2.059   2.167  0.00  0.00     0.275 HD
HETATM    8  H           1      -1.510  -1.566   1.313  0.00  0.00     0.275 HD
HETATM    9  H           1      -0.116  -2.059   0.461  0.00  0.00     0.275 HD
ENDBRANCH   5   6
BRANCH   5  10
HETATM   10  C           1       1.558  -0.153   1.315  0.00  0.00     0.046 C 
BRANCH  10  11
HETATM   11  C           1       2.067  -0.872   0.073  0.00  0.00    -0.020 C 
HETATM   12  C           1       3.410  -0.283  -0.341  0.00  0.00     0.009 C 
HETATM   13  C           1       2.236  -2.354   0.379  0.00  0.00     0.009 C 
ENDBRANCH  10  11
ENDBRANCH   5  10
ENDBRANCH   3   5
BRANCH   4  14
HETATM   14  C           1      -2.296   1.367  -1.321  0.00  0.00     0.181 C 
HETATM   15  C           1      -3.819   1.367  -1.321  0.00  0.00     0.043 C 
BRANCH  14  16
HETATM   16  C           1      -1.792   2.789  -1.321  0.00  0.00     0.196 C 
HETATM   17  O           1      -0.563   3.017  -1.321  0.00  0.00    -0.646 OA
HETATM   18  O           1      -2.604   3.740  -1.321  0.00  0.00    -0.646 OA
ENDBRANCH  14  16
ENDBRANCH   4  14
TORSDOF 6
