REMARK  9 active torsions:
REMARK  status: ('A' for Active; 'I' for Inactive)
REMARK    1  A    between atoms: C_1  and  C_10 
REMARK    2  A    between atoms: C_1  and  C_8 
REMARK    3  A    between atoms: C_1  and  N_21 
REMARK    4  A    between atoms: C_2  and  O_3 
REMARK    5  A    between atoms: N_6  and  C_18 
REMARK       I    between atoms: N_6  and  C_10 
REMARK    6  A    between atoms: C_8  and  C_23 
REMARK    7  A    between atoms: C_11  and  C_17 
REMARK    8  A    between atoms: C_17  and  C_18 
REMARK    9  A    between atoms: C_18  and  C_19 
ROOT
HETATM    1  N           1       0.135  -1.321   0.360  0.00  0.00    -0.344 N 
HETATM    2  C           1      -1.146  -0.856   0.494  0.00  0.00     0.249 C 
HETATM    3  O           1      -1.891  -0.858  -0.457  0.00  0.00    -0.271 OA
HETATM    4  H           1       0.760  -1.319   1.156  0.00  0.00     0.163 HD
ENDROOT
BRANCH   1   5
HETATM    5  C           1       0.596  -1.816  -0.922  0.00  0.00     0.189 C 
BRANCH   5   6
HETATM    6  C           1       2.045  -2.269  -0.799  0.00  0.00     0.074 C 
BRANCH   6   7
HETATM    7  C           1       2.956  -1.121  -1.104  0.00  0.00    -0.056 A 
HETATM    8  C           1       2.421   0.124  -1.436  0.00  0.00     0.010 A 
HETATM    9  C           1       3.269   1.194  -1.720  0.00  0.00     0.037 A 
HETATM   10  C           1       4.652   1.020  -1.672  0.00  0.00     0.065 A 
HETATM   11  C           1       5.187  -0.225  -1.339  0.00  0.00     0.037 A 
HETATM   12  C           1       4.339  -1.295  -1.055  0.00  0.00     0.010 A 
BRANCH  10  13
HETATM   13  O           1       5.476   2.059  -1.948  0.00  0.00    -0.361 OA
HETATM   14  H           1       4.925   2.833  -2.155  0.00  0.00     0.217 HD
ENDBRANCH  10  13
ENDBRANCH   6   7
ENDBRANCH   5   6
BRANCH   5  15
HETATM   15  C           1      -0.262  -2.982  -1.349  0.00  0.00     0.197 C 
HETATM   16  O           1       0.257  -4.102  -1.542  0.00  0.00    -0.646 OA
HETATM   17  O           1      -1.492  -2.827  -1.510  0.00  0.00    -0.646 OA
ENDBRANCH   5  15
ENDBRANCH   1   5
BRANCH   2  18
HETATM   18  C           1      -1.626  -0.341   1.829  0.00  0.00     0.275 C 
BRANCH  18  19
HETATM   19  C           1      -3.075   0.112   1.707  0.00  0.00     0.046 C 
BRANCH  19  20
HETATM   20  C           1      -3.174   1.223   0.670  0.00  0.00    -0.020 C 
HETATM   21  C           1      -2.988   2.572   1.351  0.00  0.00     0.009 C 
HETATM   22  C           1      -4.544   1.176   0.005  0.00  0.00     0.009 C 
ENDBRANCH  19  20
ENDBRANCH  18  19
BRANCH  18  23
HETATM   23  N           1      -0.774   0.818   2.252  0.00  0.00    -0.066 N 
HETATM   24  H           1      -1.105   1.175   3.177  0.00  0.00     0.275 HD
HETATM   25  H           1       0.220   0.507   2.336  0.00  0.00     0.275 HD
HETATM   26  H           1      -0.842   1.579   1.540  0.00  0.00     0.275 HD
ENDBRANCH  18  23
ENDBRANCH   2  18
TORSDOF 9
