REMARK  5 active torsions:
REMARK  status: ('A' for Active; 'I' for Inactive)
REMARK    1  A    between atoms: C_1  and  C_11 
REMARK    2  A    between atoms: C_1  and  C_2 
REMARK    3  A    between atoms: N_5  and  C_11 
REMARK    4  A    between atoms: C_7  and  C_15 
REMARK    5  A    between atoms: C_11  and  C_14 
REMARK       I    between atoms: N_13  and  C_14 
ROOT
HETATM    1  O           1      -0.519   1.165   1.052  0.00  0.00    -0.271 OA
HETATM    2  N           1      -1.070  -0.957   0.625  0.00  0.00    -0.336 N 
HETATM    3  C           1      -0.163   0.066   0.698  0.00  0.00     0.251 C 
HETATM    4  C           1      -2.496  -0.904   0.936  0.00  0.00     0.188 C 
HETATM    5  C           1      -0.823  -2.338   0.221  0.00  0.00     0.127 C 
HETATM    6  C           1      -2.035  -2.692  -0.623  0.00  0.00     0.022 C 
HETATM    7  C           1      -3.135  -1.746  -0.156  0.00  0.00     0.038 C 
ENDROOT
BRANCH   3   8
HETATM    8  C           1       1.281  -0.179   0.335  0.00  0.00     0.275 C 
BRANCH   8   9
HETATM    9  C           1       2.072   1.112   0.500  0.00  0.00     0.046 C 
BRANCH   9  10
HETATM   10  C           1       1.494   2.183  -0.416  0.00  0.00    -0.020 C 
HETATM   11  C           1       1.708   3.555   0.210  0.00  0.00     0.009 C 
HETATM   12  C           1       2.194   2.127  -1.767  0.00  0.00     0.009 C 
ENDBRANCH   9  10
ENDBRANCH   8   9
BRANCH   8  13
HETATM   13  N           1       1.366  -0.638  -1.091  0.00  0.00    -0.066 N 
HETATM   14  H           1       0.824  -1.524  -1.204  0.00  0.00     0.275 HD
HETATM   15  H           1       2.366  -0.808  -1.343  0.00  0.00     0.275 HD
HETATM   16  H           1       0.969   0.097  -1.718  0.00  0.00     0.275 HD
ENDBRANCH   8  13
ENDBRANCH   3   8
BRANCH   4  17
HETATM   17  C           1      -2.772  -1.493   2.298  0.00  0.00     0.196 C 
HETATM   18  O           1      -3.942  -1.534   2.735  0.00  0.00    -0.646 OA
HETATM   19  O           1      -1.830  -1.939   2.988  0.00  0.00    -0.646 OA
ENDBRANCH   4  17
TORSDOF 5
