REMARK  8 active torsions:
REMARK  status: ('A' for Active; 'I' for Inactive)
REMARK       I    between atoms: C_1  and  N_6 
REMARK    1  A    between atoms: C_1  and  C_12 
REMARK    2  A    between atoms: C_2  and  C_10 
REMARK    3  A    between atoms: N_6  and  C_22 
REMARK    4  A    between atoms: C_10  and  C_22 
REMARK    5  A    between atoms: C_12  and  C_13 
REMARK    6  A    between atoms: C_12  and  N_18 
REMARK    7  A    between atoms: C_13  and  C_14 
REMARK    8  A    between atoms: C_22  and  C_24 
ROOT
HETATM    1  C           1       1.813   0.546   0.601  0.00  0.00     0.249 C 
HETATM    2  N           1       2.446   1.174  -0.438  0.00  0.00    -0.344 N 
HETATM    3  H           1       3.233   1.784  -0.257  0.00  0.00     0.163 HD
HETATM    4  O           1       2.186  -0.544   0.966  0.00  0.00    -0.271 OA
ENDROOT
BRANCH   2   5
HETATM    5  C           1       1.988   0.964  -1.798  0.00  0.00     0.189 C 
BRANCH   5   6
HETATM    6  C           1       0.540   1.418  -1.921  0.00  0.00     0.074 C 
BRANCH   6   7
HETATM    7  C           1      -0.371   0.269  -1.616  0.00  0.00    -0.056 A 
HETATM    8  C           1       0.164  -0.975  -1.284  0.00  0.00     0.007 A 
HETATM    9  C           1      -0.685  -2.046  -1.000  0.00  0.00     0.001 A 
HETATM   10  C           1      -2.068  -1.871  -1.049  0.00  0.00     0.000 A 
HETATM   11  C           1      -2.602  -0.627  -1.381  0.00  0.00     0.001 A 
HETATM   12  C           1      -1.754   0.444  -1.665  0.00  0.00     0.007 A 
ENDBRANCH   6   7
ENDBRANCH   5   6
BRANCH   5  13
HETATM   13  C           1       2.848   1.764  -2.746  0.00  0.00     0.197 C 
HETATM   14  O           1       2.331   2.640  -3.472  0.00  0.00    -0.646 OA
HETATM   15  O           1       4.079   1.550  -2.805  0.00  0.00    -0.646 OA
ENDBRANCH   5  13
ENDBRANCH   2   5
BRANCH   1  16
HETATM   16  C           1       0.650   1.216   1.291  0.00  0.00     0.275 C 
BRANCH  16  17
HETATM   17  C           1       0.131   0.313   2.403  0.00  0.00     0.046 C 
BRANCH  17  18
HETATM   18  C           1      -0.327  -1.013   1.810  0.00  0.00    -0.020 C 
HETATM   19  C           1      -0.137  -2.121   2.837  0.00  0.00     0.009 C 
HETATM   20  C           1      -1.799  -0.918   1.432  0.00  0.00     0.009 C 
ENDBRANCH  17  18
ENDBRANCH  16  17
BRANCH  16  21
HETATM   21  N           1      -0.445   1.463   0.297  0.00  0.00    -0.066 N 
HETATM   22  H           1      -0.089   2.083  -0.465  0.00  0.00     0.275 HD
HETATM   23  H           1      -1.251   1.927   0.774  0.00  0.00     0.275 HD
HETATM   24  H           1      -0.758   0.553  -0.110  0.00  0.00     0.275 HD
ENDBRANCH  16  21
ENDBRANCH   1  16
TORSDOF 8
