REMARK  9 active torsions:
REMARK  status: ('A' for Active; 'I' for Inactive)
REMARK       I    between atoms: C_2  and  N_3 
REMARK    1  A    between atoms: C_2  and  C_18 
REMARK    2  A    between atoms: N_3  and  C_21 
REMARK    3  A    between atoms: C_6  and  C_7 
REMARK    4  A    between atoms: C_7  and  C_18 
REMARK    5  A    between atoms: C_8  and  C_14 
REMARK    6  A    between atoms: C_14  and  C_22 
REMARK    7  A    between atoms: C_17  and  C_21 
REMARK    8  A    between atoms: C_18  and  N_19 
REMARK    9  A    between atoms: C_21  and  C_22 
ROOT
HETATM    1  C           1       0.155   0.581   0.256  0.00  0.00     0.249 C 
HETATM    2  N           1       1.050   0.444  -0.770  0.00  0.00    -0.345 N 
HETATM    3  O           1       0.148  -0.218   1.162  0.00  0.00    -0.271 OA
HETATM    4  H           1       1.056   1.113  -1.530  0.00  0.00     0.163 HD
ENDROOT
BRANCH   1   5
HETATM    5  C           1      -0.824   1.729   0.255  0.00  0.00     0.275 C 
BRANCH   5   6
HETATM    6  C           1      -1.701   1.651   1.498  0.00  0.00     0.046 C 
BRANCH   6   7
HETATM    7  C           1      -2.465   0.334   1.499  0.00  0.00    -0.020 C 
HETATM    8  C           1      -2.721  -0.105   2.935  0.00  0.00     0.009 C 
HETATM    9  C           1      -3.795   0.519   0.780  0.00  0.00     0.009 C 
ENDBRANCH   6   7
ENDBRANCH   5   6
BRANCH   5  10
HETATM   10  N           1      -1.686   1.650  -0.970  0.00  0.00    -0.066 N 
HETATM   11  H           1      -2.364   2.445  -0.972  0.00  0.00     0.275 HD
HETATM   12  H           1      -2.210   0.745  -0.969  0.00  0.00     0.275 HD
HETATM   13  H           1      -1.085   1.704  -1.823  0.00  0.00     0.275 HD
ENDBRANCH   5  10
ENDBRANCH   1   5
BRANCH   2  14
HETATM   14  C           1       1.991  -0.659  -0.770  0.00  0.00     0.186 C 
BRANCH  14  15
HETATM   15  C           1       2.858  -0.580   0.463  0.00  0.00     0.196 C 
HETATM   16  O           1       4.097  -0.467   0.349  0.00  0.00    -0.646 OA
HETATM   17  O           1       2.336  -0.627   1.598  0.00  0.00    -0.646 OA
ENDBRANCH  14  15
BRANCH  14  18
HETATM   18  C           1       2.867  -0.580  -2.013  0.00  0.00     0.046 C 
BRANCH  18  19
HETATM   19  C           1       3.856  -1.738  -2.013  0.00  0.00     0.116 C 
BRANCH  19  20
HETATM   20  C           1       3.102  -3.045  -2.013  0.00  0.00     0.172 C 
HETATM   21  O           1       1.852  -3.045  -2.013  0.00  0.00    -0.648 OA
HETATM   22  O           1       3.727  -4.127  -2.013  0.00  0.00    -0.648 OA
ENDBRANCH  19  20
ENDBRANCH  18  19
ENDBRANCH  14  18
ENDBRANCH   2  14
TORSDOF 9
