REMARK  9 active torsions:
REMARK  status: ('A' for Active; 'I' for Inactive)
REMARK    1  A    between atoms: N_1  and  C_12 
REMARK       I    between atoms: N_1  and  C_2 
REMARK    2  A    between atoms: C_2  and  C_3 
REMARK    3  A    between atoms: C_3  and  C_4 
REMARK    4  A    between atoms: C_3  and  N_13 
REMARK    5  A    between atoms: C_4  and  C_16 
REMARK    6  A    between atoms: C_5  and  C_12 
REMARK    7  A    between atoms: S_7  and  C_19 
REMARK    8  A    between atoms: C_12  and  C_14 
REMARK    9  A    between atoms: C_14  and  C_19 
ROOT
HETATM    1  N           1      -0.663  -0.109   0.663  0.00  0.00    -0.345 N 
HETATM    2  C           1       0.084  -0.819  -0.239  0.00  0.00     0.249 C 
HETATM    3  O           1       1.265  -0.982  -0.049  0.00  0.00    -0.271 OA
HETATM    4  H           1      -1.653   0.027   0.504  0.00  0.00     0.163 HD
ENDROOT
BRANCH   2   5
HETATM    5  C           1      -0.570  -1.398  -1.470  0.00  0.00     0.275 C 
BRANCH   5   6
HETATM    6  C           1       0.473  -2.135  -2.300  0.00  0.00     0.046 C 
BRANCH   6   7
HETATM    7  C           1       1.570  -1.163  -2.717  0.00  0.00    -0.020 C 
HETATM    8  C           1       2.888  -1.914  -2.857  0.00  0.00     0.009 C 
HETATM    9  C           1       1.204  -0.529  -4.052  0.00  0.00     0.009 C 
ENDBRANCH   6   7
ENDBRANCH   5   6
BRANCH   5  10
HETATM   10  N           1      -1.166  -0.290  -2.286  0.00  0.00    -0.066 N 
HETATM   11  H           1      -1.619  -0.690  -3.139  0.00  0.00     0.275 HD
HETATM   12  H           1      -1.882   0.215  -1.717  0.00  0.00     0.275 HD
HETATM   13  H           1      -0.414   0.376  -2.571  0.00  0.00     0.275 HD
ENDBRANCH   5  10
ENDBRANCH   2   5
BRANCH   1  14
HETATM   14  C           1      -0.036   0.447   1.846  0.00  0.00     0.186 C 
BRANCH  14  15
HETATM   15  C           1       0.565  -0.668   2.667  0.00  0.00     0.196 C 
HETATM   16  O           1       1.449  -1.401   2.173  0.00  0.00    -0.646 OA
HETATM   17  O           1       0.180  -0.857   3.840  0.00  0.00    -0.646 OA
ENDBRANCH  14  15
BRANCH  14  18
HETATM   18  C           1      -1.080   1.183   2.675  0.00  0.00     0.046 C 
BRANCH  18  19
HETATM   19  C           1      -0.422   1.767   3.918  0.00  0.00     0.076 C 
BRANCH  19  20
HETATM   20  S           1      -0.621   3.571   3.918  0.00  0.00    -0.173 SA
HETATM   21  C           1      -2.436   3.571   3.918  0.00  0.00     0.089 C 
ENDBRANCH  19  20
ENDBRANCH  18  19
ENDBRANCH  14  18
ENDBRANCH   1  14
TORSDOF 9
