REMARK  8 active torsions:
REMARK  status: ('A' for Active; 'I' for Inactive)
REMARK    1  A    between atoms: C_2  and  C_3 
REMARK    2  A    between atoms: C_2  and  C_15 
REMARK    3  A    between atoms: C_6  and  C_7 
REMARK    4  A    between atoms: C_6  and  C_14 
REMARK    5  A    between atoms: C_7  and  C_8 
REMARK    6  A    between atoms: C_7  and  N_11 
REMARK       I    between atoms: C_8  and  N_20 
REMARK    7  A    between atoms: C_15  and  C_16 
REMARK    8  A    between atoms: C_15  and  N_20 
ROOT
HETATM    1  O           1       0.575   1.207  -1.061  0.00  0.00    -0.271 OA
HETATM    2  C           1       0.404   0.071  -0.685  0.00  0.00     0.249 C 
HETATM    3  N           1       0.972  -0.354   0.486  0.00  0.00    -0.344 N 
HETATM    4  H           1       0.829  -1.305   0.802  0.00  0.00     0.163 HD
ENDROOT
BRANCH   2   5
HETATM    5  C           1      -0.434  -0.878  -1.505  0.00  0.00     0.275 C 
BRANCH   5   6
HETATM    6  C           1      -0.943  -0.161  -2.749  0.00  0.00     0.046 C 
BRANCH   6   7
HETATM    7  C           1      -1.790   1.035  -2.335  0.00  0.00    -0.020 C 
HETATM    8  C           1      -3.244   0.604  -2.197  0.00  0.00     0.009 C 
HETATM    9  C           1      -1.683   2.124  -3.395  0.00  0.00     0.009 C 
ENDBRANCH   6   7
ENDBRANCH   5   6
BRANCH   5  10
HETATM   10  N           1      -1.600  -1.348  -0.687  0.00  0.00    -0.066 N 
HETATM   11  H           1      -2.181  -2.006  -1.255  0.00  0.00     0.275 HD
HETATM   12  H           1      -1.251  -1.841   0.166  0.00  0.00     0.275 HD
HETATM   13  H           1      -2.180  -0.527  -0.404  0.00  0.00     0.275 HD
ENDBRANCH   5  10
ENDBRANCH   2   5
BRANCH   3  14
HETATM   14  C           1       1.777   0.558   1.275  0.00  0.00     0.189 C 
BRANCH  14  15
HETATM   15  C           1       2.286  -0.159   2.518  0.00  0.00     0.014 C 
HETATM   16  C           1       1.779   0.559   3.761  0.00  0.00     0.012 C 
BRANCH  15  17
HETATM   17  C           1       1.777  -1.595   2.518  0.00  0.00     0.002 C 
HETATM   18  C           1       0.254  -1.595   2.518  0.00  0.00     0.005 C 
ENDBRANCH  15  17
ENDBRANCH  14  15
BRANCH  14  19
HETATM   19  C           1       2.950   1.032   0.452  0.00  0.00     0.197 C 
HETATM   20  O           1       2.755   1.650  -0.617  0.00  0.00    -0.646 OA
HETATM   21  O           1       4.117   0.808   0.840  0.00  0.00    -0.646 OA
ENDBRANCH  14  19
ENDBRANCH   3  14
TORSDOF 8
