REMARK  8 active torsions:
REMARK  status: ('A' for Active; 'I' for Inactive)
REMARK    1  A    between atoms: N_4  and  C_12 
REMARK    2  A    between atoms: C_7  and  C_8 
REMARK    3  A    between atoms: C_8  and  C_12 
REMARK    4  A    between atoms: S_10  and  C_14 
REMARK    5  A    between atoms: N_11  and  C_15 
REMARK       I    between atoms: N_11  and  C_19 
REMARK    6  A    between atoms: C_12  and  C_19 
REMARK    7  A    between atoms: C_14  and  C_15 
REMARK    8  A    between atoms: C_15  and  C_18 
ROOT
HETATM    1  H           1      -0.362  -2.301   0.509  0.00  0.00     0.163 HD
HETATM    2  O           1      -0.784   0.807   0.508  0.00  0.00    -0.271 OA
HETATM    3  N           1      -0.867  -1.424   0.508  0.00  0.00    -0.344 N 
HETATM    4  C           1      -0.182  -0.239   0.508  0.00  0.00     0.249 C 
ENDROOT
BRANCH   4   5
HETATM    5  C           1       1.327  -0.241   0.509  0.00  0.00     0.275 C 
BRANCH   5   6
HETATM    6  N           1       1.827  -0.948  -0.716  0.00  0.00    -0.066 N 
HETATM    7  H           1       2.872  -0.950  -0.716  0.00  0.00     0.275 HD
HETATM    8  H           1       1.477  -1.933  -0.715  0.00  0.00     0.275 HD
HETATM    9  H           1       1.479  -0.455  -1.569  0.00  0.00     0.275 HD
ENDBRANCH   5   6
BRANCH   5  10
HETATM   10  C           1       1.837   1.194   0.509  0.00  0.00     0.046 C 
BRANCH  10  11
HETATM   11  C           1       1.332   1.913  -0.734  0.00  0.00    -0.020 C 
HETATM   12  C           1       2.336   1.737  -1.865  0.00  0.00     0.009 C 
HETATM   13  C           1       1.165   3.396  -0.431  0.00  0.00     0.009 C 
ENDBRANCH  10  11
ENDBRANCH   5  10
ENDBRANCH   4   5
BRANCH   3  14
HETATM   14  C           1      -2.317  -1.423   0.507  0.00  0.00     0.194 C 
BRANCH  14  15
HETATM   15  C           1      -2.826  -2.858   0.507  0.00  0.00     0.106 C 
BRANCH  15  16
HETATM   16  S           1      -4.641  -2.858   0.507  0.00  0.00    -0.180 SA
HETATM   17  H           1      -4.781  -4.196   0.507  0.00  0.00     0.101 HD
ENDBRANCH  15  16
ENDBRANCH  14  15
BRANCH  14  18
HETATM   18  C           1      -2.819  -0.711   1.739  0.00  0.00     0.197 C 
HETATM   19  O           1      -3.538  -1.317   2.562  0.00  0.00    -0.646 OA
HETATM   20  O           1      -2.517   0.486   1.937  0.00  0.00    -0.646 OA
ENDBRANCH  14  18
ENDBRANCH   3  14
TORSDOF 8
