REMARK  8 active torsions:
REMARK  status: ('A' for Active; 'I' for Inactive)
REMARK    1  A    between atoms: C_3  and  C_18 
REMARK    2  A    between atoms: N_4  and  C_16 
REMARK       I    between atoms: N_4  and  C_19 
REMARK    3  A    between atoms: C_5  and  C_19 
REMARK    4  A    between atoms: C_5  and  C_6 
REMARK    5  A    between atoms: C_5  and  N_20 
REMARK    6  A    between atoms: C_6  and  C_9 
REMARK    7  A    between atoms: C_13  and  C_16 
REMARK    8  A    between atoms: C_16  and  C_18 
ROOT
HETATM    1  N           1       0.006   0.700   0.511  0.00  0.00    -0.345 N 
HETATM    2  H           1      -0.239   1.048   1.429  0.00  0.00     0.163 HD
HETATM    3  C           1       0.793  -0.413   0.388  0.00  0.00     0.249 C 
HETATM    4  O           1       1.086  -0.828  -0.708  0.00  0.00    -0.271 OA
ENDROOT
BRANCH   3   5
HETATM    5  C           1       1.296  -1.122   1.622  0.00  0.00     0.275 C 
BRANCH   5   6
HETATM    6  C           1       2.142  -2.320   1.210  0.00  0.00     0.046 C 
BRANCH   6   7
HETATM    7  C           1       1.297  -3.279   0.383  0.00  0.00    -0.020 C 
HETATM    8  C           1       2.188  -4.015  -0.609  0.00  0.00     0.009 C 
HETATM    9  C           1       0.625  -4.287   1.305  0.00  0.00     0.009 C 
ENDBRANCH   6   7
ENDBRANCH   5   6
BRANCH   5  10
HETATM   10  N           1       0.128  -1.592   2.437  0.00  0.00    -0.066 N 
HETATM   11  H           1      -0.452  -0.771   2.720  0.00  0.00     0.275 HD
HETATM   12  H           1      -0.452  -2.250   1.869  0.00  0.00     0.275 HD
HETATM   13  H           1       0.475  -2.084   3.292  0.00  0.00     0.275 HD
ENDBRANCH   5  10
ENDBRANCH   3   5
BRANCH   1  14
HETATM   14  C           1      -0.476   1.382  -0.674  0.00  0.00     0.185 C 
BRANCH  14  15
HETATM   15  C           1       0.698   1.854  -1.495  0.00  0.00     0.196 C 
HETATM   16  O           1       0.845   3.073  -1.733  0.00  0.00    -0.646 OA
HETATM   17  O           1       1.524   1.027  -1.938  0.00  0.00    -0.646 OA
ENDBRANCH  14  15
BRANCH  14  18
HETATM   18  C           1      -1.323   2.579  -0.262  0.00  0.00     0.040 C 
BRANCH  18  19
HETATM   19  C           1      -1.829   3.296  -1.506  0.00  0.00    -0.020 C 
HETATM   20  C           1      -3.352   3.296  -1.506  0.00  0.00     0.009 C 
HETATM   21  C           1      -1.321   4.732  -1.506  0.00  0.00     0.009 C 
ENDBRANCH  18  19
ENDBRANCH  14  18
ENDBRANCH   1  14
TORSDOF 8
