REMARK  8 active torsions:
REMARK  status: ('A' for Active; 'I' for Inactive)
REMARK    1  A    between atoms: C_3  and  C_23 
REMARK    2  A    between atoms: C_5  and  C_21 
REMARK    3  A    between atoms: C_5  and  C_12 
REMARK    4  A    between atoms: C_5  and  N_25 
REMARK       I    between atoms: C_6  and  N_25 
REMARK    5  A    between atoms: C_6  and  C_17 
REMARK    6  A    between atoms: C_9  and  C_12 
REMARK    7  A    between atoms: N_11  and  C_17 
REMARK    8  A    between atoms: C_17  and  C_23 
ROOT
HETATM    1  C           1      -2.330   0.303   1.998  0.00  0.00     0.190 C 
ENDROOT
BRANCH   1   2
HETATM    2  C           1      -3.356   0.972   2.880  0.00  0.00     0.197 C 
HETATM    3  O           1      -4.276   0.298   3.391  0.00  0.00    -0.646 OA
HETATM    4  O           1      -3.285   2.200   3.100  0.00  0.00    -0.646 OA
ENDBRANCH   1   2
BRANCH   1   5
HETATM    5  C           1      -1.328   1.340   1.508  0.00  0.00     0.077 C 
BRANCH   5   6
HETATM    6  C           1       0.002   0.686   1.292  0.00  0.00    -0.028 A 
HETATM    7  C           1       0.295  -0.643   1.499  0.00  0.00     0.096 A 
HETATM    8  N           1       1.616  -0.833   1.187  0.00  0.00    -0.365 N 
HETATM    9  H           1       2.121  -1.752   1.248  0.00  0.00     0.165 HD
HETATM   10  C           1       2.185   0.353   0.780  0.00  0.00     0.042 A 
HETATM   11  C           1       1.188   1.327   0.838  0.00  0.00    -0.002 A 
HETATM   12  C           1       3.493   0.635   0.370  0.00  0.00     0.030 A 
HETATM   13  C           1       1.508   2.648   0.470  0.00  0.00     0.014 A 
HETATM   14  C           1       2.812   2.947   0.057  0.00  0.00     0.001 A 
HETATM   15  C           1       3.788   1.953   0.009  0.00  0.00     0.002 A 
ENDBRANCH   5   6
ENDBRANCH   1   5
BRANCH   1  16
HETATM   16  N           1      -2.994  -0.302   0.859  0.00  0.00    -0.344 N 
HETATM   17  C           1      -2.262  -0.970  -0.085  0.00  0.00     0.249 C 
HETATM   18  O           1      -2.054  -2.154   0.039  0.00  0.00    -0.271 OA
HETATM   19  H           1      -3.999  -0.230   0.763  0.00  0.00     0.163 HD
BRANCH  17  20
HETATM   20  C           1      -1.714  -0.228  -1.279  0.00  0.00     0.275 C 
BRANCH  20  21
HETATM   21  N           1      -0.795   0.861  -0.812  0.00  0.00    -0.066 N 
HETATM   22  H           1      -0.415   1.376  -1.638  0.00  0.00     0.275 HD
HETATM   23  H           1      -1.324   1.525  -0.202  0.00  0.00     0.275 HD
HETATM   24  H           1      -0.006   0.442  -0.270  0.00  0.00     0.275 HD
ENDBRANCH  20  21
BRANCH  20  25
HETATM   25  C           1      -0.944  -1.195  -2.169  0.00  0.00     0.046 C 
BRANCH  25  26
HETATM   26  C           1       0.207  -1.805  -1.379  0.00  0.00    -0.020 C 
HETATM   27  C           1       1.448  -0.936  -1.539  0.00  0.00     0.009 C 
HETATM   28  C           1       0.497  -3.205  -1.903  0.00  0.00     0.009 C 
ENDBRANCH  25  26
ENDBRANCH  20  25
ENDBRANCH  17  20
ENDBRANCH   1  16
TORSDOF 8
