REMARK  9 active torsions:
REMARK  status: ('A' for Active; 'I' for Inactive)
REMARK    1  A    between atoms: C_1  and  C_2 
REMARK    2  A    between atoms: C_2  and  C_11 
REMARK    3  A    between atoms: C_2  and  N_24 
REMARK    4  A    between atoms: C_3  and  C_4 
REMARK    5  A    between atoms: C_3  and  C_16 
REMARK    6  A    between atoms: C_4  and  C_5 
REMARK    7  A    between atoms: C_4  and  N_20 
REMARK       I    between atoms: C_5  and  N_24 
REMARK       I    between atoms: C_10  and  N_15 
REMARK    8  A    between atoms: C_10  and  C_21 
REMARK    9  A    between atoms: C_11  and  C_21 
ROOT
HETATM    1  C           1      -0.055   0.823   0.359  0.00  0.00     0.249 C 
HETATM    2  O           1      -0.062   0.024   1.265  0.00  0.00    -0.271 OA
HETATM    3  H           1       0.846   1.355  -1.426  0.00  0.00     0.163 HD
HETATM    4  N           1       0.841   0.686  -0.667  0.00  0.00    -0.345 N 
ENDROOT
BRANCH   4   5
HETATM    5  C           1       1.781  -0.417  -0.666  0.00  0.00     0.186 C 
BRANCH   5   6
HETATM    6  C           1       2.648  -0.338   0.566  0.00  0.00     0.196 C 
HETATM    7  O           1       2.126  -0.385   1.701  0.00  0.00    -0.646 OA
HETATM    8  O           1       3.888  -0.224   0.453  0.00  0.00    -0.646 OA
ENDBRANCH   5   6
BRANCH   5   9
HETATM    9  C           1       2.657  -0.338  -1.910  0.00  0.00     0.045 C 
BRANCH   9  10
HETATM   10  C           1       3.646  -1.496  -1.910  0.00  0.00     0.105 C 
BRANCH  10  11
HETATM   11  C           1       2.892  -2.803  -1.910  0.00  0.00     0.215 C 
HETATM   12  O           1       1.684  -2.803  -1.910  0.00  0.00    -0.274 OA
HETATM   13  N           1       3.576  -3.988  -1.910  0.00  0.00    -0.370 N 
HETATM   14  H           1       3.070  -4.865  -1.910  0.00  0.00     0.159 HD
HETATM   15  H           1       4.588  -3.988  -1.910  0.00  0.00     0.159 HD
ENDBRANCH  10  11
ENDBRANCH   9  10
ENDBRANCH   5   9
ENDBRANCH   4   5
BRANCH   1  16
HETATM   16  C           1      -1.034   1.971   0.358  0.00  0.00     0.275 C 
BRANCH  16  17
HETATM   17  C           1      -1.911   1.893   1.601  0.00  0.00     0.046 C 
BRANCH  17  18
HETATM   18  C           1      -2.675   0.576   1.602  0.00  0.00    -0.020 C 
HETATM   19  C           1      -4.005   0.761   0.884  0.00  0.00     0.009 C 
HETATM   20  C           1      -2.931   0.137   3.038  0.00  0.00     0.009 C 
ENDBRANCH  17  18
ENDBRANCH  16  17
BRANCH  16  21
HETATM   21  N           1      -1.896   1.892  -0.867  0.00  0.00    -0.066 N 
HETATM   22  H           1      -2.419   0.987  -0.866  0.00  0.00     0.275 HD
HETATM   23  H           1      -2.574   2.687  -0.868  0.00  0.00     0.275 HD
HETATM   24  H           1      -1.294   1.946  -1.720  0.00  0.00     0.275 HD
ENDBRANCH  16  21
ENDBRANCH   1  16
TORSDOF 9
