REMARK  7 active torsions:
REMARK  status: ('A' for Active; 'I' for Inactive)
REMARK    1  A    between atoms: C_2  and  C_11 
REMARK    2  A    between atoms: C_3  and  C_10 
REMARK       I    between atoms: C_5  and  N_7 
REMARK    3  A    between atoms: C_5  and  C_6 
REMARK    4  A    between atoms: C_6  and  C_10 
REMARK    5  A    between atoms: C_6  and  N_9 
REMARK    6  A    between atoms: N_7  and  C_11 
REMARK    7  A    between atoms: C_11  and  C_15 
ROOT
HETATM    1  C           1       0.550  -0.277  -0.087  0.00  0.00     0.249 C 
HETATM    2  N           1      -0.016   0.148  -1.258  0.00  0.00    -0.344 N 
HETATM    3  O           1       0.379  -1.411   0.291  0.00  0.00    -0.271 OA
HETATM    4  H           1       0.128   1.099  -1.574  0.00  0.00     0.163 HD
ENDROOT
BRANCH   1   5
HETATM    5  C           1       1.389   0.673   0.734  0.00  0.00     0.275 C 
BRANCH   5   6
HETATM    6  C           1       1.897  -0.043   1.978  0.00  0.00     0.046 C 
BRANCH   6   7
HETATM    7  C           1       0.713  -0.521   2.809  0.00  0.00    -0.020 C 
HETATM    8  C           1       1.099  -1.784   3.566  0.00  0.00     0.009 C 
HETATM    9  C           1       0.320   0.565   3.802  0.00  0.00     0.009 C 
ENDBRANCH   6   7
ENDBRANCH   5   6
BRANCH   5  10
HETATM   10  N           1       0.556   1.851   1.141  0.00  0.00    -0.066 N 
HETATM   11  H           1       0.208   2.343   0.287  0.00  0.00     0.275 HD
HETATM   12  H           1       1.136   2.509   1.709  0.00  0.00     0.275 HD
HETATM   13  H           1      -0.257   1.523   1.710  0.00  0.00     0.275 HD
ENDBRANCH   5  10
ENDBRANCH   1   5
BRANCH   2  14
HETATM   14  C           1      -0.822  -0.764  -2.047  0.00  0.00     0.189 C 
BRANCH  14  15
HETATM   15  C           1       0.016  -1.950  -2.455  0.00  0.00     0.197 C 
HETATM   16  O           1       0.533  -2.681  -1.583  0.00  0.00    -0.646 OA
HETATM   17  O           1       0.194  -2.202  -3.667  0.00  0.00    -0.646 OA
ENDBRANCH  14  15
BRANCH  14  18
HETATM   18  C           1      -1.329  -0.046  -3.291  0.00  0.00     0.010 C 
HETATM   19  C           1      -0.821   1.389  -3.291  0.00  0.00     0.012 C 
HETATM   20  C           1      -2.852  -0.046  -3.291  0.00  0.00     0.012 C 
ENDBRANCH  14  18
ENDBRANCH   2  14
TORSDOF 7
