REMARK  8 active torsions:
REMARK  status: ('A' for Active; 'I' for Inactive)
REMARK    1  A    between atoms: C_3  and  C_9 
REMARK    2  A    between atoms: C_3  and  C_21 
REMARK    3  A    between atoms: C_3  and  N_25 
REMARK    4  A    between atoms: C_7  and  C_8 
REMARK    5  A    between atoms: C_8  and  C_23 
REMARK    6  A    between atoms: C_10  and  C_21 
REMARK    7  A    between atoms: N_11  and  C_23 
REMARK    8  A    between atoms: C_23  and  C_24 
REMARK       I    between atoms: C_24  and  N_25 
ROOT
HETATM    1  H           1       2.082   2.841  -0.320  0.00  0.00     0.163 HD
HETATM    2  O           1       2.230   0.126   0.466  0.00  0.00    -0.271 OA
HETATM    3  C           1       1.418   1.018   0.399  0.00  0.00     0.249 C 
HETATM    4  N           1       1.558   2.004  -0.540  0.00  0.00    -0.344 N 
ENDROOT
BRANCH   4   5
HETATM    5  C           1       0.956   1.848  -1.850  0.00  0.00     0.191 C 
BRANCH   5   6
HETATM    6  C           1       1.257   3.066  -2.689  0.00  0.00     0.197 C 
HETATM    7  O           1       0.322   3.764  -3.136  0.00  0.00    -0.646 OA
HETATM    8  O           1       2.443   3.377  -2.936  0.00  0.00    -0.646 OA
ENDBRANCH   5   6
BRANCH   5   9
HETATM    9  C           1      -0.552   1.695  -1.700  0.00  0.00     0.094 C 
BRANCH   9  10
HETATM   10  C           1      -0.894   0.245  -1.555  0.00  0.00     0.028 A 
HETATM   11  C           1       0.023  -0.779  -1.560  0.00  0.00     0.114 A 
HETATM   12  N           1      -0.717  -1.918  -1.403  0.00  0.00    -0.360 N 
HETATM   13  C           1      -2.028  -1.546  -1.312  0.00  0.00     0.180 A 
HETATM   14  H           1      -0.345  -2.899  -1.361  0.00  0.00     0.166 HD
HETATM   15  N           1      -2.166  -0.244  -1.401  0.00  0.00    -0.354 N 
ATOM     16  HN          1      -3.034   0.290  -1.364  1.00  0.00     0.166 HD
ENDBRANCH   9  10
ENDBRANCH   5   9
ENDBRANCH   4   5
BRANCH   3  17
HETATM   17  C           1       0.248   1.044   1.352  0.00  0.00     0.275 C 
BRANCH  17  18
HETATM   18  C           1       0.326  -0.156   2.287  0.00  0.00     0.046 C 
BRANCH  18  19
HETATM   19  C           1       0.286  -1.440   1.470  0.00  0.00    -0.020 C 
HETATM   20  C           1       1.068  -2.528   2.194  0.00  0.00     0.009 C 
HETATM   21  C           1      -1.160  -1.886   1.296  0.00  0.00     0.009 C 
ENDBRANCH  18  19
ENDBRANCH  17  18
BRANCH  17  22
HETATM   22  N           1      -1.032   0.986   0.572  0.00  0.00    -0.066 N 
HETATM   23  H           1      -1.086   1.810  -0.070  0.00  0.00     0.275 HD
HETATM   24  H           1      -1.843   1.005   1.230  0.00  0.00     0.275 HD
HETATM   25  H           1      -1.059   0.105   0.011  0.00  0.00     0.275 HD
ENDBRANCH  17  22
ENDBRANCH   3  17
TORSDOF 8
