REMARK  3 active torsions:
REMARK  status: ('A' for Active; 'I' for Inactive)
REMARK       I    between atoms: C_8  and  N_14 
REMARK    1  A    between atoms: C_8  and  C_20 
REMARK    2  A    between atoms: C_12  and  C_19 
REMARK    3  A    between atoms: N_14  and  C_19 
ROOT
HETATM    1  H           1      -0.724   0.111   0.971  0.00  0.00     0.275 HD
HETATM    2  H           1      -1.849  -0.849   0.118  0.00  0.00     0.275 HD
HETATM    3  H           1      -2.005   0.850   0.119  0.00  0.00     0.275 HD
HETATM    4  C           1      -0.691   2.613   1.381  0.00  0.00     0.229 C 
HETATM    5  H           1      -0.266   1.422   3.050  0.00  0.00     0.274 HD
HETATM    6  H           1      -0.590   0.536   1.628  0.00  0.00     0.274 HD
HETATM    7  H           1      -1.868   1.275   2.483  0.00  0.00     0.274 HD
HETATM    8  N           1      -0.867   1.367   2.197  0.00  0.00    -0.079 N 
HETATM    9  N           1      -1.326   0.056   0.118  0.00  0.00    -0.067 N 
HETATM   10  C           1       1.173   1.535   0.136  0.00  0.00     0.004 C 
HETATM   11  C           1       0.768   2.747   0.965  0.00  0.00     0.027 C 
HETATM   12  C           1      -0.464   0.135  -1.108  0.00  0.00     0.274 C 
HETATM   13  C           1       0.297   1.454  -1.108  0.00  0.00     0.042 C 
ENDROOT
BRANCH  12  14
HETATM   14  C           1       0.516  -1.012  -1.108  0.00  0.00     0.248 C 
HETATM   15  O           1       1.704  -0.792  -1.108  0.00  0.00    -0.271 OA
HETATM   16  N           1       0.059  -2.303  -1.108  0.00  0.00    -0.349 N 
HETATM   17  H           1      -0.936  -2.487  -1.108  0.00  0.00     0.163 HD
BRANCH  16  18
HETATM   18  C           1       1.001  -3.406  -1.108  0.00  0.00     0.235 C 
BRANCH  18  19
HETATM   19  C           1       0.246  -4.712  -1.108  0.00  0.00     0.191 C 
HETATM   20  O           1      -1.004  -4.712  -1.108  0.00  0.00    -0.647 OA
HETATM   21  O           1       0.871  -5.795  -1.108  0.00  0.00    -0.647 OA
ENDBRANCH  18  19
ENDBRANCH  16  18
ENDBRANCH  12  14
TORSDOF 3
