REMARK  13 active torsions:
REMARK  status: ('A' for Active; 'I' for Inactive)
REMARK    1  A    between atoms: C_6  and  C_16 
REMARK    2  A    between atoms: C_6  and  C_25 
REMARK    3  A    between atoms: C_7  and  C_25 
REMARK    4  A    between atoms: C_12  and  C_14 
REMARK    5  A    between atoms: C_12  and  N_15 
REMARK    6  A    between atoms: C_14  and  C_24 
REMARK    7  A    between atoms: C_16  and  C_18 
REMARK    8  A    between atoms: C_18  and  N_19 
REMARK       I    between atoms: C_21  and  N_22 
REMARK    9  A    between atoms: C_21  and  C_26 
REMARK   10  A    between atoms: N_22  and  C_25 
REMARK   11  A    between atoms: N_23  and  C_26 
REMARK   12  A    between atoms: C_24  and  C_27 
REMARK   13  A    between atoms: C_26  and  C_27 
ROOT
HETATM    1  O           1       1.397   1.072  -0.221  0.00  0.00    -0.271 OA
HETATM    2  C           1       0.209   1.183  -0.031  0.00  0.00     0.249 C 
HETATM    3  N           1      -0.680   0.663  -0.932  0.00  0.00    -0.345 N 
HETATM    4  H           1      -1.675   0.756  -0.773  0.00  0.00     0.163 HD
ENDROOT
BRANCH   2   5
HETATM    5  C           1      -0.295   1.896   1.200  0.00  0.00     0.274 C 
BRANCH   5   6
HETATM    6  N           1      -1.129   0.954   2.017  0.00  0.00    -0.067 N 
HETATM    7  H           1      -1.478   1.446   2.869  0.00  0.00     0.275 HD
HETATM    8  H           1      -1.941   0.625   1.447  0.00  0.00     0.275 HD
HETATM    9  H           1      -0.548   0.133   2.302  0.00  0.00     0.275 HD
ENDBRANCH   5   6
BRANCH   5  10
HETATM   10  C           1       0.889   2.375   2.030  0.00  0.00     0.042 C 
BRANCH  10  11
HETATM   11  C           1       1.734   1.179   2.447  0.00  0.00     0.004 C 
BRANCH  11  12
HETATM   12  C           1       0.888   0.222   3.276  0.00  0.00     0.027 C 
BRANCH  12  13
HETATM   13  C           1       1.506   0.064   4.659  0.00  0.00     0.229 C 
BRANCH  13  14
HETATM   14  N           1       2.896  -0.486   4.526  0.00  0.00    -0.079 N 
HETATM   15  H           1       2.858  -1.417   4.054  0.00  0.00     0.274 HD
HETATM   16  H           1       3.477   0.171   3.958  0.00  0.00     0.274 HD
HETATM   17  H           1       3.320  -0.594   5.475  0.00  0.00     0.274 HD
ENDBRANCH  13  14
ENDBRANCH  12  13
ENDBRANCH  11  12
ENDBRANCH  10  11
ENDBRANCH   5  10
ENDBRANCH   2   5
BRANCH   3  18
HETATM   18  C           1      -0.196  -0.022  -2.115  0.00  0.00     0.185 C 
BRANCH  18  19
HETATM   19  C           1      -1.381  -0.501  -2.944  0.00  0.00     0.038 C 
BRANCH  19  20
HETATM   20  C           1      -0.874  -1.219  -4.188  0.00  0.00     0.030 C 
BRANCH  20  21
HETATM   21  C           1      -1.382  -2.655  -4.188  0.00  0.00     0.230 C 
BRANCH  21  22
HETATM   22  N           1      -2.882  -2.655  -4.188  0.00  0.00    -0.079 N 
HETATM   23  H           1      -3.231  -3.640  -4.188  0.00  0.00     0.274 HD
HETATM   24  H           1      -3.230  -2.163  -3.334  0.00  0.00     0.274 HD
HETATM   25  H           1      -3.230  -2.162  -5.041  0.00  0.00     0.274 HD
ENDBRANCH  21  22
ENDBRANCH  20  21
ENDBRANCH  19  20
ENDBRANCH  18  19
BRANCH  18  26
HETATM   26  C           1       0.643   0.926  -2.936  0.00  0.00     0.196 C 
HETATM   27  O           1       1.671   1.438  -2.442  0.00  0.00    -0.646 OA
HETATM   28  O           1       0.311   1.198  -4.110  0.00  0.00    -0.646 OA
ENDBRANCH  18  26
ENDBRANCH   3  18
TORSDOF 13
