REMARK  5 active torsions:
REMARK  status: ('A' for Active; 'I' for Inactive)
REMARK    1  A    between atoms: C_1  and  C_7 
REMARK    2  A    between atoms: C_4  and  O_5 
REMARK    3  A    between atoms: C_4  and  C_7 
REMARK    4  A    between atoms: C_7  and  N_13 
REMARK       I    between atoms: N_13  and  C_15 
REMARK    5  A    between atoms: C_15  and  C_19 
ROOT
HETATM    1  H           1      -0.420   1.123   1.333  0.00  0.00     0.255 HD
HETATM    2  H           1       1.366   2.198   2.001  0.00  0.00     0.274 HD
HETATM    3  H           1       0.045   1.943  -0.090  0.00  0.00     0.275 HD
HETATM    4  H           1       2.296   0.886   2.573  0.00  0.00     0.254 HD
HETATM    5  H           1       0.972   2.109   1.332  0.00  0.00     0.275 HD
HETATM    6  C           1       0.549  -0.921   2.432  0.00  0.00     0.004 C 
HETATM    7  C           1       1.734  -0.443   1.601  0.00  0.00     0.062 C 
HETATM    8  C           1       1.226   0.273   0.357  0.00  0.00     0.274 C 
HETATM    9  C           1      -0.297   0.276   2.845  0.00  0.00     0.047 C 
HETATM   10  N           1       0.392   1.451   0.764  0.00  0.00    -0.067 N 
HETATM   11  N           1       1.715   1.707   2.855  0.00  0.00    -0.080 N 
HETATM   12  C           1       0.549   1.235   3.672  0.00  0.00     0.229 C 
HETATM   13  H           1       2.295   2.365   3.423  0.00  0.00     0.274 HD
ENDROOT
BRANCH   8  14
HETATM   14  C           1       0.387  -0.677  -0.464  0.00  0.00     0.249 C 
HETATM   15  N           1      -0.179  -0.252  -1.635  0.00  0.00    -0.343 N 
HETATM   16  H           1      -0.035   0.699  -1.951  0.00  0.00     0.163 HD
HETATM   17  O           1       0.215  -1.811  -0.086  0.00  0.00    -0.271 OA
BRANCH  15  18
HETATM   18  C           1      -0.985  -1.164  -2.423  0.00  0.00     0.214 C 
BRANCH  18  19
HETATM   19  C           1      -0.147  -2.350  -2.832  0.00  0.00     0.199 C 
HETATM   20  O           1       0.370  -3.081  -1.960  0.00  0.00    -0.646 OA
HETATM   21  O           1       0.031  -2.602  -4.044  0.00  0.00    -0.646 OA
ENDBRANCH  18  19
BRANCH  18  22
HETATM   22  C           1      -1.492  -0.446  -3.668  0.00  0.00     0.147 C 
HETATM   23  C           1      -3.015  -0.446  -3.668  0.00  0.00     0.042 C 
BRANCH  22  24
HETATM   24  O           1      -1.024   0.875  -3.668  0.00  0.00    -0.393 OA
HETATM   25  H           1      -0.083   0.832  -3.668  0.00  0.00     0.210 HD
ENDBRANCH  22  24
ENDBRANCH  18  22
ENDBRANCH  15  18
ENDBRANCH   8  14
TORSDOF 5
