REMARK  5 active torsions:
REMARK  status: ('A' for Active; 'I' for Inactive)
REMARK    1  A    between atoms: C_3  and  C_7 
REMARK    2  A    between atoms: C_3  and  C_4 
REMARK    3  A    between atoms: C_4  and  C_5 
REMARK    4  A    between atoms: C_4  and  N_11 
REMARK       I    between atoms: N_11  and  C_12 
REMARK    5  A    between atoms: C_12  and  C_13 
ROOT
HETATM    1  H           1       0.799   0.926  -1.222  0.00  0.00     0.275 HD
HETATM    2  H           1       1.924   1.884  -0.370  0.00  0.00     0.275 HD
HETATM    3  C           1       0.538   0.901   0.855  0.00  0.00     0.274 C 
HETATM    4  C           1      -1.146   3.247  -1.217  0.00  0.00     0.027 C 
HETATM    5  C           1      -1.325   1.982  -0.388  0.00  0.00     0.004 C 
HETATM    6  C           1      -0.450   2.060   0.855  0.00  0.00     0.042 C 
HETATM    7  C           1       0.314   3.380  -1.632  0.00  0.00     0.229 C 
HETATM    8  H           1       1.714   2.279  -2.734  0.00  0.00     0.274 HD
HETATM    9  H           1       0.591   1.319  -1.880  0.00  0.00     0.274 HD
HETATM   10  H           1       0.112   2.133  -3.302  0.00  0.00     0.274 HD
HETATM   11  N           1       1.400   0.980  -0.370  0.00  0.00    -0.067 N 
HETATM   12  N           1       0.713   2.187  -2.449  0.00  0.00    -0.079 N 
HETATM   13  H           1       2.078   0.185  -0.369  0.00  0.00     0.275 HD
ENDROOT
BRANCH   3  14
HETATM   14  C           1      -0.218  -0.405   0.855  0.00  0.00     0.249 C 
HETATM   15  N           1       0.466  -1.591   0.854  0.00  0.00    -0.344 N 
HETATM   16  H           1       1.478  -1.592   0.855  0.00  0.00     0.163 HD
HETATM   17  O           1      -1.426  -0.404   0.854  0.00  0.00    -0.271 OA
BRANCH  15  18
HETATM   18  C           1      -0.261  -2.846   0.854  0.00  0.00     0.195 C 
BRANCH  18  19
HETATM   19  C           1       0.728  -4.004   0.854  0.00  0.00     0.149 C 
BRANCH  19  20
HETATM   20  C           1      -0.026  -5.311   0.854  0.00  0.00     0.175 C 
HETATM   21  O           1       0.599  -6.394   0.854  0.00  0.00    -0.648 OA
HETATM   22  O           1      -1.276  -5.311   0.854  0.00  0.00    -0.648 OA
ENDBRANCH  19  20
ENDBRANCH  18  19
BRANCH  18  23
HETATM   23  C           1      -1.129  -2.925   2.085  0.00  0.00     0.197 C 
HETATM   24  O           1      -2.014  -2.064   2.283  0.00  0.00    -0.646 OA
HETATM   25  O           1      -0.963  -3.851   2.909  0.00  0.00    -0.646 OA
ENDBRANCH  18  23
ENDBRANCH  15  18
ENDBRANCH   3  14
TORSDOF 5
