REMARK  5 active torsions:
REMARK  status: ('A' for Active; 'I' for Inactive)
REMARK       I    between atoms: C_2  and  N_8 
REMARK    1  A    between atoms: C_2  and  C_3 
REMARK    2  A    between atoms: C_5  and  C_24 
REMARK    3  A    between atoms: C_5  and  C_6 
REMARK    4  A    between atoms: C_6  and  C_7 
REMARK    5  A    between atoms: C_6  and  N_8 
REMARK       I    between atoms: N_16  and  C_24 
ROOT
HETATM    1  C           1      -0.267  -0.047   0.811  0.00  0.00     0.249 C 
HETATM    2  N           1       0.416  -1.233   0.811  0.00  0.00    -0.344 N 
HETATM    3  O           1      -1.475  -0.045   0.810  0.00  0.00    -0.271 OA
HETATM    4  H           1       1.428  -1.234   0.811  0.00  0.00     0.163 HD
ENDROOT
BRANCH   1   5
HETATM    5  C           1       0.489   1.259   0.812  0.00  0.00     0.274 C 
HETATM    6  C           1      -0.499   2.419   0.812  0.00  0.00     0.042 C 
HETATM    7  C           1      -1.375   2.340  -0.432  0.00  0.00     0.004 C 
HETATM    8  C           1      -1.195   3.606  -1.261  0.00  0.00     0.027 C 
HETATM    9  C           1       0.264   3.739  -1.675  0.00  0.00     0.229 C 
HETATM   10  N           1       0.663   2.546  -2.493  0.00  0.00    -0.079 N 
HETATM   11  H           1       0.541   1.678  -1.924  0.00  0.00     0.274 HD
HETATM   12  H           1       1.665   2.637  -2.777  0.00  0.00     0.274 HD
HETATM   13  H           1       0.062   2.491  -3.346  0.00  0.00     0.274 HD
HETATM   14  H           1       0.750   1.284  -1.266  0.00  0.00     0.275 HD
HETATM   15  N           1       1.351   1.338  -0.413  0.00  0.00    -0.067 N 
HETATM   16  H           1       2.029   0.543  -0.413  0.00  0.00     0.275 HD
HETATM   17  H           1       1.875   2.242  -0.414  0.00  0.00     0.275 HD
ENDBRANCH   1   5
BRANCH   2  18
HETATM   18  C           1      -0.310  -2.488   0.810  0.00  0.00     0.194 C 
BRANCH  18  19
HETATM   19  C           1       0.679  -3.646   0.810  0.00  0.00     0.138 C 
BRANCH  19  20
HETATM   20  C           1      -0.075  -4.953   0.810  0.00  0.00     0.217 C 
HETATM   21  O           1      -1.283  -4.953   0.810  0.00  0.00    -0.274 OA
HETATM   22  N           1       0.609  -6.138   0.810  0.00  0.00    -0.370 N 
HETATM   23  H           1       0.103  -7.015   0.810  0.00  0.00     0.159 HD
HETATM   24  H           1       1.621  -6.138   0.810  0.00  0.00     0.159 HD
ENDBRANCH  19  20
ENDBRANCH  18  19
BRANCH  18  25
HETATM   25  C           1      -1.178  -2.567   2.042  0.00  0.00     0.197 C 
HETATM   26  O           1      -2.063  -1.706   2.239  0.00  0.00    -0.646 OA
HETATM   27  O           1      -1.012  -3.493   2.865  0.00  0.00    -0.646 OA
ENDBRANCH  18  25
ENDBRANCH   2  18
TORSDOF 5
