REMARK  13 active torsions:
REMARK  status: ('A' for Active; 'I' for Inactive)
REMARK    1  A    between atoms: C_2  and  C_28 
REMARK    2  A    between atoms: C_2  and  C_3 
REMARK    3  A    between atoms: C_3  and  C_4 
REMARK    4  A    between atoms: C_4  and  C_5 
REMARK    5  A    between atoms: C_5  and  N_27 
REMARK    6  A    between atoms: N_6  and  C_12 
REMARK       I    between atoms: N_6  and  C_7 
REMARK    7  A    between atoms: C_7  and  C_28 
REMARK       I    between atoms: C_9  and  N_17 
REMARK       I    between atoms: C_9  and  N_24 
REMARK    8  A    between atoms: C_12  and  C_14 
REMARK    9  A    between atoms: C_12  and  C_29 
REMARK   10  A    between atoms: C_14  and  C_30 
REMARK   11  A    between atoms: C_23  and  N_26 
REMARK   12  A    between atoms: C_23  and  C_30 
REMARK   13  A    between atoms: C_28  and  N_32 
ROOT
HETATM    1  H           1       2.027  -0.898  -1.099  0.00  0.00     0.163 HD
HETATM    2  N           1       1.870  -0.011  -0.638  0.00  0.00    -0.345 N 
HETATM    3  C           1       1.055   0.926  -1.214  0.00  0.00     0.249 C 
HETATM    4  O           1       0.868   1.985  -0.664  0.00  0.00    -0.271 OA
ENDROOT
BRANCH   2   5
HETATM    5  C           1       2.509   0.268   0.633  0.00  0.00     0.185 C 
BRANCH   5   6
HETATM    6  C           1       3.355  -0.929   1.049  0.00  0.00     0.038 C 
BRANCH   6   7
HETATM    7  C           1       2.509  -1.886   1.878  0.00  0.00     0.023 C 
BRANCH   7   8
HETATM    8  C           1       2.000  -1.168   3.121  0.00  0.00     0.138 C 
BRANCH   8   9
HETATM    9  N           1       0.530  -1.168   3.121  0.00  0.00    -0.227 N 
HETATM   10  C           1      -0.103  -2.264   3.121  0.00  0.00     0.665 C 
HETATM   11  N           1      -1.403  -2.264   3.121  0.00  0.00    -0.235 N 
HETATM   12  N           1       0.530  -3.361   3.121  0.00  0.00    -0.235 N 
HETATM   13  H           1      -1.925  -1.359   3.121  0.00  0.00     0.174 HD
HETATM   14  H           1      -1.925  -3.169   3.121  0.00  0.00     0.174 HD
HETATM   15  H           1       1.580  -3.361   3.121  0.00  0.00     0.174 HD
HETATM   16  H           1       0.005  -4.270   3.121  0.00  0.00     0.174 HD
HETATM   17  H           1       0.005  -0.259   3.121  0.00  0.00     0.177 HD
ENDBRANCH   8   9
ENDBRANCH   7   8
ENDBRANCH   6   7
ENDBRANCH   5   6
BRANCH   5  18
HETATM   18  C           1       3.392   1.484   0.496  0.00  0.00     0.196 C 
HETATM   19  O           1       4.619   1.395   0.718  0.00  0.00    -0.646 OA
HETATM   20  O           1       2.895   2.581   0.161  0.00  0.00    -0.646 OA
ENDBRANCH   5  18
ENDBRANCH   2   5
BRANCH   3  21
HETATM   21  C           1       0.390   0.636  -2.538  0.00  0.00     0.274 C 
BRANCH  21  22
HETATM   22  C           1      -0.456   1.832  -2.955  0.00  0.00     0.042 C 
BRANCH  22  23
HETATM   23  C           1      -1.521   2.094  -1.898  0.00  0.00     0.004 C 
BRANCH  23  24
HETATM   24  C           1      -2.412   0.866  -1.760  0.00  0.00     0.027 C 
BRANCH  24  25
HETATM   25  C           1      -3.851   1.244  -2.085  0.00  0.00     0.229 C 
BRANCH  25  26
HETATM   26  N           1      -4.316   2.308  -1.136  0.00  0.00    -0.079 N 
HETATM   27  H           1      -3.706   3.151  -1.231  0.00  0.00     0.274 HD
HETATM   28  H           1      -5.304   2.567  -1.359  0.00  0.00     0.274 HD
HETATM   29  H           1      -4.264   1.948  -0.156  0.00  0.00     0.274 HD
ENDBRANCH  25  26
ENDBRANCH  24  25
ENDBRANCH  23  24
ENDBRANCH  22  23
ENDBRANCH  21  22
BRANCH  21  30
HETATM   30  N           1      -0.487  -0.573  -2.401  0.00  0.00    -0.067 N 
HETATM   31  H           1      -0.948  -0.775  -3.317  0.00  0.00     0.275 HD
HETATM   32  H           1       0.093  -1.394  -2.115  0.00  0.00     0.275 HD
HETATM   33  H           1      -1.218  -0.393  -1.676  0.00  0.00     0.275 HD
ENDBRANCH  21  30
ENDBRANCH   3  21
TORSDOF 13
