REMARK  12 active torsions:
REMARK  status: ('A' for Active; 'I' for Inactive)
REMARK    1  A    between atoms: C_3  and  C_25 
REMARK    2  A    between atoms: C_3  and  C_12 
REMARK    3  A    between atoms: C_5  and  C_12 
REMARK    4  A    between atoms: C_5  and  C_21 
REMARK    5  A    between atoms: C_5  and  N_7 
REMARK       I    between atoms: N_7  and  C_8 
REMARK    6  A    between atoms: C_8  and  C_20 
REMARK    7  A    between atoms: C_10  and  C_26 
REMARK    8  A    between atoms: C_10  and  C_22 
REMARK    9  A    between atoms: C_17  and  C_22 
REMARK   10  A    between atoms: C_17  and  N_18 
REMARK   11  A    between atoms: N_19  and  C_20 
REMARK   12  A    between atoms: C_20  and  C_26 
ROOT
HETATM    1  O           1       0.539  -0.607   0.904  0.00  0.00    -0.271 OA
HETATM    2  N           1       1.441   0.055  -1.028  0.00  0.00    -0.345 N 
HETATM    3  C           1       0.545   0.192  -0.002  0.00  0.00     0.249 C 
HETATM    4  H           1       1.447   0.724  -1.787  0.00  0.00     0.163 HD
ENDROOT
BRANCH   3   5
HETATM    5  C           1      -0.433   1.340  -0.003  0.00  0.00     0.274 C 
BRANCH   5   6
HETATM    6  N           1      -1.295   1.261  -1.228  0.00  0.00    -0.067 N 
HETATM    7  H           1      -1.819   0.356  -1.227  0.00  0.00     0.275 HD
HETATM    8  H           1      -0.694   1.315  -2.081  0.00  0.00     0.275 HD
HETATM    9  H           1      -1.974   2.056  -1.229  0.00  0.00     0.275 HD
ENDBRANCH   5   6
BRANCH   5  10
HETATM   10  C           1      -1.310   1.262   1.240  0.00  0.00     0.042 C 
BRANCH  10  11
HETATM   11  C           1      -2.074  -0.055   1.241  0.00  0.00     0.004 C 
BRANCH  11  12
HETATM   12  C           1      -3.571   0.225   1.240  0.00  0.00     0.027 C 
BRANCH  12  13
HETATM   13  C           1      -3.939   1.026   2.482  0.00  0.00     0.229 C 
BRANCH  13  14
HETATM   14  N           1      -3.188   2.324   2.482  0.00  0.00    -0.079 N 
HETATM   15  H           1      -3.441   2.873   3.334  0.00  0.00     0.274 HD
HETATM   16  H           1      -2.161   2.131   2.484  0.00  0.00     0.274 HD
HETATM   17  H           1      -3.439   2.871   1.628  0.00  0.00     0.274 HD
ENDBRANCH  13  14
ENDBRANCH  12  13
ENDBRANCH  11  12
ENDBRANCH  10  11
ENDBRANCH   5  10
ENDBRANCH   3   5
BRANCH   2  18
HETATM   18  C           1       2.382  -1.048  -1.027  0.00  0.00     0.186 C 
BRANCH  18  19
HETATM   19  C           1       3.258  -0.969  -2.271  0.00  0.00     0.046 C 
BRANCH  19  20
HETATM   20  C           1       4.247  -2.127  -2.271  0.00  0.00     0.116 C 
BRANCH  20  21
HETATM   21  C           1       3.492  -3.434  -2.271  0.00  0.00     0.172 C 
HETATM   22  O           1       2.242  -3.434  -2.271  0.00  0.00    -0.648 OA
HETATM   23  O           1       4.117  -4.516  -2.271  0.00  0.00    -0.648 OA
ENDBRANCH  20  21
ENDBRANCH  19  20
ENDBRANCH  18  19
BRANCH  18  24
HETATM   24  C           1       3.248  -0.969   0.205  0.00  0.00     0.196 C 
HETATM   25  O           1       4.488  -0.855   0.092  0.00  0.00    -0.646 OA
HETATM   26  O           1       2.727  -1.016   1.340  0.00  0.00    -0.646 OA
ENDBRANCH  18  24
ENDBRANCH   2  18
TORSDOF 12
