REMARK  12 active torsions:
REMARK  status: ('A' for Active; 'I' for Inactive)
REMARK    1  A    between atoms: C_1  and  C_22 
REMARK    2  A    between atoms: C_1  and  C_10 
REMARK    3  A    between atoms: C_2  and  O_25 
REMARK    4  A    between atoms: N_3  and  C_10 
REMARK    5  A    between atoms: C_6  and  C_20 
REMARK    6  A    between atoms: C_6  and  C_24 
REMARK    7  A    between atoms: C_8  and  C_24 
REMARK    8  A    between atoms: C_9  and  C_13 
REMARK    9  A    between atoms: C_9  and  C_23 
REMARK   10  A    between atoms: C_9  and  N_18 
REMARK       I    between atoms: C_13  and  N_15 
REMARK   11  A    between atoms: N_15  and  C_24 
REMARK   12  A    between atoms: C_22  and  C_23 
ROOT
HETATM    1  C           1      -1.007  -1.245   0.243  0.00  0.00     0.249 C 
HETATM    2  O           1      -1.753  -1.247  -0.707  0.00  0.00    -0.271 OA
HETATM    3  N           1       0.273  -1.710   0.109  0.00  0.00    -0.344 N 
HETATM    4  H           1       0.898  -1.708   0.905  0.00  0.00     0.163 HD
ENDROOT
BRANCH   1   5
HETATM    5  C           1      -1.487  -0.730   1.578  0.00  0.00     0.274 C 
BRANCH   5   6
HETATM    6  C           1      -2.936  -0.276   1.456  0.00  0.00     0.042 C 
BRANCH   6   7
HETATM    7  C           1      -3.036   0.834   0.419  0.00  0.00     0.004 C 
BRANCH   7   8
HETATM    8  C           1      -2.171   2.012   0.849  0.00  0.00     0.027 C 
BRANCH   8   9
HETATM    9  C           1      -3.042   3.249   1.015  0.00  0.00     0.229 C 
BRANCH   9  10
HETATM   10  N           1      -4.087   2.989   2.060  0.00  0.00    -0.079 N 
HETATM   11  H           1      -4.685   3.839   2.174  0.00  0.00     0.274 HD
HETATM   12  H           1      -4.681   2.183   1.764  0.00  0.00     0.274 HD
HETATM   13  H           1      -3.622   2.766   2.969  0.00  0.00     0.274 HD
ENDBRANCH   9  10
ENDBRANCH   8   9
ENDBRANCH   7   8
ENDBRANCH   6   7
ENDBRANCH   5   6
BRANCH   5  14
HETATM   14  N           1      -0.635   0.430   2.001  0.00  0.00    -0.067 N 
HETATM   15  H           1      -0.967   0.787   2.926  0.00  0.00     0.275 HD
HETATM   16  H           1       0.359   0.118   2.085  0.00  0.00     0.275 HD
HETATM   17  H           1      -0.704   1.191   1.289  0.00  0.00     0.275 HD
ENDBRANCH   5  14
ENDBRANCH   1   5
BRANCH   3  18
HETATM   18  C           1       0.735  -2.204  -1.173  0.00  0.00     0.189 C 
BRANCH  18  19
HETATM   19  C           1       2.184  -2.658  -1.050  0.00  0.00     0.074 C 
BRANCH  19  20
HETATM   20  C           1       3.094  -1.509  -1.355  0.00  0.00    -0.056 A 
HETATM   21  C           1       2.559  -0.264  -1.687  0.00  0.00     0.010 A 
HETATM   22  C           1       3.408   0.806  -1.971  0.00  0.00     0.037 A 
HETATM   23  C           1       4.791   0.631  -1.923  0.00  0.00     0.065 A 
HETATM   24  C           1       5.325  -0.613  -1.590  0.00  0.00     0.037 A 
HETATM   25  C           1       4.477  -1.684  -1.306  0.00  0.00     0.010 A 
BRANCH  23  26
HETATM   26  O           1       5.615   1.671  -2.198  0.00  0.00    -0.361 OA
HETATM   27  H           1       5.064   2.444  -2.405  0.00  0.00     0.217 HD
ENDBRANCH  23  26
ENDBRANCH  19  20
ENDBRANCH  18  19
BRANCH  18  28
HETATM   28  C           1      -0.123  -3.370  -1.600  0.00  0.00     0.197 C 
HETATM   29  O           1      -1.353  -3.215  -1.761  0.00  0.00    -0.646 OA
HETATM   30  O           1       0.396  -4.491  -1.793  0.00  0.00    -0.646 OA
ENDBRANCH  18  28
ENDBRANCH   3  18
TORSDOF 12
