REMARK  14 active torsions:
REMARK  status: ('A' for Active; 'I' for Inactive)
REMARK    1  A    between atoms: C_5  and  C_21 
REMARK    2  A    between atoms: C_5  and  C_6 
REMARK    3  A    between atoms: C_5  and  N_32 
REMARK    4  A    between atoms: C_6  and  C_25 
REMARK    5  A    between atoms: O_7  and  C_26 
REMARK    6  A    between atoms: O_7  and  P_15 
REMARK    7  A    between atoms: C_9  and  C_10 
REMARK    8  A    between atoms: C_10  and  C_23 
REMARK    9  A    between atoms: C_11  and  C_23 
REMARK   10  A    between atoms: P_15  and  O_28 
REMARK   11  A    between atoms: N_16  and  C_23 
REMARK       I    between atoms: N_16  and  C_21 
REMARK   12  A    between atoms: C_24  and  C_25 
REMARK   13  A    between atoms: C_24  and  C_34 
REMARK   14  A    between atoms: N_33  and  C_34 
ROOT
HETATM    1  N           1       2.922   1.409  -0.516  0.00  0.00    -0.344 N 
HETATM    2  H           1       3.709   2.019  -0.335  0.00  0.00     0.163 HD
HETATM    3  C           1       2.289   0.781   0.524  0.00  0.00     0.249 C 
HETATM    4  O           1       2.662  -0.309   0.888  0.00  0.00    -0.271 OA
ENDROOT
BRANCH   1   5
HETATM    5  C           1       2.465   1.200  -1.875  0.00  0.00     0.189 C 
BRANCH   5   6
HETATM    6  C           1       1.016   1.653  -1.998  0.00  0.00     0.074 C 
BRANCH   6   7
HETATM    7  C           1       0.105   0.504  -1.694  0.00  0.00    -0.056 A 
HETATM    8  C           1       0.640  -0.740  -1.361  0.00  0.00     0.010 A 
HETATM    9  C           1      -0.208  -1.810  -1.077  0.00  0.00     0.038 A 
HETATM   10  C           1      -1.591  -1.636  -1.126  0.00  0.00     0.081 A 
HETATM   11  C           1      -2.126  -0.391  -1.458  0.00  0.00     0.038 A 
HETATM   12  C           1      -1.278   0.679  -1.742  0.00  0.00     0.010 A 
BRANCH  10  13
HETATM   13  O           1      -2.415  -2.676  -0.850  0.00  0.00    -0.247 OA
BRANCH  13  14
HETATM   14  P           1      -1.745  -4.095  -0.471  0.00  0.00     0.411 P 
HETATM   15  O           1      -0.903  -4.560  -1.596  0.00  0.00    -0.624 OA
HETATM   16  O           1      -2.809  -5.089  -0.208  0.00  0.00    -0.624 OA
BRANCH  14  17
HETATM   17  O           1      -0.830  -3.922   0.848  0.00  0.00    -0.300 OA
HETATM   18  H           1      -0.473  -4.778   1.012  0.00  0.00     0.223 HD
ENDBRANCH  14  17
ENDBRANCH  13  14
ENDBRANCH  10  13
ENDBRANCH   6   7
ENDBRANCH   5   6
BRANCH   5  19
HETATM   19  C           1       3.325   1.999  -2.823  0.00  0.00     0.197 C 
HETATM   20  O           1       4.555   1.785  -2.882  0.00  0.00    -0.646 OA
HETATM   21  O           1       2.807   2.875  -3.549  0.00  0.00    -0.646 OA
ENDBRANCH   5  19
ENDBRANCH   1   5
BRANCH   3  22
HETATM   22  C           1       1.126   1.451   1.214  0.00  0.00     0.274 C 
BRANCH  22  23
HETATM   23  C           1       0.607   0.548   2.326  0.00  0.00     0.042 C 
BRANCH  23  24
HETATM   24  C           1       0.150  -0.777   1.732  0.00  0.00     0.004 C 
BRANCH  24  25
HETATM   25  C           1      -1.329  -0.985   2.033  0.00  0.00     0.027 C 
BRANCH  25  26
HETATM   26  C           1      -2.137   0.150   1.419  0.00  0.00     0.229 C 
BRANCH  26  27
HETATM   27  N           1      -1.688   1.457   2.003  0.00  0.00    -0.079 N 
HETATM   28  H           1      -0.674   1.600   1.796  0.00  0.00     0.274 HD
HETATM   29  H           1      -2.242   2.236   1.582  0.00  0.00     0.274 HD
HETATM   30  H           1      -1.835   1.445   3.038  0.00  0.00     0.274 HD
ENDBRANCH  26  27
ENDBRANCH  25  26
ENDBRANCH  24  25
ENDBRANCH  23  24
ENDBRANCH  22  23
BRANCH  22  31
HETATM   31  N           1       0.031   1.699   0.220  0.00  0.00    -0.067 N 
HETATM   32  H           1      -0.775   2.162   0.697  0.00  0.00     0.275 HD
HETATM   33  H           1       0.387   2.318  -0.543  0.00  0.00     0.275 HD
HETATM   34  H           1      -0.282   0.789  -0.187  0.00  0.00     0.275 HD
ENDBRANCH  22  31
ENDBRANCH   3  22
TORSDOF 14
