REMARK  11 active torsions:
REMARK  status: ('A' for Active; 'I' for Inactive)
REMARK    1  A    between atoms: C_2  and  C_17 
REMARK    2  A    between atoms: C_2  and  C_14 
REMARK    3  A    between atoms: C_7  and  C_18 
REMARK    4  A    between atoms: C_7  and  C_17 
REMARK    5  A    between atoms: N_8  and  C_30 
REMARK       I    between atoms: N_8  and  C_19 
REMARK    6  A    between atoms: N_12  and  C_14 
REMARK    7  A    between atoms: N_13  and  C_18 
REMARK    8  A    between atoms: C_16  and  C_30 
REMARK    9  A    between atoms: C_18  and  C_19 
REMARK   10  A    between atoms: C_26  and  C_27 
REMARK   11  A    between atoms: C_27  and  C_30 
ROOT
HETATM    1  H           1      -4.318  -0.249   0.739  0.00  0.00     0.163 HD
HETATM    2  N           1      -3.314  -0.321   0.836  0.00  0.00    -0.344 N 
HETATM    3  O           1      -2.374  -2.172   0.015  0.00  0.00    -0.271 OA
HETATM    4  C           1      -2.581  -0.989  -0.108  0.00  0.00     0.249 C 
ENDROOT
BRANCH   2   5
HETATM    5  C           1      -2.650   0.284   1.974  0.00  0.00     0.190 C 
BRANCH   5   6
HETATM    6  C           1      -3.675   0.953   2.856  0.00  0.00     0.197 C 
HETATM    7  O           1      -4.595   0.279   3.367  0.00  0.00    -0.646 OA
HETATM    8  O           1      -3.604   2.182   3.076  0.00  0.00    -0.646 OA
ENDBRANCH   5   6
BRANCH   5   9
HETATM    9  C           1      -1.647   1.321   1.484  0.00  0.00     0.077 C 
BRANCH   9  10
HETATM   10  C           1      -0.317   0.667   1.269  0.00  0.00    -0.021 A 
HETATM   11  C           1       0.868   1.308   0.814  0.00  0.00     0.005 A 
HETATM   12  C           1       1.866   0.334   0.757  0.00  0.00     0.132 A 
HETATM   13  C           1       1.189   2.629   0.446  0.00  0.00     0.014 A 
HETATM   14  N           1       1.296  -0.852   1.163  0.00  0.00    -0.077 N 
HETATM   15  C           1       3.174   0.616   0.346  0.00  0.00     0.037 A 
HETATM   16  C           1      -0.024  -0.662   1.475  0.00  0.00     0.195 A 
HETATM   17  H           1       1.802  -1.770   1.224  0.00  0.00     0.271 HD
HETATM   18  C           1       3.468   1.934  -0.015  0.00  0.00     0.002 A 
HETATM   19  C           1       2.492   2.928   0.033  0.00  0.00     0.001 A 
ENDBRANCH   9  10
ENDBRANCH   5   9
ENDBRANCH   2   5
BRANCH   4  20
HETATM   20  C           1      -2.034  -0.247  -1.303  0.00  0.00     0.274 C 
BRANCH  20  21
HETATM   21  C           1      -1.263  -1.214  -2.192  0.00  0.00     0.043 C 
BRANCH  21  22
HETATM   22  C           1      -0.112  -1.824  -1.403  0.00  0.00     0.006 C 
BRANCH  22  23
HETATM   23  C           1       0.821  -0.718  -0.929  0.00  0.00     0.420 C 
BRANCH  23  24
HETATM   24  C           1       2.213  -0.947  -1.502  0.00  0.00     0.231 C 
BRANCH  24  25
HETATM   25  N           1       2.735  -2.274  -1.037  0.00  0.00    -0.079 N 
HETATM   26  H           1       2.095  -3.033  -1.363  0.00  0.00     0.274 HD
HETATM   27  H           1       3.690  -2.431  -1.430  0.00  0.00     0.274 HD
HETATM   28  H           1       2.783  -2.282   0.007  0.00  0.00     0.274 HD
ENDBRANCH  24  25
ENDBRANCH  23  24
ENDBRANCH  22  23
ENDBRANCH  21  22
ENDBRANCH  20  21
BRANCH  20  29
HETATM   29  N           1      -1.114   0.842  -0.836  0.00  0.00    -0.067 N 
HETATM   30  H           1      -0.734   1.357  -1.662  0.00  0.00     0.275 HD
HETATM   31  H           1      -1.643   1.506  -0.226  0.00  0.00     0.275 HD
HETATM   32  H           1      -0.325   0.423  -0.294  0.00  0.00     0.275 HD
ENDBRANCH  20  29
ENDBRANCH   4  20
TORSDOF 11
