REMARK  8 active torsions:
REMARK  status: ('A' for Active; 'I' for Inactive)
REMARK    1  A    between atoms: C_1  and  C_7 
REMARK    2  A    between atoms: C_1  and  C_9 
REMARK    3  A    between atoms: C_6  and  C_9 
REMARK    4  A    between atoms: C_6  and  N_12 
REMARK    5  A    between atoms: C_7  and  C_20 
REMARK       I    between atoms: N_11  and  C_21 
REMARK    6  A    between atoms: N_18  and  C_20 
REMARK    7  A    between atoms: C_19  and  C_22 
REMARK    8  A    between atoms: C_20  and  C_21 
ROOT
HETATM    1  C           1       0.821  -0.553   0.320  0.00  0.00     0.275 C 
ENDROOT
BRANCH   1   2
HETATM    2  C           1       1.612   0.738   0.485  0.00  0.00     0.042 C 
BRANCH   2   3
HETATM    3  C           1       1.034   1.809  -0.430  0.00  0.00     0.004 C 
BRANCH   3   4
HETATM    4  C           1       2.105   2.276  -1.407  0.00  0.00     0.027 C 
BRANCH   4   5
HETATM    5  C           1       3.283   2.852  -0.633  0.00  0.00     0.229 C 
BRANCH   5   6
HETATM    6  N           1       2.819   4.016   0.192  0.00  0.00    -0.079 N 
HETATM    7  H           1       3.627   4.411   0.723  0.00  0.00     0.274 HD
HETATM    8  H           1       2.084   3.696   0.863  0.00  0.00     0.274 HD
HETATM    9  H           1       2.422   4.751  -0.436  0.00  0.00     0.274 HD
ENDBRANCH   5   6
ENDBRANCH   4   5
ENDBRANCH   3   4
ENDBRANCH   2   3
ENDBRANCH   1   2
BRANCH   1  10
HETATM   10  N           1       0.906  -1.012  -1.105  0.00  0.00    -0.067 N 
HETATM   11  H           1       0.363  -1.898  -1.218  0.00  0.00     0.275 HD
HETATM   12  H           1       0.509  -0.277  -1.733  0.00  0.00     0.275 HD
HETATM   13  H           1       1.906  -1.182  -1.358  0.00  0.00     0.275 HD
ENDBRANCH   1  10
BRANCH   1  14
HETATM   14  C           1      -0.624  -0.308   0.683  0.00  0.00     0.251 C 
HETATM   15  N           1      -1.531  -1.331   0.611  0.00  0.00    -0.336 N 
HETATM   16  C           1      -2.956  -1.278   0.921  0.00  0.00     0.188 C 
HETATM   17  C           1      -1.283  -2.712   0.207  0.00  0.00     0.127 C 
HETATM   18  C           1      -3.595  -2.120  -0.171  0.00  0.00     0.038 C 
HETATM   19  C           1      -2.495  -3.066  -0.637  0.00  0.00     0.022 C 
HETATM   20  O           1      -0.979   0.791   1.038  0.00  0.00    -0.271 OA
BRANCH  16  21
HETATM   21  C           1      -3.232  -1.867   2.283  0.00  0.00     0.196 C 
HETATM   22  O           1      -4.402  -1.908   2.721  0.00  0.00    -0.646 OA
HETATM   23  O           1      -2.290  -2.313   2.973  0.00  0.00    -0.646 OA
ENDBRANCH  16  21
ENDBRANCH   1  14
TORSDOF 8
