REMARK  8 active torsions:
REMARK  status: ('A' for Active; 'I' for Inactive)
REMARK    1  A    between atoms: C_4  and  C_9 
REMARK    2  A    between atoms: C_5  and  N_17 
REMARK    3  A    between atoms: C_5  and  C_6 
REMARK    4  A    between atoms: C_6  and  C_22 
REMARK       I    between atoms: C_9  and  N_25 
REMARK    5  A    between atoms: C_21  and  C_22 
REMARK    6  A    between atoms: C_21  and  C_29 
REMARK    7  A    between atoms: N_25  and  C_29 
REMARK    8  A    between atoms: C_28  and  C_29 
ROOT
HETATM    1  C           1      -0.429   0.913  -0.408  0.00  0.00     0.249 C 
HETATM    2  H           1      -0.250  -1.149  -0.408  0.00  0.00     0.163 HD
HETATM    3  O           1       0.175   1.960  -0.409  0.00  0.00    -0.271 OA
HETATM    4  N           1       0.256  -0.272  -0.408  0.00  0.00    -0.345 N 
ENDROOT
BRANCH   1   5
HETATM    5  C           1      -1.938   0.913  -0.408  0.00  0.00     0.274 C 
HETATM    6  C           1      -2.446   2.349  -0.409  0.00  0.00     0.042 C 
HETATM    7  C           1      -1.939   3.068   0.834  0.00  0.00     0.004 C 
HETATM    8  C           1      -3.124   3.547   1.664  0.00  0.00     0.027 C 
HETATM    9  C           1      -3.970   2.350   2.079  0.00  0.00     0.229 C 
HETATM   10  N           1      -3.136   1.408   2.897  0.00  0.00    -0.079 N 
HETATM   11  H           1      -3.717   0.587   3.182  0.00  0.00     0.274 HD
HETATM   12  H           1      -2.324   1.079   2.327  0.00  0.00     0.274 HD
HETATM   13  H           1      -2.788   1.901   3.749  0.00  0.00     0.274 HD
HETATM   14  H           1      -2.088   0.701   1.670  0.00  0.00     0.275 HD
HETATM   15  N           1      -2.437   0.207   0.817  0.00  0.00    -0.067 N 
HETATM   16  H           1      -3.482   0.207   0.818  0.00  0.00     0.275 HD
HETATM   17  H           1      -2.089  -0.778   0.817  0.00  0.00     0.275 HD
ENDBRANCH   1   5
BRANCH   4  18
HETATM   18  C           1       1.706  -0.272  -0.408  0.00  0.00     0.185 C 
BRANCH  18  19
HETATM   19  C           1       2.213  -1.708  -0.408  0.00  0.00     0.036 C 
BRANCH  19  20
HETATM   20  C           1       3.736  -1.710  -0.409  0.00  0.00     0.004 C 
BRANCH  20  21
HETATM   21  C           1       4.243  -2.429  -1.652  0.00  0.00     0.027 C 
BRANCH  21  22
HETATM   22  C           1       3.734  -3.864  -1.652  0.00  0.00     0.229 C 
BRANCH  22  23
HETATM   23  N           1       2.234  -3.864  -1.652  0.00  0.00    -0.079 N 
HETATM   24  H           1       1.886  -3.372  -2.505  0.00  0.00     0.274 HD
HETATM   25  H           1       1.887  -3.372  -0.798  0.00  0.00     0.274 HD
HETATM   26  H           1       1.886  -4.849  -1.652  0.00  0.00     0.274 HD
ENDBRANCH  22  23
ENDBRANCH  21  22
ENDBRANCH  20  21
ENDBRANCH  19  20
ENDBRANCH  18  19
BRANCH  18  27
HETATM   27  C           1       2.208   0.439  -1.641  0.00  0.00     0.196 C 
HETATM   28  O           1       2.926  -0.169  -2.464  0.00  0.00    -0.646 OA
HETATM   29  O           1       1.906   1.636  -1.838  0.00  0.00    -0.646 OA
ENDBRANCH  18  27
ENDBRANCH   4  18
TORSDOF 8
