REMARK  4 active torsions:
REMARK  status: ('A' for Active; 'I' for Inactive)
REMARK    1  A    between atoms: C_1  and  C_2 
REMARK    2  A    between atoms: C_2  and  C_4 
REMARK    3  A    between atoms: C_2  and  N_16 
REMARK    4  A    between atoms: C_6  and  C_7 
REMARK       I    between atoms: C_7  and  N_16 
ROOT
HETATM    1  C           1       1.286   0.192   0.536  0.00  0.00     0.274 C 
HETATM    2  H           1      -0.360   1.043   1.512  0.00  0.00     0.255 HD
HETATM    3  H           1       1.032   2.029   1.511  0.00  0.00     0.275 HD
HETATM    4  H           1       1.426   2.118   2.180  0.00  0.00     0.274 HD
HETATM    5  C           1       1.793  -0.524   1.780  0.00  0.00     0.062 C 
HETATM    6  C           1       0.609  -1.001   2.611  0.00  0.00     0.004 C 
HETATM    7  H           1       2.356   0.805   2.752  0.00  0.00     0.254 HD
HETATM    8  C           1      -0.237   0.196   3.024  0.00  0.00     0.047 C 
HETATM    9  H           1       2.355   2.285   3.602  0.00  0.00     0.274 HD
HETATM   10  C           1       0.609   1.155   3.851  0.00  0.00     0.229 C 
HETATM   11  H           1       0.104   1.862   0.089  0.00  0.00     0.275 HD
HETATM   12  N           1       1.775   1.626   3.034  0.00  0.00    -0.080 N 
HETATM   13  N           1       0.452   1.371   0.943  0.00  0.00    -0.067 N 
ENDROOT
BRANCH   1  14
HETATM   14  C           1       0.447  -0.757  -0.285  0.00  0.00     0.249 C 
HETATM   15  N           1      -0.119  -0.332  -1.456  0.00  0.00    -0.344 N 
HETATM   16  H           1       0.025   0.618  -1.773  0.00  0.00     0.163 HD
HETATM   17  O           1       0.275  -1.892   0.093  0.00  0.00    -0.271 OA
BRANCH  15  18
HETATM   18  C           1      -0.925  -1.244  -2.245  0.00  0.00     0.189 C 
BRANCH  18  19
HETATM   19  C           1      -0.087  -2.430  -2.653  0.00  0.00     0.197 C 
HETATM   20  O           1       0.429  -3.161  -1.781  0.00  0.00    -0.646 OA
HETATM   21  O           1       0.091  -2.682  -3.865  0.00  0.00    -0.646 OA
ENDBRANCH  18  19
BRANCH  18  22
HETATM   22  C           1      -1.432  -0.527  -3.489  0.00  0.00     0.010 C 
HETATM   23  C           1      -0.924   0.909  -3.489  0.00  0.00     0.012 C 
HETATM   24  C           1      -2.955  -0.527  -3.489  0.00  0.00     0.012 C 
ENDBRANCH  18  22
ENDBRANCH  15  18
ENDBRANCH   1  14
TORSDOF 4
