REMARK  5 active torsions:
REMARK  status: ('A' for Active; 'I' for Inactive)
REMARK    1  A    between atoms: C_2  and  C_24 
REMARK    2  A    between atoms: C_5  and  C_6 
REMARK    3  A    between atoms: C_6  and  C_20 
REMARK    4  A    between atoms: C_6  and  N_23 
REMARK    5  A    between atoms: O_18  and  C_20 
REMARK       I    between atoms: N_23  and  C_24 
ROOT
HETATM    1  C           1       0.888  -0.063   0.879  0.00  0.00     0.274 C 
HETATM    2  C           1       2.078   2.568  -1.193  0.00  0.00     0.027 C 
HETATM    3  C           1       0.893   2.091  -0.365  0.00  0.00     0.004 C 
HETATM    4  C           1       2.923   1.370  -1.608  0.00  0.00     0.229 C 
HETATM    5  H           1       1.038  -1.756  -0.345  0.00  0.00     0.275 HD
HETATM    6  H           1       1.040  -0.277  -1.199  0.00  0.00     0.275 HD
HETATM    7  C           1       1.398   1.372   0.879  0.00  0.00     0.042 C 
HETATM    8  N           1       1.388  -0.771  -0.346  0.00  0.00    -0.067 N 
HETATM    9  H           1       1.277   0.100  -1.856  0.00  0.00     0.274 HD
HETATM   10  H           1       2.433  -0.772  -0.346  0.00  0.00     0.275 HD
HETATM   11  H           1       1.742   0.922  -3.278  0.00  0.00     0.274 HD
HETATM   12  H           1       2.669  -0.393  -2.710  0.00  0.00     0.274 HD
HETATM   13  N           1       2.090   0.428  -2.425  0.00  0.00    -0.079 N 
ENDROOT
BRANCH   1  14
HETATM   14  C           1      -0.621  -0.062   0.878  0.00  0.00     0.249 C 
HETATM   15  O           1      -1.224   0.985   0.878  0.00  0.00    -0.271 OA
HETATM   16  N           1      -1.306  -1.247   0.878  0.00  0.00    -0.343 N 
HETATM   17  H           1      -0.801  -2.124   0.879  0.00  0.00     0.163 HD
BRANCH  16  18
HETATM   18  C           1      -2.756  -1.245   0.877  0.00  0.00     0.209 C 
BRANCH  18  19
HETATM   19  C           1      -3.259  -0.533   2.109  0.00  0.00     0.198 C 
HETATM   20  O           1      -2.956   0.663   2.306  0.00  0.00    -0.646 OA
HETATM   21  O           1      -3.978  -1.140   2.932  0.00  0.00    -0.646 OA
ENDBRANCH  18  19
BRANCH  18  22
HETATM   22  C           1      -3.265  -2.681   0.877  0.00  0.00     0.200 C 
BRANCH  22  23
HETATM   23  O           1      -4.667  -2.681   0.877  0.00  0.00    -0.398 OA
HETATM   24  H           1      -4.941  -3.582   0.877  0.00  0.00     0.209 HD
ENDBRANCH  22  23
ENDBRANCH  18  22
ENDBRANCH  16  18
ENDBRANCH   1  14
TORSDOF 5
