REMARK  11 active torsions:
REMARK  status: ('A' for Active; 'I' for Inactive)
REMARK    1  A    between atoms: C_1  and  C_13 
REMARK    2  A    between atoms: C_1  and  C_16 
REMARK    3  A    between atoms: C_1  and  N_6 
REMARK    4  A    between atoms: N_4  and  C_23 
REMARK       I    between atoms: N_4  and  C_13 
REMARK    5  A    between atoms: C_5  and  C_21 
REMARK    6  A    between atoms: C_5  and  N_14 
REMARK    7  A    between atoms: C_7  and  C_22 
REMARK    8  A    between atoms: C_7  and  C_23 
REMARK    9  A    between atoms: C_16  and  C_24 
REMARK   10  A    between atoms: C_18  and  C_23 
REMARK   11  A    between atoms: C_21  and  C_24 
ROOT
HETATM    1  C           1      -0.090  -0.543  -1.356  0.00  0.00     0.274 C 
ENDROOT
BRANCH   1   2
HETATM    2  C           1       0.748   0.406  -0.535  0.00  0.00     0.249 C 
HETATM    3  N           1       1.316  -0.019   0.636  0.00  0.00    -0.344 N 
HETATM    4  H           1       1.173  -0.970   0.951  0.00  0.00     0.163 HD
HETATM    5  O           1       0.919   1.541  -0.912  0.00  0.00    -0.271 OA
BRANCH   3   6
HETATM    6  C           1       2.121   0.893   1.424  0.00  0.00     0.189 C 
BRANCH   6   7
HETATM    7  C           1       2.630   0.175   2.667  0.00  0.00     0.014 C 
HETATM    8  C           1       2.123   0.894   3.911  0.00  0.00     0.012 C 
BRANCH   7   9
HETATM    9  C           1       2.122  -1.260   2.667  0.00  0.00     0.002 C 
HETATM   10  C           1       0.599  -1.260   2.667  0.00  0.00     0.005 C 
ENDBRANCH   7   9
ENDBRANCH   6   7
BRANCH   6  11
HETATM   11  C           1       3.294   1.367   0.601  0.00  0.00     0.197 C 
HETATM   12  O           1       3.099   1.984  -0.468  0.00  0.00    -0.646 OA
HETATM   13  O           1       4.461   1.143   0.989  0.00  0.00    -0.646 OA
ENDBRANCH   6  11
ENDBRANCH   3   6
ENDBRANCH   1   2
BRANCH   1  14
HETATM   14  C           1      -0.599   0.173  -2.600  0.00  0.00     0.042 C 
BRANCH  14  15
HETATM   15  C           1      -1.446   1.370  -2.186  0.00  0.00     0.004 C 
BRANCH  15  16
HETATM   16  C           1      -2.856   1.209  -2.738  0.00  0.00     0.027 C 
BRANCH  16  17
HETATM   17  C           1      -3.477  -0.067  -2.184  0.00  0.00     0.229 C 
BRANCH  17  18
HETATM   18  N           1      -2.644  -1.246  -2.591  0.00  0.00    -0.079 N 
HETATM   19  H           1      -1.677  -1.136  -2.211  0.00  0.00     0.274 HD
HETATM   20  H           1      -3.070  -2.121  -2.211  0.00  0.00     0.274 HD
HETATM   21  H           1      -2.606  -1.302  -3.634  0.00  0.00     0.274 HD
ENDBRANCH  17  18
ENDBRANCH  16  17
ENDBRANCH  15  16
ENDBRANCH  14  15
ENDBRANCH   1  14
BRANCH   1  22
HETATM   22  N           1      -1.256  -1.014  -0.538  0.00  0.00    -0.067 N 
HETATM   23  H           1      -1.837  -1.671  -1.106  0.00  0.00     0.275 HD
HETATM   24  H           1      -0.907  -1.506   0.315  0.00  0.00     0.275 HD
HETATM   25  H           1      -1.836  -0.192  -0.254  0.00  0.00     0.275 HD
ENDBRANCH   1  22
TORSDOF 11
