REMARK  5 active torsions:
REMARK  status: ('A' for Active; 'I' for Inactive)
REMARK       I    between atoms: C_8  and  N_9 
REMARK    1  A    between atoms: C_8  and  C_17 
REMARK    2  A    between atoms: N_9  and  C_10 
REMARK    3  A    between atoms: C_10  and  C_22 
REMARK    4  A    between atoms: C_10  and  C_11 
REMARK    5  A    between atoms: C_22  and  Se_23 
ROOT
HETATM    1  H           1       1.768   0.937  -3.278  0.00  0.00     0.274 HD
HETATM    2  H           1       1.303   0.116  -1.856  0.00  0.00     0.274 HD
HETATM    3  H           1       2.695  -0.377  -2.710  0.00  0.00     0.274 HD
HETATM    4  N           1       1.414  -0.755  -0.346  0.00  0.00    -0.067 N 
HETATM    5  C           1       0.919   2.106  -0.365  0.00  0.00     0.004 C 
HETATM    6  C           1       2.104   2.583  -1.193  0.00  0.00     0.027 C 
HETATM    7  C           1       2.949   1.386  -1.608  0.00  0.00     0.229 C 
HETATM    8  N           1       2.116   0.444  -2.425  0.00  0.00    -0.079 N 
HETATM    9  C           1       1.424   1.387   0.879  0.00  0.00     0.042 C 
HETATM   10  C           1       0.914  -0.048   0.879  0.00  0.00     0.274 C 
HETATM   11  H           1       1.066  -0.261  -1.199  0.00  0.00     0.275 HD
HETATM   12  H           1       1.064  -1.740  -0.345  0.00  0.00     0.275 HD
HETATM   13  H           1       2.459  -0.757  -0.346  0.00  0.00     0.275 HD
ENDROOT
BRANCH  10  14
HETATM   14  C           1      -0.595  -0.046   0.878  0.00  0.00     0.249 C 
HETATM   15  O           1      -1.198   1.001   0.878  0.00  0.00    -0.271 OA
HETATM   16  N           1      -1.280  -1.231   0.878  0.00  0.00    -0.345 N 
HETATM   17  H           1      -0.775  -2.108   0.879  0.00  0.00     0.163 HD
BRANCH  16  18
HETATM   18  C           1      -2.730  -1.230   0.877  0.00  0.00     0.185 C 
BRANCH  18  19
HETATM   19  C           1      -3.239  -2.665   0.877  0.00  0.00     0.039 C 
BRANCH  19  20
HETATM   20 Se           1      -5.188  -2.665   0.877  0.00  0.00     0.000 Se
HETATM   21  H           1      -5.303  -4.133   0.877  0.00  0.00     0.000 HD
ENDBRANCH  19  20
ENDBRANCH  18  19
BRANCH  18  22
HETATM   22  C           1      -3.233  -0.517   2.109  0.00  0.00     0.196 C 
HETATM   23  O           1      -2.930   0.679   2.306  0.00  0.00    -0.646 OA
HETATM   24  O           1      -3.952  -1.124   2.932  0.00  0.00    -0.646 OA
ENDBRANCH  18  22
ENDBRANCH  16  18
ENDBRANCH  10  14
TORSDOF 5
