REMARK  9 active torsions:
REMARK  status: ('A' for Active; 'I' for Inactive)
REMARK    1  A    between atoms: C_2  and  C_12 
REMARK    2  A    between atoms: C_2  and  N_3 
REMARK    3  A    between atoms: N_6  and  C_16 
REMARK       I    between atoms: N_6  and  C_7 
REMARK    4  A    between atoms: C_7  and  C_8 
REMARK    5  A    between atoms: C_8  and  C_13 
REMARK    6  A    between atoms: C_8  and  N_19 
REMARK    7  A    between atoms: C_9  and  C_16 
REMARK    8  A    between atoms: C_12  and  C_21 
REMARK    9  A    between atoms: C_13  and  C_21 
ROOT
HETATM    1  C           1      -0.155   0.396   1.433  0.00  0.00     0.274 C 
ENDROOT
BRANCH   1   2
HETATM    2  C           1      -0.658   1.106   0.201  0.00  0.00     0.249 C 
HETATM    3  N           1      -2.004   1.232  -0.017  0.00  0.00    -0.345 N 
HETATM    4  H           1      -2.662   0.848   0.649  0.00  0.00     0.163 HD
HETATM    5  O           1       0.128   1.565  -0.595  0.00  0.00    -0.271 OA
BRANCH   3   6
HETATM    6  C           1      -2.486   1.915  -1.201  0.00  0.00     0.181 C 
HETATM    7  C           1      -4.009   1.915  -1.201  0.00  0.00     0.043 C 
BRANCH   6   8
HETATM    8  C           1      -1.982   3.337  -1.201  0.00  0.00     0.196 C 
HETATM    9  O           1      -0.753   3.565  -1.201  0.00  0.00    -0.646 OA
HETATM   10  O           1      -2.794   4.288  -1.201  0.00  0.00    -0.646 OA
ENDBRANCH   6   8
ENDBRANCH   3   6
ENDBRANCH   1   2
BRANCH   1  11
HETATM   11  C           1       1.368   0.395   1.435  0.00  0.00     0.042 C 
BRANCH  11  12
HETATM   12  C           1       1.877  -0.324   0.192  0.00  0.00     0.004 C 
BRANCH  12  13
HETATM   13  C           1       1.369  -1.760   0.192  0.00  0.00     0.027 C 
BRANCH  13  14
HETATM   14  C           1       2.553  -2.718   0.194  0.00  0.00     0.229 C 
BRANCH  14  15
HETATM   15  N           1       3.389  -2.483  -1.030  0.00  0.00    -0.079 N 
HETATM   16  H           1       4.201  -3.140  -1.028  0.00  0.00     0.274 HD
HETATM   17  H           1       2.809  -2.648  -1.883  0.00  0.00     0.274 HD
HETATM   18  H           1       3.738  -1.498  -1.029  0.00  0.00     0.274 HD
ENDBRANCH  14  15
ENDBRANCH  13  14
ENDBRANCH  12  13
ENDBRANCH  11  12
ENDBRANCH   1  11
BRANCH   1  19
HETATM   19  N           1      -0.655  -1.018   1.433  0.00  0.00    -0.067 N 
HETATM   20  H           1      -0.306  -1.511   0.580  0.00  0.00     0.275 HD
HETATM   21  H           1      -1.700  -1.018   1.433  0.00  0.00     0.275 HD
HETATM   22  H           1      -0.308  -1.511   2.286  0.00  0.00     0.275 HD
ENDBRANCH   1  19
TORSDOF 9
