REMARK  5 active torsions:
REMARK  status: ('A' for Active; 'I' for Inactive)
REMARK    1  A    between atoms: C_2  and  C_18 
REMARK    2  A    between atoms: S_3  and  C_19 
REMARK       I    between atoms: C_9  and  N_11 
REMARK    3  A    between atoms: C_9  and  C_10 
REMARK    4  A    between atoms: N_11  and  C_18 
REMARK    5  A    between atoms: C_18  and  C_19 
ROOT
HETATM    1  H           1       1.761   0.934  -3.278  0.00  0.00     0.274 HD
HETATM    2  H           1       1.296   0.112  -1.856  0.00  0.00     0.274 HD
HETATM    3  C           1       2.097   2.580  -1.193  0.00  0.00     0.027 C 
HETATM    4  C           1       2.942   1.383  -1.608  0.00  0.00     0.229 C 
HETATM    5  C           1       0.908  -0.051   0.879  0.00  0.00     0.274 C 
HETATM    6  H           1       1.059  -0.265  -1.199  0.00  0.00     0.275 HD
HETATM    7  N           1       2.109   0.441  -2.425  0.00  0.00    -0.079 N 
HETATM    8  C           1       1.417   1.384   0.879  0.00  0.00     0.042 C 
HETATM    9  C           1       0.912   2.103  -0.365  0.00  0.00     0.004 C 
HETATM   10  H           1       1.057  -1.743  -0.345  0.00  0.00     0.275 HD
HETATM   11  N           1       1.407  -0.759  -0.346  0.00  0.00    -0.067 N 
HETATM   12  H           1       2.452  -0.760  -0.346  0.00  0.00     0.275 HD
HETATM   13  H           1       2.688  -0.381  -2.710  0.00  0.00     0.274 HD
ENDROOT
BRANCH   5  14
HETATM   14  C           1      -0.601  -0.050   0.878  0.00  0.00     0.249 C 
HETATM   15  N           1      -1.287  -1.235   0.878  0.00  0.00    -0.344 N 
HETATM   16  H           1      -0.782  -2.112   0.879  0.00  0.00     0.163 HD
HETATM   17  O           1      -1.204   0.997   0.878  0.00  0.00    -0.271 OA
BRANCH  15  18
HETATM   18  C           1      -2.737  -1.233   0.877  0.00  0.00     0.194 C 
BRANCH  18  19
HETATM   19  C           1      -3.239  -0.521   2.109  0.00  0.00     0.197 C 
HETATM   20  O           1      -3.958  -1.128   2.932  0.00  0.00    -0.646 OA
HETATM   21  O           1      -2.937   0.676   2.306  0.00  0.00    -0.646 OA
ENDBRANCH  18  19
BRANCH  18  22
HETATM   22  C           1      -3.246  -2.669   0.877  0.00  0.00     0.106 C 
BRANCH  22  23
HETATM   23  S           1      -5.061  -2.669   0.877  0.00  0.00    -0.180 SA
HETATM   24  H           1      -5.201  -4.007   0.877  0.00  0.00     0.101 HD
ENDBRANCH  22  23
ENDBRANCH  18  22
ENDBRANCH  15  18
ENDBRANCH   5  14
TORSDOF 5
