REMARK  13 active torsions:
REMARK  status: ('A' for Active; 'I' for Inactive)
REMARK    1  A    between atoms: C_7  and  C_8 
REMARK    2  A    between atoms: C_7  and  C_14 
REMARK    3  A    between atoms: C_8  and  C_9 
REMARK    4  A    between atoms: C_8  and  N_23 
REMARK       I    between atoms: C_9  and  N_26 
REMARK    5  A    between atoms: C_10  and  C_12 
REMARK    6  A    between atoms: C_12  and  C_20 
REMARK    7  A    between atoms: C_12  and  N_26 
REMARK    8  A    between atoms: C_13  and  C_14 
REMARK    9  A    between atoms: C_13  and  C_25 
REMARK   10  A    between atoms: P_18  and  O_19 
REMARK   11  A    between atoms: P_18  and  O_28 
REMARK   12  A    between atoms: O_19  and  C_20 
REMARK   13  A    between atoms: N_24  and  C_25 
ROOT
HETATM    1  C           1       0.864  -1.023   1.001  0.00  0.00     0.249 C 
HETATM    2  H           1       0.086  -2.888   0.552  0.00  0.00     0.163 HD
HETATM    3  O           1       0.860  -0.114   1.796  0.00  0.00    -0.271 OA
HETATM    4  N           1       0.082  -2.126   1.218  0.00  0.00    -0.343 N 
ENDROOT
BRANCH   1   5
HETATM    5  C           1       1.730  -0.943  -0.232  0.00  0.00     0.274 C 
BRANCH   5   6
HETATM    6  C           1       2.493   0.375  -0.233  0.00  0.00     0.042 C 
BRANCH   6   7
HETATM    7  C           1       1.504   1.534  -0.232  0.00  0.00     0.004 C 
BRANCH   7   8
HETATM    8  C           1       0.627   1.454  -1.475  0.00  0.00     0.027 C 
BRANCH   8   9
HETATM    9  C           1       0.805   2.719  -2.305  0.00  0.00     0.229 C 
BRANCH   9  10
HETATM   10  N           1       2.241   2.850  -2.716  0.00  0.00    -0.079 N 
HETATM   11  H           1       2.843   2.906  -1.863  0.00  0.00     0.274 HD
HETATM   12  H           1       2.363   3.718  -3.285  0.00  0.00     0.274 HD
HETATM   13  H           1       2.518   2.018  -3.285  0.00  0.00     0.274 HD
ENDBRANCH   9  10
ENDBRANCH   8   9
ENDBRANCH   7   8
ENDBRANCH   6   7
ENDBRANCH   5   6
BRANCH   5  14
HETATM   14  N           1       0.866  -1.022  -1.455  0.00  0.00    -0.067 N 
HETATM   15  H           1       0.344  -1.927  -1.455  0.00  0.00     0.275 HD
HETATM   16  H           1       1.466  -0.967  -2.310  0.00  0.00     0.275 HD
HETATM   17  H           1       0.188  -0.227  -1.454  0.00  0.00     0.275 HD
ENDBRANCH   5  14
ENDBRANCH   1   5
BRANCH   4  18
HETATM   18  C           1      -0.750  -2.203   2.403  0.00  0.00     0.210 C 
BRANCH  18  19
HETATM   19  C           1      -1.505  -3.509   2.403  0.00  0.00     0.198 C 
HETATM   20  O           1      -2.755  -3.509   2.403  0.00  0.00    -0.646 OA
HETATM   21  O           1      -0.880  -4.592   2.403  0.00  0.00    -0.646 OA
ENDBRANCH  18  19
BRANCH  18  22
HETATM   22  C           1      -1.739  -1.044   2.403  0.00  0.00     0.217 C 
BRANCH  22  23
HETATM   23  O           1      -2.546  -1.118   1.259  0.00  0.00    -0.287 OA
BRANCH  23  24
HETATM   24  P           1      -3.658   0.043   1.100  0.00  0.00     0.406 P 
HETATM   25  O           1      -2.990   1.363   1.048  0.00  0.00    -0.624 OA
HETATM   26  O           1      -4.580   0.003   2.256  0.00  0.00    -0.624 OA
BRANCH  24  27
HETATM   27  O           1      -4.490  -0.192  -0.263  0.00  0.00    -0.300 OA
HETATM   28  H           1      -5.114   0.512  -0.293  0.00  0.00     0.223 HD
ENDBRANCH  24  27
ENDBRANCH  23  24
ENDBRANCH  22  23
ENDBRANCH  18  22
ENDBRANCH   4  18
TORSDOF 13
