REMARK  11 active torsions:
REMARK  status: ('A' for Active; 'I' for Inactive)
REMARK    1  A    between atoms: N_1  and  C_23 
REMARK    2  A    between atoms: C_6  and  C_7 
REMARK    3  A    between atoms: C_7  and  C_28 
REMARK    4  A    between atoms: C_10  and  C_19 
REMARK    5  A    between atoms: C_10  and  N_14 
REMARK    6  A    between atoms: C_19  and  C_25 
REMARK    7  A    between atoms: N_21  and  C_28 
REMARK       I    between atoms: N_21  and  C_22 
REMARK    8  A    between atoms: C_22  and  C_23 
REMARK    9  A    between atoms: C_23  and  C_24 
REMARK   10  A    between atoms: C_24  and  C_25 
REMARK   11  A    between atoms: C_26  and  C_28 
ROOT
HETATM    1  O           1       2.511   0.419   0.560  0.00  0.00    -0.271 OA
HETATM    2  H           1       2.363   3.134  -0.225  0.00  0.00     0.163 HD
HETATM    3  N           1       1.839   2.296  -0.445  0.00  0.00    -0.344 N 
HETATM    4  C           1       1.698   1.310   0.494  0.00  0.00     0.249 C 
ENDROOT
BRANCH   4   5
HETATM    5  C           1       0.528   1.337   1.446  0.00  0.00     0.274 C 
BRANCH   5   6
HETATM    6  N           1      -0.752   1.279   0.666  0.00  0.00    -0.067 N 
HETATM    7  H           1      -1.563   1.297   1.325  0.00  0.00     0.275 HD
HETATM    8  H           1      -0.806   2.103   0.025  0.00  0.00     0.275 HD
HETATM    9  H           1      -0.778   0.398   0.106  0.00  0.00     0.275 HD
ENDBRANCH   5   6
BRANCH   5  10
HETATM   10  C           1       0.606   0.137   2.382  0.00  0.00     0.043 C 
BRANCH  10  11
HETATM   11  C           1       0.566  -1.148   1.565  0.00  0.00     0.006 C 
BRANCH  11  12
HETATM   12  C           1      -0.733  -1.206   0.773  0.00  0.00     0.421 C 
BRANCH  12  13
HETATM   13  C           1      -1.522  -2.444   1.180  0.00  0.00     0.231 C 
BRANCH  13  14
HETATM   14  N           1      -0.708  -3.672   0.896  0.00  0.00    -0.079 N 
HETATM   15  H           1      -0.493  -3.717  -0.125  0.00  0.00     0.274 HD
HETATM   16  H           1      -1.249  -4.521   1.176  0.00  0.00     0.274 HD
HETATM   17  H           1       0.183  -3.632   1.440  0.00  0.00     0.274 HD
ENDBRANCH  13  14
ENDBRANCH  12  13
ENDBRANCH  11  12
ENDBRANCH  10  11
ENDBRANCH   5  10
ENDBRANCH   4   5
BRANCH   3  18
HETATM   18  C           1       1.237   2.141  -1.755  0.00  0.00     0.191 C 
BRANCH  18  19
HETATM   19  C           1      -0.271   1.988  -1.605  0.00  0.00     0.094 C 
BRANCH  19  20
HETATM   20  C           1      -0.614   0.538  -1.460  0.00  0.00     0.034 A 
HETATM   21  C           1       0.303  -0.486  -1.465  0.00  0.00     0.212 A 
HETATM   22  N           1      -0.437  -1.626  -1.308  0.00  0.00    -0.073 N 
HETATM   23  C           1      -1.748  -1.254  -1.217  0.00  0.00     0.277 A 
HETATM   24  H           1      -0.065  -2.607  -1.266  0.00  0.00     0.272 HD
HETATM   25  N           1      -1.885   0.049  -1.306  0.00  0.00    -0.349 N 
ATOM     26  HN          1      -2.753   0.584  -1.268  1.00  0.00     0.166 HD
ENDBRANCH  19  20
ENDBRANCH  18  19
BRANCH  18  27
HETATM   27  C           1       1.538   3.359  -2.594  0.00  0.00     0.197 C 
HETATM   28  O           1       2.723   3.669  -2.841  0.00  0.00    -0.646 OA
HETATM   29  O           1       0.603   4.057  -3.041  0.00  0.00    -0.646 OA
ENDBRANCH  18  27
ENDBRANCH   3  18
TORSDOF 11
