REMARK  12 active torsions:
REMARK  status: ('A' for Active; 'I' for Inactive)
REMARK    1  A    between atoms: C_4  and  C_11 
REMARK    2  A    between atoms: C_4  and  C_22 
REMARK    3  A    between atoms: C_5  and  C_22 
REMARK    4  A    between atoms: C_7  and  C_9 
REMARK    5  A    between atoms: C_7  and  N_10 
REMARK    6  A    between atoms: C_9  and  C_21 
REMARK    7  A    between atoms: C_11  and  Se_15 
REMARK       I    between atoms: C_18  and  N_19 
REMARK    8  A    between atoms: C_18  and  C_23 
REMARK    9  A    between atoms: N_19  and  C_22 
REMARK   10  A    between atoms: N_20  and  C_23 
REMARK   11  A    between atoms: C_21  and  C_24 
REMARK   12  A    between atoms: C_23  and  C_24 
ROOT
HETATM    1  C           1      -0.720  -1.608  -1.001  0.00  0.00     0.274 C 
ENDROOT
BRANCH   1   2
HETATM    2  C           1      -0.052  -1.047   0.230  0.00  0.00     0.249 C 
HETATM    3  O           1       1.125  -1.241   0.420  0.00  0.00    -0.271 OA
HETATM    4  N           1      -0.780  -0.318   1.132  0.00  0.00    -0.345 N 
HETATM    5  H           1      -1.766  -0.155   0.973  0.00  0.00     0.163 HD
BRANCH   4   6
HETATM    6  C           1      -0.138   0.222   2.315  0.00  0.00     0.185 C 
BRANCH   6   7
HETATM    7  C           1      -1.163   0.985   3.144  0.00  0.00     0.036 C 
BRANCH   7   8
HETATM    8  C           1      -0.490   1.552   4.387  0.00  0.00     0.003 C 
BRANCH   8   9
HETATM    9 Se           1      -0.653   3.494   4.387  0.00  0.00     0.000 Se
HETATM   10  C           1      -2.602   3.494   4.387  0.00  0.00     0.000 C 
ENDBRANCH   8   9
ENDBRANCH   7   8
ENDBRANCH   6   7
BRANCH   6  11
HETATM   11  C           1       0.433  -0.908   3.136  0.00  0.00     0.196 C 
HETATM   12  O           1       1.297  -1.664   2.642  0.00  0.00    -0.646 OA
HETATM   13  O           1       0.043  -1.087   4.309  0.00  0.00    -0.646 OA
ENDBRANCH   6  11
ENDBRANCH   4   6
ENDBRANCH   1   2
BRANCH   1  14
HETATM   14  N           1      -1.288  -0.485  -1.817  0.00  0.00    -0.067 N 
HETATM   15  H           1      -1.751  -0.873  -2.670  0.00  0.00     0.275 HD
HETATM   16  H           1      -1.990   0.038  -1.248  0.00  0.00     0.275 HD
HETATM   17  H           1      -0.518   0.161  -2.103  0.00  0.00     0.275 HD
ENDBRANCH   1  14
BRANCH   1  18
HETATM   18  C           1       0.303  -2.372  -1.831  0.00  0.00     0.042 C 
BRANCH  18  19
HETATM   19  C           1       1.424  -1.430  -2.248  0.00  0.00     0.004 C 
BRANCH  19  20
HETATM   20  C           1       0.848  -0.290  -3.077  0.00  0.00     0.027 C 
BRANCH  20  21
HETATM   21  C           1       1.487  -0.293  -4.460  0.00  0.00     0.229 C 
BRANCH  21  22
HETATM   22  N           1       2.970  -0.114  -4.327  0.00  0.00    -0.079 N 
HETATM   23  H           1       3.408  -0.117  -5.276  0.00  0.00     0.274 HD
HETATM   24  H           1       3.170   0.796  -3.854  0.00  0.00     0.274 HD
HETATM   25  H           1       3.366  -0.897  -3.759  0.00  0.00     0.274 HD
ENDBRANCH  21  22
ENDBRANCH  20  21
ENDBRANCH  19  20
ENDBRANCH  18  19
ENDBRANCH   1  18
TORSDOF 12
