REMARK  12 active torsions:
REMARK  status: ('A' for Active; 'I' for Inactive)
REMARK       I    between atoms: N_1  and  C_2 
REMARK    1  A    between atoms: C_2  and  C_20 
REMARK    2  A    between atoms: C_5  and  C_18 
REMARK    3  A    between atoms: N_11  and  C_23 
REMARK    4  A    between atoms: N_13  and  C_18 
REMARK       I    between atoms: N_13  and  C_17 
REMARK    5  A    between atoms: N_15  and  C_28 
REMARK    6  A    between atoms: C_17  and  C_23 
REMARK    7  A    between atoms: C_18  and  C_19 
REMARK    8  A    between atoms: C_19  and  C_20 
REMARK    9  A    between atoms: C_23  and  C_25 
REMARK   10  A    between atoms: C_25  and  C_26 
REMARK   11  A    between atoms: C_26  and  C_27 
REMARK   12  A    between atoms: C_27  and  C_28 
ROOT
HETATM    1  O           1       0.325  -0.363   1.012  0.00  0.00    -0.271 OA
HETATM    2  N           1       1.228   0.298  -0.920  0.00  0.00    -0.345 N 
HETATM    3  H           1       1.233   0.968  -1.679  0.00  0.00     0.163 HD
HETATM    4  C           1       0.332   0.435   0.106  0.00  0.00     0.249 C 
ENDROOT
BRANCH   4   5
HETATM    5  C           1      -0.647   1.584   0.105  0.00  0.00     0.274 C 
BRANCH   5   6
HETATM    6  N           1      -1.509   1.504  -1.120  0.00  0.00    -0.067 N 
HETATM    7  H           1      -2.187   2.299  -1.121  0.00  0.00     0.275 HD
HETATM    8  H           1      -0.907   1.558  -1.972  0.00  0.00     0.275 HD
HETATM    9  H           1      -2.032   0.600  -1.119  0.00  0.00     0.275 HD
ENDBRANCH   5   6
BRANCH   5  10
HETATM   10  C           1      -1.524   1.505   1.348  0.00  0.00     0.042 C 
BRANCH  10  11
HETATM   11  C           1      -2.288   0.188   1.349  0.00  0.00     0.004 C 
BRANCH  11  12
HETATM   12  C           1      -3.785   0.469   1.348  0.00  0.00     0.027 C 
BRANCH  12  13
HETATM   13  C           1      -4.153   1.269   2.590  0.00  0.00     0.229 C 
BRANCH  13  14
HETATM   14  N           1      -3.402   2.567   2.590  0.00  0.00    -0.079 N 
HETATM   15  H           1      -3.652   3.115   1.736  0.00  0.00     0.274 HD
HETATM   16  H           1      -3.654   3.116   3.442  0.00  0.00     0.274 HD
HETATM   17  H           1      -2.374   2.375   2.592  0.00  0.00     0.274 HD
ENDBRANCH  13  14
ENDBRANCH  12  13
ENDBRANCH  11  12
ENDBRANCH  10  11
ENDBRANCH   5  10
ENDBRANCH   4   5
BRANCH   2  18
HETATM   18  C           1       2.168  -0.805  -0.919  0.00  0.00     0.186 C 
BRANCH  18  19
HETATM   19  C           1       3.035  -0.725   0.314  0.00  0.00     0.196 C 
HETATM   20  O           1       2.513  -0.773   1.448  0.00  0.00    -0.646 OA
HETATM   21  O           1       4.275  -0.612   0.200  0.00  0.00    -0.646 OA
ENDBRANCH  18  19
BRANCH  18  22
HETATM   22  C           1       3.044  -0.725  -2.163  0.00  0.00     0.045 C 
BRANCH  22  23
HETATM   23  C           1       4.033  -1.884  -2.163  0.00  0.00     0.105 C 
BRANCH  23  24
HETATM   24  C           1       3.279  -3.190  -2.163  0.00  0.00     0.215 C 
HETATM   25  N           1       3.963  -4.376  -2.163  0.00  0.00    -0.370 N 
HETATM   26  H           1       4.975  -4.376  -2.163  0.00  0.00     0.159 HD
HETATM   27  H           1       3.457  -5.252  -2.163  0.00  0.00     0.159 HD
HETATM   28  O           1       2.071  -3.190  -2.163  0.00  0.00    -0.274 OA
ENDBRANCH  23  24
ENDBRANCH  22  23
ENDBRANCH  18  22
ENDBRANCH   2  18
TORSDOF 12
