REMARK  12 active torsions:
REMARK  status: ('A' for Active; 'I' for Inactive)
REMARK    1  A    between atoms: N_1  and  C_21 
REMARK       I    between atoms: N_1  and  C_12 
REMARK    2  A    between atoms: N_6  and  C_11 
REMARK    3  A    between atoms: C_8  and  C_17 
REMARK    4  A    between atoms: C_8  and  C_23 
REMARK    5  A    between atoms: C_10  and  C_11 
REMARK    6  A    between atoms: C_10  and  C_17 
REMARK    7  A    between atoms: C_11  and  C_12 
REMARK    8  A    between atoms: N_13  and  C_23 
REMARK    9  A    between atoms: S_18  and  C_19 
REMARK   10  A    between atoms: C_19  and  C_20 
REMARK   11  A    between atoms: C_20  and  C_21 
REMARK   12  A    between atoms: C_21  and  C_22 
ROOT
HETATM    1  C           1      -0.692  -1.616  -1.001  0.00  0.00     0.274 C 
ENDROOT
BRANCH   1   2
HETATM    2  N           1      -1.289  -0.509  -1.817  0.00  0.00    -0.067 N 
HETATM    3  H           1      -1.742  -0.909  -2.670  0.00  0.00     0.275 HD
HETATM    4  H           1      -2.005  -0.004  -1.248  0.00  0.00     0.275 HD
HETATM    5  H           1      -0.536   0.158  -2.103  0.00  0.00     0.275 HD
ENDBRANCH   1   2
BRANCH   1   6
HETATM    6  C           1       0.351  -2.353  -1.831  0.00  0.00     0.042 C 
BRANCH   6   7
HETATM    7  C           1       1.447  -1.382  -2.248  0.00  0.00     0.004 C 
BRANCH   7   8
HETATM    8  C           1       0.841  -0.257  -3.077  0.00  0.00     0.027 C 
BRANCH   8   9
HETATM    9  C           1       1.479  -0.244  -4.460  0.00  0.00     0.229 C 
BRANCH   9  10
HETATM   10  N           1       2.958  -0.026  -4.327  0.00  0.00    -0.079 N 
HETATM   11  H           1       3.374  -0.798  -3.759  0.00  0.00     0.274 HD
HETATM   12  H           1       3.395  -0.017  -5.276  0.00  0.00     0.274 HD
HETATM   13  H           1       3.133   0.889  -3.854  0.00  0.00     0.274 HD
ENDBRANCH   9  10
ENDBRANCH   8   9
ENDBRANCH   7   8
ENDBRANCH   6   7
ENDBRANCH   1   6
BRANCH   1  14
HETATM   14  C           1      -0.039  -1.038   0.230  0.00  0.00     0.249 C 
HETATM   15  N           1      -0.786  -0.328   1.132  0.00  0.00    -0.345 N 
HETATM   16  H           1      -1.776  -0.191   0.973  0.00  0.00     0.163 HD
HETATM   17  O           1       1.143  -1.201   0.420  0.00  0.00    -0.271 OA
BRANCH  15  18
HETATM   18  C           1      -0.158   0.229   2.315  0.00  0.00     0.186 C 
BRANCH  18  19
HETATM   19  C           1      -1.202   0.965   3.144  0.00  0.00     0.046 C 
BRANCH  19  20
HETATM   20  C           1      -0.545   1.549   4.387  0.00  0.00     0.076 C 
BRANCH  20  21
HETATM   21  S           1      -0.744   3.353   4.387  0.00  0.00    -0.173 SA
HETATM   22  C           1      -2.559   3.353   4.387  0.00  0.00     0.089 C 
ENDBRANCH  20  21
ENDBRANCH  19  20
ENDBRANCH  18  19
BRANCH  18  23
HETATM   23  C           1       0.443  -0.886   3.136  0.00  0.00     0.196 C 
HETATM   24  O           1       0.057  -1.075   4.309  0.00  0.00    -0.646 OA
HETATM   25  O           1       1.326  -1.620   2.642  0.00  0.00    -0.646 OA
ENDBRANCH  18  23
ENDBRANCH  15  18
ENDBRANCH   1  14
TORSDOF 12
