REMARK  11 active torsions:
REMARK  status: ('A' for Active; 'I' for Inactive)
REMARK    1  A    between atoms: C_1  and  C_15 
REMARK    2  A    between atoms: C_1  and  C_2 
REMARK    3  A    between atoms: C_2  and  C_3 
REMARK    4  A    between atoms: C_3  and  C_23 
REMARK    5  A    between atoms: N_8  and  C_15 
REMARK    6  A    between atoms: C_9  and  C_16 
REMARK    7  A    between atoms: N_11  and  C_16 
REMARK       I    between atoms: N_11  and  C_14 
REMARK    8  A    between atoms: C_13  and  C_25 
REMARK    9  A    between atoms: C_14  and  C_15 
REMARK   10  A    between atoms: C_16  and  C_25 
REMARK   11  A    between atoms: N_17  and  C_23 
ROOT
HETATM    1  N           1       2.768   0.906  -0.524  0.00  0.00    -0.344 N 
HETATM    2  H           1       3.555   1.516  -0.343  0.00  0.00     0.163 HD
HETATM    3  C           1       2.136   0.278   0.516  0.00  0.00     0.249 C 
HETATM    4  O           1       2.508  -0.812   0.880  0.00  0.00    -0.271 OA
ENDROOT
BRANCH   3   5
HETATM    5  C           1       0.973   0.948   1.206  0.00  0.00     0.274 C 
BRANCH   5   6
HETATM    6  C           1       0.454   0.045   2.318  0.00  0.00     0.042 C 
BRANCH   6   7
HETATM    7  C           1      -0.004  -1.281   1.724  0.00  0.00     0.004 C 
BRANCH   7   8
HETATM    8  C           1      -1.483  -1.488   2.025  0.00  0.00     0.027 C 
BRANCH   8   9
HETATM    9  C           1      -2.291  -0.353   1.411  0.00  0.00     0.229 C 
BRANCH   9  10
HETATM   10  N           1      -1.842   0.954   1.995  0.00  0.00    -0.079 N 
HETATM   11  H           1      -2.396   1.733   1.574  0.00  0.00     0.274 HD
HETATM   12  H           1      -0.827   1.097   1.788  0.00  0.00     0.274 HD
HETATM   13  H           1      -1.988   0.942   3.030  0.00  0.00     0.274 HD
ENDBRANCH   9  10
ENDBRANCH   8   9
ENDBRANCH   7   8
ENDBRANCH   6   7
ENDBRANCH   5   6
BRANCH   5  14
HETATM   14  N           1      -0.123   1.195   0.212  0.00  0.00    -0.067 N 
HETATM   15  H           1       0.233   1.815  -0.551  0.00  0.00     0.275 HD
HETATM   16  H           1      -0.929   1.659   0.689  0.00  0.00     0.275 HD
HETATM   17  H           1      -0.436   0.285  -0.196  0.00  0.00     0.275 HD
ENDBRANCH   5  14
ENDBRANCH   3   5
BRANCH   1  18
HETATM   18  C           1       2.311   0.697  -1.884  0.00  0.00     0.189 C 
BRANCH  18  19
HETATM   19  C           1       3.171   1.496  -2.831  0.00  0.00     0.197 C 
HETATM   20  O           1       4.401   1.282  -2.890  0.00  0.00    -0.646 OA
HETATM   21  O           1       2.653   2.372  -3.557  0.00  0.00    -0.646 OA
ENDBRANCH  18  19
BRANCH  18  22
HETATM   22  C           1       0.862   1.150  -2.007  0.00  0.00     0.074 C 
BRANCH  22  23
HETATM   23  C           1      -0.048   0.001  -1.702  0.00  0.00    -0.056 A 
HETATM   24  C           1       0.486  -1.243  -1.369  0.00  0.00     0.007 A 
HETATM   25  C           1      -0.362  -2.314  -1.086  0.00  0.00     0.001 A 
HETATM   26  C           1      -1.745  -2.139  -1.134  0.00  0.00     0.000 A 
HETATM   27  C           1      -2.280  -0.894  -1.467  0.00  0.00     0.001 A 
HETATM   28  C           1      -1.431   0.176  -1.750  0.00  0.00     0.007 A 
ENDBRANCH  22  23
ENDBRANCH  18  22
ENDBRANCH   1  18
TORSDOF 11
