REMARK  11 active torsions:
REMARK  status: ('A' for Active; 'I' for Inactive)
REMARK    1  A    between atoms: C_1  and  C_16 
REMARK    2  A    between atoms: C_5  and  C_16 
REMARK    3  A    between atoms: C_5  and  C_12 
REMARK    4  A    between atoms: C_5  and  N_21 
REMARK    5  A    between atoms: N_10  and  C_19 
REMARK    6  A    between atoms: N_11  and  C_23 
REMARK    7  A    between atoms: C_18  and  C_19 
REMARK    8  A    between atoms: C_18  and  C_25 
REMARK    9  A    between atoms: C_19  and  C_20 
REMARK       I    between atoms: C_20  and  N_21 
REMARK   10  A    between atoms: C_23  and  C_24 
REMARK   11  A    between atoms: C_24  and  C_25 
ROOT
HETATM    1  C           1       1.373  -0.672   1.317  0.00  0.00     0.274 C 
ENDROOT
BRANCH   1   2
HETATM    2  N           1       0.205  -1.143   2.133  0.00  0.00    -0.067 N 
HETATM    3  H           1       0.552  -1.634   2.987  0.00  0.00     0.275 HD
HETATM    4  H           1      -0.375  -0.321   2.415  0.00  0.00     0.275 HD
HETATM    5  H           1      -0.375  -1.800   1.564  0.00  0.00     0.275 HD
ENDBRANCH   1   2
BRANCH   1   6
HETATM    6  C           1       2.219  -1.870   0.906  0.00  0.00     0.042 C 
BRANCH   6   7
HETATM    7  C           1       1.374  -2.829   0.078  0.00  0.00     0.004 C 
BRANCH   7   8
HETATM    8  C           1       0.189  -3.307   0.906  0.00  0.00     0.027 C 
BRANCH   8   9
HETATM    9  C           1       0.245  -4.822   1.048  0.00  0.00     0.229 C 
BRANCH   9  10
HETATM   10  N           1       1.522  -5.214   1.731  0.00  0.00    -0.079 N 
HETATM   11  H           1       2.335  -4.887   1.162  0.00  0.00     0.274 HD
HETATM   12  H           1       1.560  -6.254   1.829  0.00  0.00     0.274 HD
HETATM   13  H           1       1.559  -4.774   2.679  0.00  0.00     0.274 HD
ENDBRANCH   9  10
ENDBRANCH   8   9
ENDBRANCH   7   8
ENDBRANCH   6   7
ENDBRANCH   1   6
BRANCH   1  14
HETATM   14  C           1       0.870   0.037   0.083  0.00  0.00     0.249 C 
HETATM   15  O           1       1.163  -0.378  -1.013  0.00  0.00    -0.271 OA
HETATM   16  N           1       0.083   1.150   0.206  0.00  0.00    -0.345 N 
HETATM   17  H           1      -0.162   1.498   1.125  0.00  0.00     0.163 HD
BRANCH  16  18
HETATM   18  C           1      -0.399   1.832  -0.979  0.00  0.00     0.185 C 
BRANCH  18  19
HETATM   19  C           1      -1.245   3.029  -0.566  0.00  0.00     0.040 C 
BRANCH  19  20
HETATM   20  C           1      -1.752   3.746  -1.811  0.00  0.00    -0.020 C 
HETATM   21  C           1      -3.275   3.746  -1.811  0.00  0.00     0.009 C 
HETATM   22  C           1      -1.244   5.182  -1.811  0.00  0.00     0.009 C 
ENDBRANCH  19  20
ENDBRANCH  18  19
BRANCH  18  23
HETATM   23  C           1       0.775   2.304  -1.800  0.00  0.00     0.196 C 
HETATM   24  O           1       1.601   1.477  -2.243  0.00  0.00    -0.646 OA
HETATM   25  O           1       0.922   3.522  -2.038  0.00  0.00    -0.646 OA
ENDBRANCH  18  23
ENDBRANCH  16  18
ENDBRANCH   1  14
TORSDOF 11
