REMARK  7 active torsions:
REMARK  status: ('A' for Active; 'I' for Inactive)
REMARK    1  A    between atoms: C_1  and  C_7 
REMARK    2  A    between atoms: C_1  and  C_9 
REMARK    3  A    between atoms: N_2  and  C_8 
REMARK       I    between atoms: N_2  and  C_12 
REMARK    4  A    between atoms: N_3  and  C_7 
REMARK    5  A    between atoms: C_7  and  C_12 
REMARK    6  A    between atoms: C_8  and  C_10 
REMARK    7  A    between atoms: C_9  and  S_11 
ROOT
HETATM    1  C           1      -0.931   0.459  -0.934  0.00  0.00     0.275 C 
ENDROOT
BRANCH   1   2
HETATM    2  C           1      -0.169   1.777  -0.934  0.00  0.00     0.053 C 
BRANCH   2   3
HETATM    3  C           1       0.707   1.859   0.309  0.00  0.00     0.076 C 
BRANCH   3   4
HETATM    4  S           1       0.223   3.303   1.297  0.00  0.00    -0.173 SA
HETATM    5  C           1       1.441   3.055   2.620  0.00  0.00     0.089 C 
ENDBRANCH   3   4
ENDBRANCH   2   3
ENDBRANCH   1   2
BRANCH   1   6
HETATM    6  N           1      -1.792   0.379   0.291  0.00  0.00    -0.066 N 
HETATM    7  H           1      -2.471   1.174   0.292  0.00  0.00     0.275 HD
HETATM    8  H           1      -2.315  -0.525   0.291  0.00  0.00     0.275 HD
HETATM    9  H           1      -1.191   0.435   1.144  0.00  0.00     0.275 HD
ENDBRANCH   1   6
BRANCH   1  10
HETATM   10  C           1       0.049  -0.689  -0.934  0.00  0.00     0.248 C 
HETATM   11  N           1      -0.408  -1.979  -0.934  0.00  0.00    -0.349 N 
HETATM   12  H           1      -1.403  -2.164  -0.934  0.00  0.00     0.163 HD
HETATM   13  O           1       1.237  -0.469  -0.934  0.00  0.00    -0.271 OA
BRANCH  11  14
HETATM   14  C           1       0.534  -3.082  -0.934  0.00  0.00     0.235 C 
BRANCH  14  15
HETATM   15  C           1      -0.220  -4.389  -0.934  0.00  0.00     0.191 C 
HETATM   16  O           1      -1.470  -4.389  -0.934  0.00  0.00    -0.647 OA
HETATM   17  O           1       0.405  -5.471  -0.934  0.00  0.00    -0.647 OA
ENDBRANCH  14  15
ENDBRANCH  11  14
ENDBRANCH   1  10
TORSDOF 7
