REMARK  9 active torsions:
REMARK  status: ('A' for Active; 'I' for Inactive)
REMARK    1  A    between atoms: C_2  and  C_24 
REMARK    2  A    between atoms: S_6  and  C_9 
REMARK    3  A    between atoms: N_8  and  C_16 
REMARK    4  A    between atoms: C_9  and  C_11 
REMARK    5  A    between atoms: C_11  and  C_16 
REMARK    6  A    between atoms: N_14  and  C_24 
REMARK       I    between atoms: N_14  and  C_15 
REMARK    7  A    between atoms: C_15  and  C_16 
REMARK    8  A    between atoms: C_22  and  C_23 
REMARK    9  A    between atoms: C_23  and  C_24 
ROOT
HETATM    1  O           1       2.251  -0.483   1.178  0.00  0.00    -0.271 OA
HETATM    2  N           1       2.512   1.234  -0.226  0.00  0.00    -0.344 N 
HETATM    3  C           1       1.879   0.606   0.813  0.00  0.00     0.249 C 
HETATM    4  H           1       3.298   1.844  -0.045  0.00  0.00     0.163 HD
ENDROOT
BRANCH   2   5
HETATM    5  C           1       2.054   1.025  -1.586  0.00  0.00     0.189 C 
BRANCH   5   6
HETATM    6  C           1       2.914   1.824  -2.534  0.00  0.00     0.197 C 
HETATM    7  O           1       2.396   2.700  -3.260  0.00  0.00    -0.646 OA
HETATM    8  O           1       4.144   1.611  -2.593  0.00  0.00    -0.646 OA
ENDBRANCH   5   6
BRANCH   5   9
HETATM    9  C           1       0.605   1.478  -1.709  0.00  0.00     0.074 C 
BRANCH   9  10
HETATM   10  C           1      -0.305   0.330  -1.404  0.00  0.00    -0.056 A 
HETATM   11  C           1      -1.688   0.504  -1.453  0.00  0.00     0.007 A 
HETATM   12  C           1      -2.537  -0.566  -1.169  0.00  0.00     0.001 A 
HETATM   13  C           1      -2.002  -1.811  -0.836  0.00  0.00     0.000 A 
HETATM   14  C           1      -0.619  -1.985  -0.788  0.00  0.00     0.001 A 
HETATM   15  C           1       0.230  -0.915  -1.072  0.00  0.00     0.007 A 
ENDBRANCH   9  10
ENDBRANCH   5   9
ENDBRANCH   2   5
BRANCH   3  16
HETATM   16  C           1       0.716   1.276   1.504  0.00  0.00     0.275 C 
BRANCH  16  17
HETATM   17  N           1      -0.379   1.524   0.509  0.00  0.00    -0.066 N 
HETATM   18  H           1      -0.693   0.614   0.102  0.00  0.00     0.275 HD
HETATM   19  H           1      -0.023   2.143  -0.253  0.00  0.00     0.275 HD
HETATM   20  H           1      -1.185   1.987   0.986  0.00  0.00     0.275 HD
ENDBRANCH  16  17
BRANCH  16  21
HETATM   21  C           1       0.197   0.374   2.615  0.00  0.00     0.053 C 
BRANCH  21  22
HETATM   22  C           1      -0.261  -0.952   2.022  0.00  0.00     0.076 C 
BRANCH  22  23
HETATM   23  S           1      -2.023  -1.200   2.380  0.00  0.00    -0.173 SA
HETATM   24  C           1      -2.171  -2.806   1.548  0.00  0.00     0.089 C 
ENDBRANCH  22  23
ENDBRANCH  21  22
ENDBRANCH  16  21
ENDBRANCH   3  16
TORSDOF 9
