REMARK  10 active torsions:
REMARK  status: ('A' for Active; 'I' for Inactive)
REMARK    1  A    between atoms: C_1  and  C_13 
REMARK    2  A    between atoms: C_1  and  S_10 
REMARK    3  A    between atoms: C_2  and  C_11 
REMARK    4  A    between atoms: C_2  and  C_20 
REMARK    5  A    between atoms: N_3  and  C_14 
REMARK    6  A    between atoms: Se_5  and  C_11 
REMARK    7  A    between atoms: N_6  and  C_20 
REMARK       I    between atoms: N_6  and  C_7 
REMARK    8  A    between atoms: C_7  and  C_14 
REMARK    9  A    between atoms: C_13  and  C_14 
REMARK   10  A    between atoms: C_19  and  C_20 
ROOT
HETATM    1  N           1      -0.579  -0.452   0.509  0.00  0.00    -0.345 N 
HETATM    2  C           1       0.149  -1.181  -0.392  0.00  0.00     0.249 C 
HETATM    3  O           1       1.326  -1.375  -0.202  0.00  0.00    -0.271 OA
HETATM    4  H           1      -1.565  -0.290   0.350  0.00  0.00     0.163 HD
ENDROOT
BRANCH   2   5
HETATM    5  C           1      -0.519  -1.743  -1.623  0.00  0.00     0.275 C 
BRANCH   5   6
HETATM    6  N           1      -1.087  -0.620  -2.440  0.00  0.00    -0.066 N 
HETATM    7  H           1      -1.550  -1.008  -3.293  0.00  0.00     0.275 HD
HETATM    8  H           1      -1.789  -0.096  -1.870  0.00  0.00     0.275 HD
HETATM    9  H           1      -0.317   0.027  -2.725  0.00  0.00     0.275 HD
ENDBRANCH   5   6
BRANCH   5  10
HETATM   10  C           1       0.504  -2.506  -2.453  0.00  0.00     0.053 C 
BRANCH  10  11
HETATM   11  C           1       1.625  -1.564  -2.871  0.00  0.00     0.076 C 
BRANCH  11  12
HETATM   12  S           1       0.939  -0.205  -3.859  0.00  0.00    -0.173 SA
HETATM   13  C           1       2.514   0.650  -4.143  0.00  0.00     0.089 C 
ENDBRANCH  11  12
ENDBRANCH  10  11
ENDBRANCH   5  10
ENDBRANCH   2   5
BRANCH   1  14
HETATM   14  C           1       0.063   0.088   1.692  0.00  0.00     0.185 C 
BRANCH  14  15
HETATM   15  C           1      -0.961   0.851   2.521  0.00  0.00     0.036 C 
BRANCH  15  16
HETATM   16  C           1      -0.289   1.418   3.765  0.00  0.00     0.003 C 
BRANCH  16  17
HETATM   17 Se           1      -0.452   3.360   3.765  0.00  0.00     0.000 Se
HETATM   18  C           1      -2.401   3.360   3.765  0.00  0.00     0.000 C 
ENDBRANCH  16  17
ENDBRANCH  15  16
ENDBRANCH  14  15
BRANCH  14  19
HETATM   19  C           1       0.634  -1.042   2.513  0.00  0.00     0.196 C 
HETATM   20  O           1       0.244  -1.222   3.687  0.00  0.00    -0.646 OA
HETATM   21  O           1       1.498  -1.799   2.019  0.00  0.00    -0.646 OA
ENDBRANCH  14  19
ENDBRANCH   1  14
TORSDOF 10
