REMARK  9 active torsions:
REMARK  status: ('A' for Active; 'I' for Inactive)
REMARK       I    between atoms: N_4  and  C_21 
REMARK    1  A    between atoms: C_5  and  C_21 
REMARK    2  A    between atoms: C_5  and  C_11 
REMARK    3  A    between atoms: N_6  and  C_12 
REMARK    4  A    between atoms: C_10  and  C_12 
REMARK    5  A    between atoms: C_10  and  C_13 
REMARK    6  A    between atoms: C_11  and  C_18 
REMARK    7  A    between atoms: C_11  and  N_23 
REMARK    8  A    between atoms: C_12  and  C_20 
REMARK    9  A    between atoms: C_13  and  S_19 
REMARK       I    between atoms: C_20  and  N_23 
ROOT
HETATM    1  O           1      -1.149   0.428   0.630  0.00  0.00    -0.271 OA
HETATM    2  H           1       1.754  -0.761   0.630  0.00  0.00     0.163 HD
HETATM    3  C           1       0.059   0.427   0.630  0.00  0.00     0.249 C 
HETATM    4  N           1       0.742  -0.760   0.630  0.00  0.00    -0.344 N 
ENDROOT
BRANCH   4   5
HETATM    5  C           1       0.016  -2.015   0.629  0.00  0.00     0.194 C 
BRANCH   5   6
HETATM    6  C           1       1.005  -3.173   0.629  0.00  0.00     0.138 C 
BRANCH   6   7
HETATM    7  C           1       0.251  -4.480   0.629  0.00  0.00     0.217 C 
HETATM    8  O           1      -0.957  -4.480   0.629  0.00  0.00    -0.274 OA
HETATM    9  N           1       0.935  -5.665   0.629  0.00  0.00    -0.370 N 
HETATM   10  H           1       1.947  -5.665   0.629  0.00  0.00     0.159 HD
HETATM   11  H           1       0.429  -6.542   0.629  0.00  0.00     0.159 HD
ENDBRANCH   6   7
ENDBRANCH   5   6
BRANCH   5  12
HETATM   12  C           1      -0.852  -2.093   1.861  0.00  0.00     0.197 C 
HETATM   13  O           1      -1.737  -1.233   2.058  0.00  0.00    -0.646 OA
HETATM   14  O           1      -0.686  -3.019   2.684  0.00  0.00    -0.646 OA
ENDBRANCH   5  12
ENDBRANCH   4   5
BRANCH   3  15
HETATM   15  C           1       0.815   1.733   0.631  0.00  0.00     0.275 C 
BRANCH  15  16
HETATM   16  N           1       1.677   1.812  -0.594  0.00  0.00    -0.066 N 
HETATM   17  H           1       2.201   2.716  -0.594  0.00  0.00     0.275 HD
HETATM   18  H           1       2.355   1.017  -0.594  0.00  0.00     0.275 HD
HETATM   19  H           1       1.076   1.757  -1.447  0.00  0.00     0.275 HD
ENDBRANCH  15  16
BRANCH  15  20
HETATM   20  C           1      -0.173   2.892   0.631  0.00  0.00     0.053 C 
BRANCH  20  21
HETATM   21  C           1      -1.048   2.814  -0.613  0.00  0.00     0.076 C 
BRANCH  21  22
HETATM   22  S           1      -0.834   4.321  -1.600  0.00  0.00    -0.173 SA
HETATM   23  C           1      -1.986   3.858  -2.924  0.00  0.00     0.089 C 
ENDBRANCH  21  22
ENDBRANCH  20  21
ENDBRANCH  15  20
ENDBRANCH   3  15
TORSDOF 9
