REMARK  8 active torsions:
REMARK  status: ('A' for Active; 'I' for Inactive)
REMARK    1  A    between atoms: N_3  and  C_19 
REMARK    2  A    between atoms: C_4  and  C_11 
REMARK    3  A    between atoms: C_4  and  S_17 
REMARK    4  A    between atoms: C_5  and  C_6 
REMARK    5  A    between atoms: C_6  and  C_15 
REMARK    6  A    between atoms: C_6  and  N_18 
REMARK    7  A    between atoms: C_11  and  C_19 
REMARK       I    between atoms: C_14  and  N_18 
REMARK    8  A    between atoms: C_14  and  C_19 
ROOT
HETATM    1  H           1       0.449   0.997  -1.402  0.00  0.00     0.163 HD
HETATM    2  O           1       0.700  -1.513   0.463  0.00  0.00    -0.271 OA
HETATM    3  C           1       0.871  -0.378   0.085  0.00  0.00     0.249 C 
HETATM    4  N           1       0.305   0.047  -1.086  0.00  0.00    -0.344 N 
ENDROOT
BRANCH   3   5
HETATM    5  C           1       1.710   0.571   0.906  0.00  0.00     0.275 C 
BRANCH   5   6
HETATM    6  N           1       0.877   1.750   1.313  0.00  0.00    -0.066 N 
HETATM    7  H           1       0.529   2.241   0.459  0.00  0.00     0.275 HD
HETATM    8  H           1       1.457   2.408   1.881  0.00  0.00     0.275 HD
HETATM    9  H           1       0.064   1.422   1.882  0.00  0.00     0.275 HD
ENDBRANCH   5   6
BRANCH   5  10
HETATM   10  C           1       2.218  -0.145   2.150  0.00  0.00     0.053 C 
BRANCH  10  11
HETATM   11  C           1       1.034  -0.622   2.981  0.00  0.00     0.076 C 
BRANCH  11  12
HETATM   12  S           1       0.025   0.804   3.473  0.00  0.00    -0.173 SA
HETATM   13  C           1      -1.218  -0.141   4.398  0.00  0.00     0.089 C 
ENDBRANCH  11  12
ENDBRANCH  10  11
ENDBRANCH   5  10
ENDBRANCH   3   5
BRANCH   4  14
HETATM   14  C           1      -0.501  -0.865  -1.874  0.00  0.00     0.189 C 
BRANCH  14  15
HETATM   15  C           1       0.337  -2.051  -2.283  0.00  0.00     0.197 C 
HETATM   16  O           1       0.515  -2.303  -3.495  0.00  0.00    -0.646 OA
HETATM   17  O           1       0.854  -2.782  -1.411  0.00  0.00    -0.646 OA
ENDBRANCH  14  15
BRANCH  14  18
HETATM   18  C           1      -1.008  -0.148  -3.119  0.00  0.00     0.010 C 
HETATM   19  C           1      -2.531  -0.148  -3.119  0.00  0.00     0.012 C 
HETATM   20  C           1      -0.500   1.288  -3.119  0.00  0.00     0.012 C 
ENDBRANCH  14  18
ENDBRANCH   4  14
TORSDOF 8
