REMARK  10 active torsions:
REMARK  status: ('A' for Active; 'I' for Inactive)
REMARK    1  A    between atoms: C_7  and  C_19 
REMARK    2  A    between atoms: C_8  and  O_12 
REMARK    3  A    between atoms: N_9  and  C_18 
REMARK       I    between atoms: N_9  and  C_23 
REMARK    4  A    between atoms: C_10  and  C_20 
REMARK    5  A    between atoms: C_10  and  S_22 
REMARK    6  A    between atoms: C_15  and  C_23 
REMARK    7  A    between atoms: C_15  and  C_20 
REMARK    8  A    between atoms: C_15  and  N_26 
REMARK    9  A    between atoms: C_17  and  C_18 
REMARK   10  A    between atoms: C_18  and  C_19 
ROOT
HETATM    1  N           1      -0.204  -1.403   0.500  0.00  0.00    -0.344 N 
HETATM    2  H           1       0.421  -1.402   1.296  0.00  0.00     0.163 HD
HETATM    3  C           1      -1.484  -0.938   0.634  0.00  0.00     0.249 C 
HETATM    4  O           1      -2.230  -0.940  -0.316  0.00  0.00    -0.271 OA
ENDROOT
BRANCH   1   5
HETATM    5  C           1       0.258  -1.898  -0.782  0.00  0.00     0.189 C 
BRANCH   5   6
HETATM    6  C           1      -0.600  -3.064  -1.209  0.00  0.00     0.197 C 
HETATM    7  O           1      -0.081  -4.185  -1.402  0.00  0.00    -0.646 OA
HETATM    8  O           1      -1.830  -2.909  -1.370  0.00  0.00    -0.646 OA
ENDBRANCH   5   6
BRANCH   5   9
HETATM    9  C           1       1.707  -2.351  -0.659  0.00  0.00     0.074 C 
BRANCH   9  10
HETATM   10  C           1       2.617  -1.203  -0.964  0.00  0.00    -0.056 A 
HETATM   11  C           1       4.000  -1.377  -0.915  0.00  0.00     0.010 A 
HETATM   12  C           1       4.849  -0.307  -1.199  0.00  0.00     0.037 A 
HETATM   13  C           1       4.314   0.938  -1.532  0.00  0.00     0.065 A 
HETATM   14  C           1       2.931   1.112  -1.580  0.00  0.00     0.037 A 
HETATM   15  C           1       2.082   0.042  -1.296  0.00  0.00     0.010 A 
BRANCH  13  16
HETATM   16  O           1       5.138   1.977  -1.807  0.00  0.00    -0.361 OA
HETATM   17  H           1       4.587   2.751  -2.014  0.00  0.00     0.217 HD
ENDBRANCH  13  16
ENDBRANCH   9  10
ENDBRANCH   5   9
ENDBRANCH   1   5
BRANCH   3  18
HETATM   18  C           1      -1.964  -0.423   1.969  0.00  0.00     0.275 C 
BRANCH  18  19
HETATM   19  C           1      -3.413   0.030   1.847  0.00  0.00     0.053 C 
BRANCH  19  20
HETATM   20  C           1      -3.513   1.141   0.810  0.00  0.00     0.076 C 
BRANCH  20  21
HETATM   21  S           1      -2.482   2.543   1.322  0.00  0.00    -0.173 SA
HETATM   22  C           1      -2.857   3.599  -0.106  0.00  0.00     0.089 C 
ENDBRANCH  20  21
ENDBRANCH  19  20
ENDBRANCH  18  19
BRANCH  18  23
HETATM   23  N           1      -1.112   0.736   2.392  0.00  0.00    -0.066 N 
HETATM   24  H           1      -0.118   0.425   2.476  0.00  0.00     0.275 HD
HETATM   25  H           1      -1.180   1.497   1.680  0.00  0.00     0.275 HD
HETATM   26  H           1      -1.444   1.093   3.317  0.00  0.00     0.275 HD
ENDBRANCH  18  23
ENDBRANCH   3  18
TORSDOF 10
