REMARK  9 active torsions:
REMARK  status: ('A' for Active; 'I' for Inactive)
REMARK    1  A    between atoms: C_3  and  C_4 
REMARK    2  A    between atoms: C_3  and  C_11 
REMARK    3  A    between atoms: N_6  and  C_21 
REMARK    4  A    between atoms: S_8  and  C_9 
REMARK    5  A    between atoms: C_9  and  C_12 
REMARK    6  A    between atoms: C_11  and  C_13 
REMARK    7  A    between atoms: C_11  and  N_19 
REMARK    8  A    between atoms: C_12  and  C_21 
REMARK       I    between atoms: N_19  and  C_20 
REMARK    9  A    between atoms: C_20  and  C_21 
ROOT
HETATM    1  O           1       0.612   1.165  -1.282  0.00  0.00    -0.271 OA
HETATM    2  H           1       0.866  -1.346   0.581  0.00  0.00     0.163 HD
HETATM    3  N           1       1.009  -0.395   0.266  0.00  0.00    -0.344 N 
HETATM    4  C           1       0.441   0.030  -0.905  0.00  0.00     0.249 C 
ENDROOT
BRANCH   4   5
HETATM    5  C           1      -0.397  -0.919  -1.726  0.00  0.00     0.275 C 
BRANCH   5   6
HETATM    6  N           1      -1.563  -1.390  -0.908  0.00  0.00    -0.066 N 
HETATM    7  H           1      -1.214  -1.882  -0.055  0.00  0.00     0.275 HD
HETATM    8  H           1      -2.144  -2.047  -1.475  0.00  0.00     0.275 HD
HETATM    9  H           1      -2.143  -0.568  -0.624  0.00  0.00     0.275 HD
ENDBRANCH   5   6
BRANCH   5  10
HETATM   10  C           1      -0.906  -0.203  -2.969  0.00  0.00     0.053 C 
BRANCH  10  11
HETATM   11  C           1      -1.753   0.994  -2.556  0.00  0.00     0.076 C 
BRANCH  11  12
HETATM   12  S           1      -3.434   0.802  -3.213  0.00  0.00    -0.173 SA
HETATM   13  C           1      -4.091   2.352  -2.535  0.00  0.00     0.089 C 
ENDBRANCH  11  12
ENDBRANCH  10  11
ENDBRANCH   5  10
ENDBRANCH   4   5
BRANCH   3  14
HETATM   14  C           1       1.814   0.517   1.054  0.00  0.00     0.189 C 
BRANCH  14  15
HETATM   15  C           1       2.323  -0.201   2.298  0.00  0.00     0.014 C 
HETATM   16  C           1       1.816   0.518   3.541  0.00  0.00     0.012 C 
BRANCH  15  17
HETATM   17  C           1       1.814  -1.636   2.298  0.00  0.00     0.002 C 
HETATM   18  C           1       0.291  -1.636   2.298  0.00  0.00     0.005 C 
ENDBRANCH  15  17
ENDBRANCH  14  15
BRANCH  14  19
HETATM   19  C           1       2.987   0.991   0.231  0.00  0.00     0.197 C 
HETATM   20  O           1       2.791   1.608  -0.838  0.00  0.00    -0.646 OA
HETATM   21  O           1       4.154   0.767   0.619  0.00  0.00    -0.646 OA
ENDBRANCH  14  19
ENDBRANCH   3  14
TORSDOF 9
