REMARK  9 active torsions:
REMARK  status: ('A' for Active; 'I' for Inactive)
REMARK    1  A    between atoms: N_2  and  C_5 
REMARK    2  A    between atoms: C_5  and  C_8 
REMARK    3  A    between atoms: C_5  and  C_12 
REMARK    4  A    between atoms: N_6  and  C_7 
REMARK       I    between atoms: N_6  and  C_8 
REMARK    5  A    between atoms: C_7  and  C_16 
REMARK    6  A    between atoms: C_7  and  C_13 
REMARK    7  A    between atoms: S_11  and  C_14 
REMARK    8  A    between atoms: C_12  and  C_14 
REMARK    9  A    between atoms: Se_15  and  C_16 
ROOT
HETATM    1  H           1      -0.215  -2.199   0.691  0.00  0.00     0.163 HD
HETATM    2  O           1      -0.637   0.909   0.690  0.00  0.00    -0.271 OA
HETATM    3  N           1      -0.720  -1.322   0.691  0.00  0.00    -0.345 N 
HETATM    4  C           1      -0.034  -0.138   0.691  0.00  0.00     0.249 C 
ENDROOT
BRANCH   4   5
HETATM    5  C           1       1.475  -0.139   0.692  0.00  0.00     0.275 C 
BRANCH   5   6
HETATM    6  N           1       1.974  -0.846  -0.533  0.00  0.00    -0.066 N 
HETATM    7  H           1       3.019  -0.848  -0.533  0.00  0.00     0.275 HD
HETATM    8  H           1       1.625  -1.831  -0.533  0.00  0.00     0.275 HD
HETATM    9  H           1       1.626  -0.353  -1.386  0.00  0.00     0.275 HD
ENDBRANCH   5   6
BRANCH   5  10
HETATM   10  C           1       1.985   1.296   0.692  0.00  0.00     0.053 C 
BRANCH  10  11
HETATM   11  C           1       1.479   2.015  -0.552  0.00  0.00     0.076 C 
BRANCH  11  12
HETATM   12  S           1       2.892   2.584  -1.539  0.00  0.00    -0.173 SA
HETATM   13  C           1       1.915   3.350  -2.863  0.00  0.00     0.089 C 
ENDBRANCH  11  12
ENDBRANCH  10  11
ENDBRANCH   5  10
ENDBRANCH   4   5
BRANCH   3  14
HETATM   14  C           1      -2.170  -1.321   0.690  0.00  0.00     0.185 C 
BRANCH  14  15
HETATM   15  C           1      -2.678  -2.757   0.690  0.00  0.00     0.039 C 
BRANCH  15  16
HETATM   16 Se           1      -4.627  -2.757   0.690  0.00  0.00     0.000 Se
HETATM   17  H           1      -4.743  -4.224   0.690  0.00  0.00     0.000 HD
ENDBRANCH  15  16
ENDBRANCH  14  15
BRANCH  14  18
HETATM   18  C           1      -2.672  -0.609   1.922  0.00  0.00     0.196 C 
HETATM   19  O           1      -2.369   0.588   2.119  0.00  0.00    -0.646 OA
HETATM   20  O           1      -3.391  -1.215   2.745  0.00  0.00    -0.646 OA
ENDBRANCH  14  18
ENDBRANCH   3  14
TORSDOF 9
