REMARK  9 active torsions:
REMARK  status: ('A' for Active; 'I' for Inactive)
REMARK    1  A    between atoms: C_1  and  C_7 
REMARK    2  A    between atoms: C_1  and  C_11 
REMARK    3  A    between atoms: N_5  and  C_17 
REMARK       I    between atoms: N_5  and  C_6 
REMARK    4  A    between atoms: C_6  and  C_7 
REMARK    5  A    between atoms: C_7  and  N_14 
REMARK    6  A    between atoms: C_9  and  C_18 
REMARK    7  A    between atoms: C_11  and  S_12 
REMARK    8  A    between atoms: C_17  and  C_23 
REMARK    9  A    between atoms: C_17  and  C_18 
ROOT
HETATM    1  N           1       1.374   2.045  -0.299  0.00  0.00    -0.344 N 
HETATM    2  C           1       1.234   1.059   0.640  0.00  0.00     0.249 C 
HETATM    3  O           1       2.046   0.168   0.707  0.00  0.00    -0.271 OA
HETATM    4  H           1       1.898   2.883  -0.079  0.00  0.00     0.163 HD
ENDROOT
BRANCH   1   5
HETATM    5  C           1       0.772   1.890  -1.609  0.00  0.00     0.191 C 
BRANCH   5   6
HETATM    6  C           1       1.073   3.108  -2.448  0.00  0.00     0.197 C 
HETATM    7  O           1       2.259   3.419  -2.695  0.00  0.00    -0.646 OA
HETATM    8  O           1       0.138   3.806  -2.895  0.00  0.00    -0.646 OA
ENDBRANCH   5   6
BRANCH   5   9
HETATM    9  C           1      -0.736   1.737  -1.459  0.00  0.00     0.094 C 
BRANCH   9  10
HETATM   10  C           1      -1.078   0.287  -1.314  0.00  0.00     0.028 A 
HETATM   11  N           1      -2.350  -0.202  -1.160  0.00  0.00    -0.354 N 
HETATM   12  C           1      -2.212  -1.505  -1.071  0.00  0.00     0.180 A 
ATOM     13  HN          1      -3.218   0.332  -1.123  1.00  0.00     0.166 HD
HETATM   14  N           1      -0.901  -1.876  -1.162  0.00  0.00    -0.360 N 
HETATM   15  C           1      -0.161  -0.737  -1.319  0.00  0.00     0.114 A 
HETATM   16  H           1      -0.530  -2.857  -1.120  0.00  0.00     0.166 HD
ENDBRANCH   9  10
ENDBRANCH   5   9
ENDBRANCH   1   5
BRANCH   2  17
HETATM   17  C           1       0.063   1.086   1.593  0.00  0.00     0.275 C 
BRANCH  17  18
HETATM   18  C           1       0.142  -0.114   2.528  0.00  0.00     0.053 C 
BRANCH  18  19
HETATM   19  C           1       0.102  -1.398   1.711  0.00  0.00     0.076 C 
BRANCH  19  20
HETATM   20  S           1       1.618  -2.351   2.005  0.00  0.00    -0.173 SA
HETATM   21  C           1       1.200  -3.735   0.907  0.00  0.00     0.089 C 
ENDBRANCH  19  20
ENDBRANCH  18  19
ENDBRANCH  17  18
BRANCH  17  22
HETATM   22  N           1      -1.216   1.028   0.813  0.00  0.00    -0.066 N 
HETATM   23  H           1      -2.028   1.047   1.471  0.00  0.00     0.275 HD
HETATM   24  H           1      -1.270   1.852   0.171  0.00  0.00     0.275 HD
HETATM   25  H           1      -1.243   0.147   0.252  0.00  0.00     0.275 HD
ENDBRANCH  17  22
ENDBRANCH   2  17
TORSDOF 9
