REMARK  9 active torsions:
REMARK  status: ('A' for Active; 'I' for Inactive)
REMARK    1  A    between atoms: C_2  and  C_8 
REMARK    2  A    between atoms: S_4  and  C_18 
REMARK    3  A    between atoms: N_7  and  C_10 
REMARK       I    between atoms: N_7  and  C_20 
REMARK    4  A    between atoms: C_8  and  C_10 
REMARK    5  A    between atoms: C_10  and  C_15 
REMARK    6  A    between atoms: N_16  and  C_21 
REMARK    7  A    between atoms: C_17  and  C_21 
REMARK    8  A    between atoms: C_17  and  C_18 
REMARK    9  A    between atoms: C_20  and  C_21 
ROOT
HETATM    1  O           1       1.419  -0.984  -0.656  0.00  0.00    -0.271 OA
HETATM    2  H           1       0.094   0.891   1.482  0.00  0.00     0.163 HD
HETATM    3  N           1       0.339   0.544   0.564  0.00  0.00    -0.345 N 
HETATM    4  C           1       1.126  -0.570   0.441  0.00  0.00     0.249 C 
ENDROOT
BRANCH   4   5
HETATM    5  C           1       1.628  -1.279   1.674  0.00  0.00     0.275 C 
BRANCH   5   6
HETATM    6  N           1       0.461  -1.749   2.490  0.00  0.00    -0.066 N 
HETATM    7  H           1      -0.120  -0.927   2.773  0.00  0.00     0.275 HD
HETATM    8  H           1       0.808  -2.240   3.345  0.00  0.00     0.275 HD
HETATM    9  H           1      -0.119  -2.407   1.921  0.00  0.00     0.275 HD
ENDBRANCH   5   6
BRANCH   5  10
HETATM   10  C           1       2.475  -2.476   1.263  0.00  0.00     0.053 C 
BRANCH  10  11
HETATM   11  C           1       1.630  -3.436   0.435  0.00  0.00     0.076 C 
BRANCH  11  12
HETATM   12  S           1       0.217  -4.005   1.423  0.00  0.00    -0.173 SA
HETATM   13  C           1      -0.502  -5.073   0.143  0.00  0.00     0.089 C 
ENDBRANCH  11  12
ENDBRANCH  10  11
ENDBRANCH   5  10
ENDBRANCH   4   5
BRANCH   3  14
HETATM   14  C           1      -0.143   1.225  -0.622  0.00  0.00     0.185 C 
BRANCH  14  15
HETATM   15  C           1      -0.990   2.422  -0.209  0.00  0.00     0.040 C 
BRANCH  15  16
HETATM   16  C           1      -1.497   3.140  -1.453  0.00  0.00    -0.020 C 
HETATM   17  C           1      -3.020   3.140  -1.453  0.00  0.00     0.009 C 
HETATM   18  C           1      -0.988   4.575  -1.453  0.00  0.00     0.009 C 
ENDBRANCH  15  16
ENDBRANCH  14  15
BRANCH  14  19
HETATM   19  C           1       1.031   1.697  -1.443  0.00  0.00     0.196 C 
HETATM   20  O           1       1.178   2.916  -1.680  0.00  0.00    -0.646 OA
HETATM   21  O           1       1.857   0.870  -1.885  0.00  0.00    -0.646 OA
ENDBRANCH  14  19
ENDBRANCH   3  14
TORSDOF 9
