REMARK  9 active torsions:
REMARK  status: ('A' for Active; 'I' for Inactive)
REMARK    1  A    between atoms: S_1  and  C_6 
REMARK    2  A    between atoms: N_5  and  C_9 
REMARK    3  A    between atoms: C_6  and  C_8 
REMARK    4  A    between atoms: C_8  and  C_9 
REMARK    5  A    between atoms: C_9  and  C_10 
REMARK       I    between atoms: C_10  and  N_18 
REMARK    6  A    between atoms: C_15  and  C_20 
REMARK    7  A    between atoms: S_17  and  C_19 
REMARK    8  A    between atoms: N_18  and  C_20 
REMARK    9  A    between atoms: C_19  and  C_20 
ROOT
HETATM    1  C           1      -0.042  -0.142   0.691  0.00  0.00     0.249 C 
HETATM    2  O           1      -0.645   0.905   0.690  0.00  0.00    -0.271 OA
HETATM    3  H           1      -0.223  -2.204   0.691  0.00  0.00     0.163 HD
HETATM    4  N           1      -0.728  -1.327   0.691  0.00  0.00    -0.344 N 
ENDROOT
BRANCH   1   5
HETATM    5  C           1       1.467  -0.143   0.692  0.00  0.00     0.275 C 
BRANCH   5   6
HETATM    6  N           1       1.966  -0.850  -0.533  0.00  0.00    -0.066 N 
HETATM    7  H           1       1.619  -0.357  -1.386  0.00  0.00     0.275 HD
HETATM    8  H           1       1.617  -1.835  -0.533  0.00  0.00     0.275 HD
HETATM    9  H           1       3.011  -0.852  -0.533  0.00  0.00     0.275 HD
ENDBRANCH   5   6
BRANCH   5  10
HETATM   10  C           1       1.977   1.292   0.692  0.00  0.00     0.053 C 
BRANCH  10  11
HETATM   11  C           1       1.471   2.011  -0.552  0.00  0.00     0.076 C 
BRANCH  11  12
HETATM   12  S           1       2.884   2.579  -1.539  0.00  0.00    -0.173 SA
HETATM   13  C           1       1.907   3.345  -2.863  0.00  0.00     0.089 C 
ENDBRANCH  11  12
ENDBRANCH  10  11
ENDBRANCH   5  10
ENDBRANCH   1   5
BRANCH   4  14
HETATM   14  C           1      -2.178  -1.325   0.690  0.00  0.00     0.194 C 
BRANCH  14  15
HETATM   15  C           1      -2.680  -0.613   1.922  0.00  0.00     0.197 C 
HETATM   16  O           1      -3.399  -1.220   2.745  0.00  0.00    -0.646 OA
HETATM   17  O           1      -2.377   0.584   2.119  0.00  0.00    -0.646 OA
ENDBRANCH  14  15
BRANCH  14  18
HETATM   18  C           1      -2.686  -2.761   0.690  0.00  0.00     0.106 C 
BRANCH  18  19
HETATM   19  S           1      -4.501  -2.761   0.690  0.00  0.00    -0.180 SA
HETATM   20  H           1      -4.642  -4.098   0.690  0.00  0.00     0.101 HD
ENDBRANCH  18  19
ENDBRANCH  14  18
ENDBRANCH   4  14
TORSDOF 9
