REMARK  9 active torsions:
REMARK  status: ('A' for Active; 'I' for Inactive)
REMARK    1  A    between atoms: N_6  and  C_10 
REMARK    2  A    between atoms: S_7  and  C_12 
REMARK    3  A    between atoms: C_8  and  C_9 
REMARK    4  A    between atoms: C_9  and  C_17 
REMARK    5  A    between atoms: C_9  and  N_14 
REMARK    6  A    between atoms: C_10  and  C_18 
REMARK    7  A    between atoms: C_10  and  C_11 
REMARK    8  A    between atoms: C_11  and  C_12 
REMARK    9  A    between atoms: O_13  and  C_17 
REMARK       I    between atoms: N_14  and  C_18 
ROOT
HETATM    1  H           1       0.405   1.112  -1.586  0.00  0.00     0.163 HD
HETATM    2  N           1       0.261   0.161  -1.270  0.00  0.00    -0.343 N 
HETATM    3  C           1       0.828  -0.263  -0.098  0.00  0.00     0.249 C 
HETATM    4  O           1       0.656  -1.398   0.279  0.00  0.00    -0.271 OA
ENDROOT
BRANCH   3   5
HETATM    5  C           1       1.666   0.686   0.722  0.00  0.00     0.275 C 
BRANCH   5   6
HETATM    6  N           1       0.833   1.864   1.129  0.00  0.00    -0.066 N 
HETATM    7  H           1       0.020   1.536   1.698  0.00  0.00     0.275 HD
HETATM    8  H           1       1.413   2.522   1.697  0.00  0.00     0.275 HD
HETATM    9  H           1       0.485   2.356   0.275  0.00  0.00     0.275 HD
ENDBRANCH   5   6
BRANCH   5  10
HETATM   10  C           1       2.174  -0.030   1.967  0.00  0.00     0.053 C 
BRANCH  10  11
HETATM   11  C           1       0.990  -0.508   2.797  0.00  0.00     0.076 C 
BRANCH  11  12
HETATM   12  S           1      -0.019   0.919   3.290  0.00  0.00    -0.173 SA
HETATM   13  C           1      -1.262  -0.026   4.214  0.00  0.00     0.089 C 
ENDBRANCH  11  12
ENDBRANCH  10  11
ENDBRANCH   5  10
ENDBRANCH   3   5
BRANCH   2  14
HETATM   14  C           1      -0.545  -0.750  -2.058  0.00  0.00     0.214 C 
BRANCH  14  15
HETATM   15  C           1       0.294  -1.937  -2.467  0.00  0.00     0.199 C 
HETATM   16  O           1       0.810  -2.668  -1.594  0.00  0.00    -0.646 OA
HETATM   17  O           1       0.472  -2.189  -3.678  0.00  0.00    -0.646 OA
ENDBRANCH  14  15
BRANCH  14  18
HETATM   18  C           1      -1.052  -0.033  -3.302  0.00  0.00     0.147 C 
HETATM   19  C           1      -2.575  -0.033  -3.302  0.00  0.00     0.042 C 
BRANCH  18  20
HETATM   20  O           1      -0.584   1.288  -3.302  0.00  0.00    -0.393 OA
HETATM   21  H           1       0.357   1.246  -3.302  0.00  0.00     0.210 HD
ENDBRANCH  18  20
ENDBRANCH  14  18
ENDBRANCH   2  14
TORSDOF 9
