REMARK  10 active torsions:
REMARK  status: ('A' for Active; 'I' for Inactive)
REMARK    1  A    between atoms: C_2  and  C_3 
REMARK    2  A    between atoms: C_3  and  C_20 
REMARK    3  A    between atoms: C_3  and  N_14 
REMARK    4  A    between atoms: C_4  and  C_12 
REMARK    5  A    between atoms: C_4  and  C_7 
REMARK    6  A    between atoms: C_4  and  N_13 
REMARK    7  A    between atoms: C_5  and  C_7 
REMARK    8  A    between atoms: C_5  and  S_18 
REMARK    9  A    between atoms: C_10  and  C_11 
REMARK   10  A    between atoms: C_10  and  C_20 
REMARK       I    between atoms: C_11  and  N_15 
REMARK       I    between atoms: C_12  and  N_14 
ROOT
HETATM    1  O           1      -0.100   0.205   1.429  0.00  0.00    -0.271 OA
HETATM    2  C           1      -0.094   1.004   0.523  0.00  0.00     0.249 C 
HETATM    3  N           1       0.802   0.867  -0.503  0.00  0.00    -0.345 N 
HETATM    4  H           1       0.808   1.536  -1.262  0.00  0.00     0.163 HD
ENDROOT
BRANCH   3   5
HETATM    5  C           1       1.743  -0.237  -0.502  0.00  0.00     0.186 C 
BRANCH   5   6
HETATM    6  C           1       2.609  -0.157   0.731  0.00  0.00     0.196 C 
HETATM    7  O           1       2.088  -0.204   1.865  0.00  0.00    -0.646 OA
HETATM    8  O           1       3.849  -0.044   0.617  0.00  0.00    -0.646 OA
ENDBRANCH   5   6
BRANCH   5   9
HETATM    9  C           1       2.619  -0.157  -1.745  0.00  0.00     0.045 C 
BRANCH   9  10
HETATM   10  C           1       3.608  -1.315  -1.745  0.00  0.00     0.105 C 
BRANCH  10  11
HETATM   11  C           1       2.853  -2.622  -1.745  0.00  0.00     0.215 C 
HETATM   12  O           1       1.645  -2.622  -1.745  0.00  0.00    -0.274 OA
HETATM   13  N           1       3.538  -3.808  -1.745  0.00  0.00    -0.370 N 
HETATM   14  H           1       4.550  -3.808  -1.745  0.00  0.00     0.159 HD
HETATM   15  H           1       3.032  -4.684  -1.745  0.00  0.00     0.159 HD
ENDBRANCH  10  11
ENDBRANCH   9  10
ENDBRANCH   5   9
ENDBRANCH   3   5
BRANCH   2  16
HETATM   16  C           1      -1.072   2.152   0.522  0.00  0.00     0.275 C 
BRANCH  16  17
HETATM   17  C           1      -1.949   2.074   1.765  0.00  0.00     0.053 C 
BRANCH  17  18
HETATM   18  C           1      -2.713   0.756   1.766  0.00  0.00     0.076 C 
BRANCH  18  19
HETATM   19  S           1      -4.497   1.091   1.765  0.00  0.00    -0.173 SA
HETATM   20  C           1      -5.025  -0.646   1.766  0.00  0.00     0.089 C 
ENDBRANCH  18  19
ENDBRANCH  17  18
ENDBRANCH  16  17
BRANCH  16  21
HETATM   21  N           1      -1.935   2.072  -0.703  0.00  0.00    -0.066 N 
HETATM   22  H           1      -2.613   2.867  -0.704  0.00  0.00     0.275 HD
HETATM   23  H           1      -1.333   2.127  -1.555  0.00  0.00     0.275 HD
HETATM   24  H           1      -2.458   1.168  -0.702  0.00  0.00     0.275 HD
ENDBRANCH  16  21
ENDBRANCH   2  16
TORSDOF 10
