REMARK  10 active torsions:
REMARK  status: ('A' for Active; 'I' for Inactive)
REMARK    1  A    between atoms: N_1  and  C_11 
REMARK       I    between atoms: N_1  and  C_4 
REMARK    2  A    between atoms: C_4  and  C_8 
REMARK    3  A    between atoms: C_5  and  S_13 
REMARK    4  A    between atoms: C_5  and  C_6 
REMARK    5  A    between atoms: C_6  and  C_11 
REMARK    6  A    between atoms: C_8  and  C_19 
REMARK    7  A    between atoms: C_8  and  N_21 
REMARK    8  A    between atoms: C_11  and  C_12 
REMARK    9  A    between atoms: S_16  and  C_17 
REMARK   10  A    between atoms: C_17  and  C_19 
ROOT
HETATM    1  N           1      -0.583  -0.455   0.509  0.00  0.00    -0.345 N 
HETATM    2  C           1       0.163  -1.165  -0.392  0.00  0.00     0.249 C 
HETATM    3  H           1      -1.573  -0.319   0.350  0.00  0.00     0.163 HD
HETATM    4  O           1       1.345  -1.328  -0.202  0.00  0.00    -0.271 OA
ENDROOT
BRANCH   2   5
HETATM    5  C           1      -0.490  -1.744  -1.623  0.00  0.00     0.275 C 
BRANCH   5   6
HETATM    6  C           1       0.553  -2.481  -2.453  0.00  0.00     0.053 C 
BRANCH   6   7
HETATM    7  C           1       1.649  -1.509  -2.871  0.00  0.00     0.076 C 
BRANCH   7   8
HETATM    8  S           1       0.928  -0.169  -3.859  0.00  0.00    -0.173 SA
HETATM    9  C           1       2.480   0.727  -4.143  0.00  0.00     0.089 C 
ENDBRANCH   7   8
ENDBRANCH   6   7
ENDBRANCH   5   6
BRANCH   5  10
HETATM   10  N           1      -1.086  -0.636  -2.440  0.00  0.00    -0.066 N 
HETATM   11  H           1      -1.802  -0.131  -1.870  0.00  0.00     0.275 HD
HETATM   12  H           1      -0.334   0.030  -2.725  0.00  0.00     0.275 HD
HETATM   13  H           1      -1.539  -1.036  -3.293  0.00  0.00     0.275 HD
ENDBRANCH   5  10
ENDBRANCH   2   5
BRANCH   1  14
HETATM   14  C           1       0.044   0.101   1.692  0.00  0.00     0.186 C 
BRANCH  14  15
HETATM   15  C           1      -1.000   0.837   2.521  0.00  0.00     0.046 C 
BRANCH  15  16
HETATM   16  C           1      -0.342   1.421   3.765  0.00  0.00     0.076 C 
BRANCH  16  17
HETATM   17  S           1      -0.541   3.225   3.765  0.00  0.00    -0.173 SA
HETATM   18  C           1      -2.356   3.225   3.765  0.00  0.00     0.089 C 
ENDBRANCH  16  17
ENDBRANCH  15  16
ENDBRANCH  14  15
BRANCH  14  19
HETATM   19  C           1       0.645  -1.014   2.513  0.00  0.00     0.196 C 
HETATM   20  O           1       0.259  -1.203   3.687  0.00  0.00    -0.646 OA
HETATM   21  O           1       1.529  -1.747   2.019  0.00  0.00    -0.646 OA
ENDBRANCH  14  19
ENDBRANCH   1  14
TORSDOF 10
