REMARK  9 active torsions:
REMARK  status: ('A' for Active; 'I' for Inactive)
REMARK    1  A    between atoms: C_2  and  C_15 
REMARK    2  A    between atoms: C_2  and  C_3 
REMARK    3  A    between atoms: C_3  and  C_10 
REMARK    4  A    between atoms: C_3  and  N_4 
REMARK       I    between atoms: N_4  and  C_5 
REMARK    5  A    between atoms: C_5  and  C_6 
REMARK    6  A    between atoms: C_6  and  C_17 
REMARK    7  A    between atoms: C_6  and  N_18 
REMARK    8  A    between atoms: S_12  and  C_16 
REMARK    9  A    between atoms: C_16  and  C_17 
ROOT
HETATM    1  N           1       0.820  -1.144   0.669  0.00  0.00    -0.344 N 
HETATM    2  C           1       0.137   0.042   0.669  0.00  0.00     0.249 C 
HETATM    3  H           1       1.832  -1.145   0.670  0.00  0.00     0.163 HD
HETATM    4  O           1      -1.071   0.043   0.669  0.00  0.00    -0.271 OA
ENDROOT
BRANCH   2   5
HETATM    5  C           1       0.892   1.348   0.670  0.00  0.00     0.275 C 
BRANCH   5   6
HETATM    6  C           1      -0.096   2.507   0.670  0.00  0.00     0.053 C 
BRANCH   6   7
HETATM    7  C           1      -0.971   2.429  -0.573  0.00  0.00     0.076 C 
BRANCH   7   8
HETATM    8  S           1      -0.757   3.937  -1.561  0.00  0.00    -0.173 SA
HETATM    9  C           1      -1.909   3.473  -2.885  0.00  0.00     0.089 C 
ENDBRANCH   7   8
ENDBRANCH   6   7
ENDBRANCH   5   6
BRANCH   5  10
HETATM   10  N           1       1.754   1.427  -0.555  0.00  0.00    -0.066 N 
HETATM   11  H           1       2.278   2.331  -0.555  0.00  0.00     0.275 HD
HETATM   12  H           1       2.433   0.632  -0.554  0.00  0.00     0.275 HD
HETATM   13  H           1       1.153   1.373  -1.408  0.00  0.00     0.275 HD
ENDBRANCH   5  10
ENDBRANCH   2   5
BRANCH   1  14
HETATM   14  C           1       0.094  -2.399   0.668  0.00  0.00     0.195 C 
BRANCH  14  15
HETATM   15  C           1       1.083  -3.557   0.668  0.00  0.00     0.149 C 
BRANCH  15  16
HETATM   16  C           1       0.328  -4.864   0.668  0.00  0.00     0.175 C 
HETATM   17  O           1       0.953  -5.947   0.668  0.00  0.00    -0.648 OA
HETATM   18  O           1      -0.922  -4.864   0.668  0.00  0.00    -0.648 OA
ENDBRANCH  15  16
ENDBRANCH  14  15
BRANCH  14  19
HETATM   19  C           1      -0.774  -2.478   1.900  0.00  0.00     0.197 C 
HETATM   20  O           1      -1.659  -1.618   2.098  0.00  0.00    -0.646 OA
HETATM   21  O           1      -0.609  -3.404   2.723  0.00  0.00    -0.646 OA
ENDBRANCH  14  19
ENDBRANCH   1  14
TORSDOF 9
