REMARK  11 active torsions:
REMARK  status: ('A' for Active; 'I' for Inactive)
REMARK    1  A    between atoms: C_3  and  C_4 
REMARK    2  A    between atoms: C_3  and  C_21 
REMARK    3  A    between atoms: C_4  and  C_5 
REMARK    4  A    between atoms: C_4  and  N_14 
REMARK       I    between atoms: C_5  and  N_6 
REMARK    5  A    between atoms: N_6  and  C_22 
REMARK    6  A    between atoms: S_8  and  C_21 
REMARK    7  A    between atoms: C_9  and  C_22 
REMARK    8  A    between atoms: C_9  and  O_19 
REMARK    9  A    between atoms: C_15  and  C_22 
REMARK   10  A    between atoms: P_18  and  O_19 
REMARK   11  A    between atoms: P_18  and  O_23 
ROOT
HETATM    1  C           1       1.287  -0.742   0.539  0.00  0.00     0.249 C 
HETATM    2  N           1       0.506  -1.845   0.756  0.00  0.00    -0.343 N 
HETATM    3  H           1       0.509  -2.607   0.090  0.00  0.00     0.163 HD
HETATM    4  O           1       1.283   0.167   1.334  0.00  0.00    -0.271 OA
ENDROOT
BRANCH   2   5
HETATM    5  C           1      -0.327  -1.921   1.941  0.00  0.00     0.210 C 
BRANCH   5   6
HETATM    6  C           1      -1.316  -0.763   1.941  0.00  0.00     0.217 C 
BRANCH   6   7
HETATM    7  O           1      -2.122  -0.837   0.796  0.00  0.00    -0.287 OA
BRANCH   7   8
HETATM    8  P           1      -3.234   0.324   0.638  0.00  0.00     0.406 P 
HETATM    9  O           1      -2.566   1.644   0.586  0.00  0.00    -0.624 OA
HETATM   10  O           1      -4.157   0.284   1.794  0.00  0.00    -0.624 OA
BRANCH   8  11
HETATM   11  O           1      -4.067   0.089  -0.726  0.00  0.00    -0.300 OA
HETATM   12  H           1      -4.691   0.793  -0.755  0.00  0.00     0.223 HD
ENDBRANCH   8  11
ENDBRANCH   7   8
ENDBRANCH   6   7
ENDBRANCH   5   6
BRANCH   5  13
HETATM   13  C           1      -1.081  -3.228   1.941  0.00  0.00     0.198 C 
HETATM   14  O           1      -2.331  -3.228   1.941  0.00  0.00    -0.646 OA
HETATM   15  O           1      -0.456  -4.311   1.941  0.00  0.00    -0.646 OA
ENDBRANCH   5  13
ENDBRANCH   2   5
BRANCH   1  16
HETATM   16  C           1       2.154  -0.662  -0.694  0.00  0.00     0.275 C 
BRANCH  16  17
HETATM   17  C           1       2.916   0.656  -0.695  0.00  0.00     0.053 C 
BRANCH  17  18
HETATM   18  C           1       1.928   1.815  -0.695  0.00  0.00     0.076 C 
BRANCH  18  19
HETATM   19  S           1       0.882   1.720  -2.175  0.00  0.00    -0.173 SA
HETATM   20  C           1      -0.107   3.199  -1.816  0.00  0.00     0.089 C 
ENDBRANCH  18  19
ENDBRANCH  17  18
ENDBRANCH  16  17
BRANCH  16  21
HETATM   21  N           1       1.290  -0.741  -1.918  0.00  0.00    -0.066 N 
HETATM   22  H           1       0.767  -1.646  -1.917  0.00  0.00     0.275 HD
HETATM   23  H           1       1.889  -0.686  -2.772  0.00  0.00     0.275 HD
HETATM   24  H           1       0.611   0.054  -1.916  0.00  0.00     0.275 HD
ENDBRANCH  16  21
ENDBRANCH   1  16
TORSDOF 11
