REMARK  12 active torsions:
REMARK  status: ('A' for Active; 'I' for Inactive)
REMARK    1  A    between atoms: C_3  and  C_23 
REMARK    2  A    between atoms: C_3  and  S_21 
REMARK    3  A    between atoms: C_6  and  C_15 
REMARK    4  A    between atoms: C_6  and  C_9 
REMARK    5  A    between atoms: C_6  and  N_10 
REMARK       I    between atoms: N_10  and  C_13 
REMARK    6  A    between atoms: C_13  and  C_14 
REMARK    7  A    between atoms: C_14  and  C_23 
REMARK    8  A    between atoms: C_14  and  N_25 
REMARK    9  A    between atoms: C_15  and  C_19 
REMARK   10  A    between atoms: N_16  and  C_17 
REMARK   11  A    between atoms: C_17  and  C_18 
REMARK   12  A    between atoms: C_18  and  C_19 
ROOT
HETATM    1  H           1      -0.786  -1.101  -0.213  0.00  0.00     0.163 HD
HETATM    2  N           1      -0.280  -0.225  -0.214  0.00  0.00    -0.345 N 
HETATM    3  C           1      -0.964   0.961  -0.214  0.00  0.00     0.249 C 
HETATM    4  O           1      -0.360   2.007  -0.214  0.00  0.00    -0.271 OA
ENDROOT
BRANCH   2   5
HETATM    5  C           1       1.170  -0.225  -0.214  0.00  0.00     0.185 C 
BRANCH   5   6
HETATM    6  C           1       1.677  -1.661  -0.213  0.00  0.00     0.036 C 
BRANCH   6   7
HETATM    7  C           1       3.200  -1.662  -0.214  0.00  0.00     0.004 C 
BRANCH   7   8
HETATM    8  C           1       3.707  -2.381  -1.457  0.00  0.00     0.027 C 
BRANCH   8   9
HETATM    9  C           1       3.199  -3.817  -1.457  0.00  0.00     0.229 C 
BRANCH   9  10
HETATM   10  N           1       1.699  -3.817  -1.457  0.00  0.00    -0.079 N 
HETATM   11  H           1       1.351  -3.324  -2.311  0.00  0.00     0.274 HD
HETATM   12  H           1       1.351  -3.325  -0.604  0.00  0.00     0.274 HD
HETATM   13  H           1       1.350  -4.802  -1.457  0.00  0.00     0.274 HD
ENDBRANCH   9  10
ENDBRANCH   8   9
ENDBRANCH   7   8
ENDBRANCH   6   7
ENDBRANCH   5   6
BRANCH   5  14
HETATM   14  C           1       1.673   0.486  -1.446  0.00  0.00     0.196 C 
HETATM   15  O           1       1.371   1.683  -1.644  0.00  0.00    -0.646 OA
HETATM   16  O           1       2.391  -0.121  -2.269  0.00  0.00    -0.646 OA
ENDBRANCH   5  14
ENDBRANCH   2   5
BRANCH   3  17
HETATM   17  C           1      -2.473   0.961  -0.214  0.00  0.00     0.275 C 
BRANCH  17  18
HETATM   18  C           1      -2.981   2.396  -0.214  0.00  0.00     0.053 C 
BRANCH  18  19
HETATM   19  C           1      -2.475   3.115   1.029  0.00  0.00     0.076 C 
BRANCH  19  20
HETATM   20  S           1      -3.886   3.686   2.017  0.00  0.00    -0.173 SA
HETATM   21  C           1      -2.907   4.451   3.340  0.00  0.00     0.089 C 
ENDBRANCH  19  20
ENDBRANCH  18  19
ENDBRANCH  17  18
BRANCH  17  22
HETATM   22  N           1      -2.972   0.255   1.012  0.00  0.00    -0.066 N 
HETATM   23  H           1      -2.624   0.748   1.864  0.00  0.00     0.275 HD
HETATM   24  H           1      -2.624  -0.731   1.012  0.00  0.00     0.275 HD
HETATM   25  H           1      -4.017   0.254   1.013  0.00  0.00     0.275 HD
ENDBRANCH  17  22
ENDBRANCH   3  17
TORSDOF 12
