REMARK  9 active torsions:
REMARK  status: ('A' for Active; 'I' for Inactive)
REMARK    1  A    between atoms: C_1  and  O_15 
REMARK    2  A    between atoms: C_1  and  C_2 
REMARK    3  A    between atoms: C_2  and  C_3 
REMARK    4  A    between atoms: C_2  and  N_14 
REMARK       I    between atoms: C_6  and  N_14 
REMARK    5  A    between atoms: C_6  and  C_7 
REMARK    6  A    between atoms: C_7  and  C_8 
REMARK    7  A    between atoms: C_7  and  N_17 
REMARK    8  A    between atoms: C_8  and  C_12 
REMARK    9  A    between atoms: S_11  and  C_12 
ROOT
HETATM    1  C           1      -0.064  -0.156   0.691  0.00  0.00     0.249 C 
HETATM    2  H           1      -0.245  -2.218   0.691  0.00  0.00     0.163 HD
HETATM    3  O           1      -0.667   0.891   0.690  0.00  0.00    -0.271 OA
HETATM    4  N           1      -0.750  -1.341   0.691  0.00  0.00    -0.343 N 
ENDROOT
BRANCH   1   5
HETATM    5  C           1       1.445  -0.157   0.692  0.00  0.00     0.275 C 
BRANCH   5   6
HETATM    6  C           1       1.954   1.278   0.692  0.00  0.00     0.053 C 
BRANCH   6   7
HETATM    7  C           1       1.449   1.997  -0.552  0.00  0.00     0.076 C 
BRANCH   7   8
HETATM    8  S           1       2.862   2.565  -1.539  0.00  0.00    -0.173 SA
HETATM    9  C           1       1.884   3.331  -2.863  0.00  0.00     0.089 C 
ENDBRANCH   7   8
ENDBRANCH   6   7
ENDBRANCH   5   6
BRANCH   5  10
HETATM   10  N           1       1.944  -0.865  -0.533  0.00  0.00    -0.066 N 
HETATM   11  H           1       2.989  -0.866  -0.533  0.00  0.00     0.275 HD
HETATM   12  H           1       1.595  -1.849  -0.533  0.00  0.00     0.275 HD
HETATM   13  H           1       1.596  -0.371  -1.386  0.00  0.00     0.275 HD
ENDBRANCH   5  10
ENDBRANCH   1   5
BRANCH   4  14
HETATM   14  C           1      -2.200  -1.339   0.690  0.00  0.00     0.209 C 
BRANCH  14  15
HETATM   15  C           1      -2.708  -2.775   0.690  0.00  0.00     0.200 C 
BRANCH  15  16
HETATM   16  O           1      -4.110  -2.775   0.690  0.00  0.00    -0.398 OA
HETATM   17  H           1      -4.384  -3.676   0.690  0.00  0.00     0.209 HD
ENDBRANCH  15  16
ENDBRANCH  14  15
BRANCH  14  18
HETATM   18  C           1      -2.702  -0.627   1.922  0.00  0.00     0.198 C 
HETATM   19  O           1      -2.399   0.570   2.119  0.00  0.00    -0.646 OA
HETATM   20  O           1      -3.421  -1.234   2.745  0.00  0.00    -0.646 OA
ENDBRANCH  14  18
ENDBRANCH   4  14
TORSDOF 9
