REMARK  11 active torsions:
REMARK  status: ('A' for Active; 'I' for Inactive)
REMARK    1  A    between atoms: C_1  and  C_14 
REMARK    2  A    between atoms: C_1  and  C_24 
REMARK    3  A    between atoms: C_2  and  C_19 
REMARK    4  A    between atoms: N_6  and  C_14 
REMARK    5  A    between atoms: N_10  and  C_15 
REMARK    6  A    between atoms: C_12  and  C_16 
REMARK    7  A    between atoms: C_12  and  C_19 
REMARK    8  A    between atoms: N_13  and  C_19 
REMARK       I    between atoms: N_13  and  C_18 
REMARK    9  A    between atoms: C_14  and  C_18 
REMARK   10  A    between atoms: C_15  and  C_16 
REMARK   11  A    between atoms: S_23  and  C_24 
ROOT
HETATM    1  O           1       1.613   1.167   0.395  0.00  0.00    -0.271 OA
HETATM    2  H           1      -1.459   0.851  -0.157  0.00  0.00     0.163 HD
HETATM    3  N           1      -0.464   0.758  -0.316  0.00  0.00    -0.345 N 
HETATM    4  C           1       0.425   1.278   0.585  0.00  0.00     0.249 C 
ENDROOT
BRANCH   3   5
HETATM    5  C           1       0.020   0.073  -1.499  0.00  0.00     0.185 C 
BRANCH   5   6
HETATM    6  C           1       0.859   1.021  -2.320  0.00  0.00     0.196 C 
HETATM    7  O           1       1.887   1.533  -1.826  0.00  0.00    -0.646 OA
HETATM    8  O           1       0.527   1.293  -3.494  0.00  0.00    -0.646 OA
ENDBRANCH   5   6
BRANCH   5   9
HETATM    9  C           1      -1.165  -0.405  -2.328  0.00  0.00     0.038 C 
BRANCH   9  10
HETATM   10  C           1      -0.658  -1.124  -3.571  0.00  0.00     0.030 C 
BRANCH  10  11
HETATM   11  C           1      -1.166  -2.560  -3.571  0.00  0.00     0.230 C 
BRANCH  11  12
HETATM   12  N           1      -2.666  -2.560  -3.571  0.00  0.00    -0.079 N 
HETATM   13  H           1      -3.014  -2.068  -2.718  0.00  0.00     0.274 HD
HETATM   14  H           1      -3.014  -2.067  -4.425  0.00  0.00     0.274 HD
HETATM   15  H           1      -3.015  -3.545  -3.571  0.00  0.00     0.274 HD
ENDBRANCH  11  12
ENDBRANCH  10  11
ENDBRANCH   9  10
ENDBRANCH   5   9
ENDBRANCH   3   5
BRANCH   4  16
HETATM   16  C           1      -0.079   1.991   1.816  0.00  0.00     0.275 C 
BRANCH  16  17
HETATM   17  C           1       1.105   2.470   2.647  0.00  0.00     0.053 C 
BRANCH  17  18
HETATM   18  C           1       1.950   1.274   3.064  0.00  0.00     0.076 C 
BRANCH  18  19
HETATM   19  S           1       0.942   0.134   4.052  0.00  0.00    -0.173 SA
HETATM   20  C           1       2.249  -1.093   4.336  0.00  0.00     0.089 C 
ENDBRANCH  18  19
ENDBRANCH  17  18
ENDBRANCH  16  17
BRANCH  16  21
HETATM   21  N           1      -0.913   1.049   2.633  0.00  0.00    -0.066 N 
HETATM   22  H           1      -1.262   1.541   3.486  0.00  0.00     0.275 HD
HETATM   23  H           1      -1.725   0.721   2.063  0.00  0.00     0.275 HD
HETATM   24  H           1      -0.332   0.228   2.918  0.00  0.00     0.275 HD
ENDBRANCH  16  21
ENDBRANCH   4  16
TORSDOF 11
