REMARK  12 active torsions:
REMARK  status: ('A' for Active; 'I' for Inactive)
REMARK    1  A    between atoms: C_2  and  C_3 
REMARK    2  A    between atoms: C_2  and  S_11 
REMARK    3  A    between atoms: C_3  and  C_18 
REMARK    4  A    between atoms: C_5  and  C_26 
REMARK    5  A    between atoms: O_6  and  P_9 
REMARK    6  A    between atoms: P_9  and  O_22 
REMARK    7  A    between atoms: C_12  and  C_25 
REMARK    8  A    between atoms: C_18  and  C_27 
REMARK    9  A    between atoms: C_18  and  N_30 
REMARK   10  A    between atoms: O_22  and  C_29 
REMARK   11  A    between atoms: N_23  and  C_25 
REMARK       I    between atoms: N_23  and  C_27 
REMARK   12  A    between atoms: C_25  and  C_26 
ROOT
HETATM    1  C           1       2.611   1.298  -1.480  0.00  0.00     0.189 C 
ENDROOT
BRANCH   1   2
HETATM    2  C           1       3.471   2.097  -2.428  0.00  0.00     0.197 C 
HETATM    3  O           1       4.702   1.884  -2.487  0.00  0.00    -0.646 OA
HETATM    4  O           1       2.954   2.973  -3.154  0.00  0.00    -0.646 OA
ENDBRANCH   1   2
BRANCH   1   5
HETATM    5  N           1       3.069   1.507  -0.120  0.00  0.00    -0.344 N 
HETATM    6  H           1       3.856   2.117   0.061  0.00  0.00     0.163 HD
HETATM    7  C           1       2.436   0.880   0.919  0.00  0.00     0.249 C 
HETATM    8  O           1       2.809  -0.210   1.283  0.00  0.00    -0.271 OA
BRANCH   7   9
HETATM    9  C           1       1.273   1.549   1.609  0.00  0.00     0.275 C 
BRANCH   9  10
HETATM   10  C           1       0.754   0.647   2.721  0.00  0.00     0.053 C 
BRANCH  10  11
HETATM   11  C           1       0.296  -0.679   2.128  0.00  0.00     0.076 C 
BRANCH  11  12
HETATM   12  S           1      -1.466  -0.927   2.486  0.00  0.00    -0.173 SA
HETATM   13  C           1      -1.614  -2.533   1.653  0.00  0.00     0.089 C 
ENDBRANCH  11  12
ENDBRANCH  10  11
ENDBRANCH   9  10
BRANCH   9  14
HETATM   14  N           1       0.178   1.797   0.615  0.00  0.00    -0.066 N 
HETATM   15  H           1       0.534   2.416  -0.148  0.00  0.00     0.275 HD
HETATM   16  H           1      -0.135   0.887   0.208  0.00  0.00     0.275 HD
HETATM   17  H           1      -0.628   2.261   1.092  0.00  0.00     0.275 HD
ENDBRANCH   9  14
ENDBRANCH   7   9
ENDBRANCH   1   5
BRANCH   1  18
HETATM   18  C           1       1.163   1.751  -1.603  0.00  0.00     0.074 C 
BRANCH  18  19
HETATM   19  C           1       0.252   0.603  -1.298  0.00  0.00    -0.056 A 
HETATM   20  C           1       0.787  -0.642  -0.966  0.00  0.00     0.010 A 
HETATM   21  C           1      -0.062  -1.712  -0.682  0.00  0.00     0.038 A 
HETATM   22  C           1      -1.445  -1.538  -0.731  0.00  0.00     0.081 A 
HETATM   23  C           1      -1.979  -0.293  -1.063  0.00  0.00     0.038 A 
HETATM   24  C           1      -1.131   0.777  -1.347  0.00  0.00     0.010 A 
BRANCH  22  25
HETATM   25  O           1      -2.269  -2.577  -0.455  0.00  0.00    -0.247 OA
BRANCH  25  26
HETATM   26  P           1      -3.862  -2.321  -0.526  0.00  0.00     0.411 P 
HETATM   27  O           1      -4.236  -1.267   0.443  0.00  0.00    -0.624 OA
HETATM   28  O           1      -4.577  -3.573  -0.193  0.00  0.00    -0.624 OA
BRANCH  26  29
HETATM   29  O           1      -4.265  -1.849  -2.016  0.00  0.00    -0.300 OA
HETATM   30  H           1      -5.197  -1.719  -1.987  0.00  0.00     0.223 HD
ENDBRANCH  26  29
ENDBRANCH  25  26
ENDBRANCH  22  25
ENDBRANCH  18  19
ENDBRANCH   1  18
TORSDOF 12
