REMARK  10 active torsions:
REMARK  status: ('A' for Active; 'I' for Inactive)
REMARK    1  A    between atoms: C_2  and  C_14 
REMARK    2  A    between atoms: C_2  and  C_3 
REMARK    3  A    between atoms: C_3  and  C_13 
REMARK    4  A    between atoms: C_5  and  C_20 
REMARK    5  A    between atoms: C_5  and  C_6 
REMARK    6  A    between atoms: C_5  and  N_9 
REMARK    7  A    between atoms: C_6  and  C_7 
REMARK    8  A    between atoms: C_7  and  S_15 
REMARK    9  A    between atoms: N_11  and  C_13 
REMARK       I    between atoms: N_11  and  C_20 
REMARK   10  A    between atoms: C_13  and  C_19 
ROOT
HETATM    1  O           1       0.119  -0.041   1.330  0.00  0.00    -0.271 OA
HETATM    2  H           1       1.027   1.290  -1.362  0.00  0.00     0.163 HD
HETATM    3  N           1       1.022   0.621  -0.603  0.00  0.00    -0.345 N 
HETATM    4  C           1       0.126   0.758   0.423  0.00  0.00     0.249 C 
ENDROOT
BRANCH   3   5
HETATM    5  C           1       1.962  -0.482  -0.602  0.00  0.00     0.186 C 
BRANCH   5   6
HETATM    6  C           1       2.838  -0.403  -1.845  0.00  0.00     0.046 C 
BRANCH   6   7
HETATM    7  C           1       3.827  -1.561  -1.845  0.00  0.00     0.116 C 
BRANCH   7   8
HETATM    8  C           1       3.073  -2.868  -1.845  0.00  0.00     0.172 C 
HETATM    9  O           1       3.698  -3.950  -1.845  0.00  0.00    -0.648 OA
HETATM   10  O           1       1.823  -2.868  -1.845  0.00  0.00    -0.648 OA
ENDBRANCH   7   8
ENDBRANCH   6   7
ENDBRANCH   5   6
BRANCH   5  11
HETATM   11  C           1       2.829  -0.403   0.631  0.00  0.00     0.196 C 
HETATM   12  O           1       4.068  -0.289   0.517  0.00  0.00    -0.646 OA
HETATM   13  O           1       2.307  -0.450   1.766  0.00  0.00    -0.646 OA
ENDBRANCH   5  11
ENDBRANCH   3   5
BRANCH   4  14
HETATM   14  C           1      -0.853   1.906   0.423  0.00  0.00     0.275 C 
BRANCH  14  15
HETATM   15  C           1      -1.730   1.828   1.665  0.00  0.00     0.053 C 
BRANCH  15  16
HETATM   16  C           1      -2.494   0.511   1.666  0.00  0.00     0.076 C 
BRANCH  16  17
HETATM   17  S           1      -4.278   0.845   1.665  0.00  0.00    -0.173 SA
HETATM   18  C           1      -4.806  -0.891   1.666  0.00  0.00     0.089 C 
ENDBRANCH  16  17
ENDBRANCH  15  16
ENDBRANCH  14  15
BRANCH  14  19
HETATM   19  N           1      -1.715   1.827  -0.802  0.00  0.00    -0.066 N 
HETATM   20  H           1      -1.114   1.881  -1.655  0.00  0.00     0.275 HD
HETATM   21  H           1      -2.393   2.622  -0.804  0.00  0.00     0.275 HD
HETATM   22  H           1      -2.239   0.922  -0.801  0.00  0.00     0.275 HD
ENDBRANCH  14  19
ENDBRANCH   4  14
TORSDOF 10
