REMARK  9 active torsions:
REMARK  status: ('A' for Active; 'I' for Inactive)
REMARK    1  A    between atoms: C_2  and  C_10 
REMARK    2  A    between atoms: C_2  and  S_3 
REMARK    3  A    between atoms: N_7  and  C_27 
REMARK       I    between atoms: N_7  and  C_11 
REMARK    4  A    between atoms: C_8  and  C_27 
REMARK    5  A    between atoms: C_8  and  C_18 
REMARK    6  A    between atoms: C_10  and  C_23 
REMARK    7  A    between atoms: C_11  and  C_23 
REMARK    8  A    between atoms: N_16  and  C_23 
REMARK    9  A    between atoms: C_21  and  C_27 
ROOT
HETATM    1  C           1      -2.319   0.387   1.764  0.00  0.00     0.190 C 
ENDROOT
BRANCH   1   2
HETATM    2  N           1      -2.983  -0.218   0.626  0.00  0.00    -0.344 N 
HETATM    3  C           1      -2.251  -0.886  -0.318  0.00  0.00     0.249 C 
HETATM    4  O           1      -2.043  -2.070  -0.195  0.00  0.00    -0.271 OA
HETATM    5  H           1      -3.988  -0.146   0.529  0.00  0.00     0.163 HD
BRANCH   3   6
HETATM    6  C           1      -1.703  -0.144  -1.513  0.00  0.00     0.275 C 
BRANCH   6   7
HETATM    7  C           1      -0.932  -1.111  -2.402  0.00  0.00     0.053 C 
BRANCH   7   8
HETATM    8  C           1       0.219  -1.721  -1.613  0.00  0.00     0.076 C 
BRANCH   8   9
HETATM    9  S           1       0.022  -3.524  -1.550  0.00  0.00    -0.173 SA
HETATM   10  C           1       1.516  -3.854  -0.573  0.00  0.00     0.089 C 
ENDBRANCH   8   9
ENDBRANCH   7   8
ENDBRANCH   6   7
BRANCH   6  11
HETATM   11  N           1      -0.783   0.945  -1.045  0.00  0.00    -0.066 N 
HETATM   12  H           1      -0.404   1.460  -1.872  0.00  0.00     0.275 HD
HETATM   13  H           1       0.006   0.526  -0.503  0.00  0.00     0.275 HD
HETATM   14  H           1      -1.312   1.609  -0.435  0.00  0.00     0.275 HD
ENDBRANCH   6  11
ENDBRANCH   3   6
ENDBRANCH   1   2
BRANCH   1  15
HETATM   15  C           1      -1.316   1.424   1.274  0.00  0.00     0.077 C 
BRANCH  15  16
HETATM   16  C           1       0.013   0.770   1.059  0.00  0.00    -0.028 A 
HETATM   17  C           1       1.199   1.411   0.605  0.00  0.00    -0.002 A 
HETATM   18  C           1       2.196   0.437   0.547  0.00  0.00     0.042 A 
HETATM   19  C           1       1.519   2.732   0.236  0.00  0.00     0.014 A 
HETATM   20  C           1       3.505   0.719   0.137  0.00  0.00     0.030 A 
HETATM   21  N           1       1.627  -0.749   0.953  0.00  0.00    -0.365 N 
HETATM   22  C           1       3.799   2.037  -0.224  0.00  0.00     0.002 A 
HETATM   23  C           1       2.823   3.031  -0.176  0.00  0.00     0.001 A 
HETATM   24  H           1       2.132  -1.668   1.015  0.00  0.00     0.165 HD
HETATM   25  C           1       0.307  -0.559   1.265  0.00  0.00     0.096 A 
ENDBRANCH  15  16
ENDBRANCH   1  15
BRANCH   1  26
HETATM   26  C           1      -3.344   1.056   2.647  0.00  0.00     0.197 C 
HETATM   27  O           1      -4.264   0.382   3.157  0.00  0.00    -0.646 OA
HETATM   28  O           1      -3.273   2.284   2.867  0.00  0.00    -0.646 OA
ENDBRANCH   1  26
TORSDOF 9
