REMARK  6 active torsions:
REMARK  status: ('A' for Active; 'I' for Inactive)
REMARK    1  A    between atoms: C_1  and  C_4 
REMARK    2  A    between atoms: C_1  and  C_9 
REMARK       I    between atoms: N_2  and  C_3 
REMARK    3  A    between atoms: C_3  and  C_4 
REMARK    4  A    between atoms: C_4  and  N_15 
REMARK    5  A    between atoms: C_9  and  S_14 
REMARK    6  A    between atoms: C_16  and  C_18 
ROOT
HETATM    1  N           1      -0.899  -0.909   0.784  0.00  0.00    -0.336 N 
HETATM    2  C           1       0.008   0.113   0.856  0.00  0.00     0.251 C 
HETATM    3  C           1      -1.864  -2.645  -0.464  0.00  0.00     0.022 C 
HETATM    4  C           1      -0.651  -2.291   0.379  0.00  0.00     0.127 C 
HETATM    5  O           1      -0.348   1.212   1.210  0.00  0.00    -0.271 OA
HETATM    6  C           1      -2.964  -1.698   0.002  0.00  0.00     0.038 C 
HETATM    7  C           1      -2.325  -0.857   1.094  0.00  0.00     0.188 C 
ENDROOT
BRANCH   2   8
HETATM    8  C           1       1.452  -0.132   0.493  0.00  0.00     0.275 C 
BRANCH   8   9
HETATM    9  C           1       2.244   1.159   0.658  0.00  0.00     0.053 C 
BRANCH   9  10
HETATM   10  C           1       1.666   2.230  -0.257  0.00  0.00     0.076 C 
BRANCH  10  11
HETATM   11  S           1       2.942   2.786  -1.422  0.00  0.00    -0.173 SA
HETATM   12  C           1       1.907   3.998  -2.290  0.00  0.00     0.089 C 
ENDBRANCH  10  11
ENDBRANCH   9  10
ENDBRANCH   8   9
BRANCH   8  13
HETATM   13  N           1       1.537  -0.591  -0.932  0.00  0.00    -0.066 N 
HETATM   14  H           1       2.537  -0.761  -1.185  0.00  0.00     0.275 HD
HETATM   15  H           1       0.995  -1.477  -1.045  0.00  0.00     0.275 HD
HETATM   16  H           1       1.140   0.144  -1.560  0.00  0.00     0.275 HD
ENDBRANCH   8  13
ENDBRANCH   2   8
BRANCH   7  17
HETATM   17  C           1      -2.600  -1.445   2.456  0.00  0.00     0.196 C 
HETATM   18  O           1      -3.770  -1.487   2.894  0.00  0.00    -0.646 OA
HETATM   19  O           1      -1.658  -1.891   3.146  0.00  0.00    -0.646 OA
ENDBRANCH   7  17
TORSDOF 6
