REMARK  7 active torsions:
REMARK  status: ('A' for Active; 'I' for Inactive)
REMARK    1  A    between atoms: C_1  and  C_9 
REMARK    2  A    between atoms: C_1  and  S_7 
REMARK    3  A    between atoms: N_3  and  C_10 
REMARK    4  A    between atoms: C_9  and  C_10 
REMARK    5  A    between atoms: C_10  and  C_11 
REMARK       I    between atoms: C_11  and  N_12 
REMARK    6  A    between atoms: N_12  and  C_17 
REMARK    7  A    between atoms: C_13  and  C_17 
ROOT
HETATM    1  C           1       0.342  -0.004   1.545  0.00  0.00     0.275 C 
ENDROOT
BRANCH   1   2
HETATM    2  N           1      -0.158  -1.418   1.544  0.00  0.00    -0.066 N 
HETATM    3  H           1       0.189  -1.911   2.398  0.00  0.00     0.275 HD
HETATM    4  H           1      -1.203  -1.418   1.544  0.00  0.00     0.275 HD
HETATM    5  H           1       0.191  -1.911   0.691  0.00  0.00     0.275 HD
ENDBRANCH   1   2
BRANCH   1   6
HETATM    6  C           1       1.865  -0.005   1.546  0.00  0.00     0.053 C 
BRANCH   6   7
HETATM    7  C           1       2.374  -0.724   0.303  0.00  0.00     0.076 C 
BRANCH   7   8
HETATM    8  S           1       1.769  -2.435   0.303  0.00  0.00    -0.173 SA
HETATM    9  C           1       2.556  -2.924  -1.258  0.00  0.00     0.089 C 
ENDBRANCH   7   8
ENDBRANCH   6   7
ENDBRANCH   1   6
BRANCH   1  10
HETATM   10  C           1      -0.160   0.707   0.312  0.00  0.00     0.249 C 
HETATM   11  O           1       0.625   1.165  -0.483  0.00  0.00    -0.271 OA
HETATM   12  N           1      -1.506   0.832   0.094  0.00  0.00    -0.345 N 
HETATM   13  H           1      -2.164   0.448   0.761  0.00  0.00     0.163 HD
BRANCH  12  14
HETATM   14  C           1      -1.989   1.515  -1.090  0.00  0.00     0.181 C 
HETATM   15  C           1      -3.512   1.515  -1.090  0.00  0.00     0.043 C 
BRANCH  14  16
HETATM   16  C           1      -1.485   2.937  -1.090  0.00  0.00     0.196 C 
HETATM   17  O           1      -0.256   3.165  -1.090  0.00  0.00    -0.646 OA
HETATM   18  O           1      -2.297   3.888  -1.090  0.00  0.00    -0.646 OA
ENDBRANCH  14  16
ENDBRANCH  12  14
ENDBRANCH   1  10
TORSDOF 7
