REMARK  11 active torsions:
REMARK  status: ('A' for Active; 'I' for Inactive)
REMARK    1  A    between atoms: C_2  and  C_13 
REMARK    2  A    between atoms: C_2  and  C_18 
REMARK    3  A    between atoms: C_2  and  N_7 
REMARK       I    between atoms: N_5  and  C_15 
REMARK    4  A    between atoms: C_6  and  C_18 
REMARK    5  A    between atoms: C_6  and  S_19 
REMARK    6  A    between atoms: C_8  and  C_9 
REMARK    7  A    between atoms: C_8  and  C_17 
REMARK    8  A    between atoms: C_8  and  N_11 
REMARK    9  A    between atoms: C_9  and  C_14 
REMARK       I    between atoms: N_11  and  C_13 
REMARK   10  A    between atoms: C_14  and  C_26 
REMARK       I    between atoms: C_15  and  N_24 
REMARK   11  A    between atoms: N_24  and  C_26 
ROOT
HETATM    1  C           1       2.083   0.457   0.331  0.00  0.00     0.185 C 
ENDROOT
BRANCH   1   2
HETATM    2  C           1       2.928  -0.740   0.747  0.00  0.00     0.038 C 
BRANCH   2   3
HETATM    3  C           1       2.082  -1.697   1.576  0.00  0.00     0.023 C 
BRANCH   3   4
HETATM    4  C           1       1.573  -0.979   2.819  0.00  0.00     0.138 C 
BRANCH   4   5
HETATM    5  N           1       0.103  -0.979   2.819  0.00  0.00    -0.227 N 
HETATM    6  H           1      -0.422  -0.070   2.819  0.00  0.00     0.177 HD
HETATM    7  C           1      -0.530  -2.076   2.819  0.00  0.00     0.665 C 
HETATM    8  N           1      -1.830  -2.076   2.819  0.00  0.00    -0.235 N 
HETATM    9  N           1       0.103  -3.172   2.819  0.00  0.00    -0.235 N 
HETATM   10  H           1      -2.352  -1.171   2.819  0.00  0.00     0.174 HD
HETATM   11  H           1      -2.352  -2.981   2.819  0.00  0.00     0.174 HD
HETATM   12  H           1      -0.422  -4.081   2.819  0.00  0.00     0.174 HD
HETATM   13  H           1       1.153  -3.172   2.819  0.00  0.00     0.174 HD
ENDBRANCH   4   5
ENDBRANCH   3   4
ENDBRANCH   2   3
ENDBRANCH   1   2
BRANCH   1  14
HETATM   14  C           1       2.965   1.673   0.194  0.00  0.00     0.196 C 
HETATM   15  O           1       4.192   1.584   0.416  0.00  0.00    -0.646 OA
HETATM   16  O           1       2.469   2.770  -0.141  0.00  0.00    -0.646 OA
ENDBRANCH   1  14
BRANCH   1  17
HETATM   17  N           1       1.444   0.178  -0.940  0.00  0.00    -0.345 N 
HETATM   18  H           1       1.600  -0.709  -1.401  0.00  0.00     0.163 HD
HETATM   19  C           1       0.628   1.115  -1.517  0.00  0.00     0.249 C 
HETATM   20  O           1       0.442   2.173  -0.966  0.00  0.00    -0.271 OA
BRANCH  19  21
HETATM   21  C           1      -0.037   0.825  -2.840  0.00  0.00     0.275 C 
BRANCH  21  22
HETATM   22  C           1      -0.882   2.020  -3.257  0.00  0.00     0.053 C 
BRANCH  22  23
HETATM   23  C           1      -1.948   2.283  -2.200  0.00  0.00     0.076 C 
BRANCH  23  24
HETATM   24  S           1      -3.010   0.820  -2.035  0.00  0.00    -0.173 SA
HETATM   25  C           1      -4.091   1.504  -0.748  0.00  0.00     0.089 C 
ENDBRANCH  23  24
ENDBRANCH  22  23
ENDBRANCH  21  22
BRANCH  21  26
HETATM   26  N           1      -0.914  -0.384  -2.703  0.00  0.00    -0.066 N 
HETATM   27  H           1      -1.375  -0.586  -3.619  0.00  0.00     0.275 HD
HETATM   28  H           1      -0.334  -1.205  -2.418  0.00  0.00     0.275 HD
HETATM   29  H           1      -1.645  -0.204  -1.978  0.00  0.00     0.275 HD
ENDBRANCH  21  26
ENDBRANCH  19  21
ENDBRANCH   1  17
TORSDOF 11
