REMARK  11 active torsions:
REMARK  status: ('A' for Active; 'I' for Inactive)
REMARK    1  A    between atoms: N_1  and  C_20 
REMARK    2  A    between atoms: C_2  and  C_3 
REMARK    3  A    between atoms: C_3  and  C_5 
REMARK    4  A    between atoms: C_3  and  N_17 
REMARK    5  A    between atoms: C_5  and  C_10 
REMARK       I    between atoms: C_7  and  N_17 
REMARK    6  A    between atoms: C_7  and  C_8 
REMARK    7  A    between atoms: C_8  and  C_22 
REMARK    8  A    between atoms: C_8  and  N_11 
REMARK    9  A    between atoms: C_9  and  O_14 
REMARK   10  A    between atoms: C_20  and  C_21 
REMARK   11  A    between atoms: C_21  and  C_22 
ROOT
HETATM    1  C           1      -1.318  -1.039   0.410  0.00  0.00     0.249 C 
HETATM    2  O           1      -2.063  -1.041  -0.540  0.00  0.00    -0.271 OA
HETATM    3  N           1      -0.037  -1.504   0.277  0.00  0.00    -0.344 N 
HETATM    4  H           1       0.588  -1.502   1.073  0.00  0.00     0.163 HD
ENDROOT
BRANCH   3   5
HETATM    5  C           1       0.424  -1.999  -1.006  0.00  0.00     0.189 C 
BRANCH   5   6
HETATM    6  C           1      -0.434  -3.164  -1.433  0.00  0.00     0.197 C 
HETATM    7  O           1      -1.663  -3.009  -1.594  0.00  0.00    -0.646 OA
HETATM    8  O           1       0.085  -4.285  -1.625  0.00  0.00    -0.646 OA
ENDBRANCH   5   6
BRANCH   5   9
HETATM    9  C           1       1.873  -2.452  -0.883  0.00  0.00     0.074 C 
BRANCH   9  10
HETATM   10  C           1       2.784  -1.303  -1.188  0.00  0.00    -0.056 A 
HETATM   11  C           1       4.167  -1.478  -1.139  0.00  0.00     0.010 A 
HETATM   12  C           1       5.015  -0.408  -1.423  0.00  0.00     0.037 A 
HETATM   13  C           1       4.480   0.837  -1.755  0.00  0.00     0.065 A 
HETATM   14  C           1       3.097   1.012  -1.804  0.00  0.00     0.037 A 
HETATM   15  C           1       2.249  -0.059  -1.520  0.00  0.00     0.010 A 
BRANCH  13  16
HETATM   16  O           1       5.304   1.877  -2.031  0.00  0.00    -0.361 OA
HETATM   17  H           1       4.753   2.650  -2.238  0.00  0.00     0.217 HD
ENDBRANCH  13  16
ENDBRANCH   9  10
ENDBRANCH   5   9
ENDBRANCH   3   5
BRANCH   1  18
HETATM   18  C           1      -1.798  -0.524   1.745  0.00  0.00     0.274 C 
BRANCH  18  19
HETATM   19  C           1      -3.247  -0.070   1.623  0.00  0.00     0.044 C 
BRANCH  19  20
HETATM   20  C           1      -3.346   1.040   0.586  0.00  0.00     0.030 C 
BRANCH  20  21
HETATM   21  C           1      -2.481   2.217   1.016  0.00  0.00     0.230 C 
BRANCH  21  22
HETATM   22  N           1      -3.339   3.436   1.180  0.00  0.00    -0.079 N 
HETATM   23  H           1      -2.746   4.244   1.475  0.00  0.00     0.274 HD
HETATM   24  H           1      -4.067   3.255   1.908  0.00  0.00     0.274 HD
HETATM   25  H           1      -3.804   3.660   0.271  0.00  0.00     0.274 HD
ENDBRANCH  21  22
ENDBRANCH  20  21
ENDBRANCH  19  20
ENDBRANCH  18  19
BRANCH  18  26
HETATM   26  N           1      -0.946   0.635   2.169  0.00  0.00    -0.067 N 
HETATM   27  H           1      -1.277   0.993   3.093  0.00  0.00     0.275 HD
HETATM   28  H           1       0.048   0.324   2.253  0.00  0.00     0.275 HD
HETATM   29  H           1      -1.014   1.397   1.456  0.00  0.00     0.275 HD
ENDBRANCH  18  26
ENDBRANCH   1  18
TORSDOF 11
