REMARK  10 active torsions:
REMARK  status: ('A' for Active; 'I' for Inactive)
REMARK    1  A    between atoms: C_1  and  C_3 
REMARK    2  A    between atoms: C_1  and  C_2 
REMARK    3  A    between atoms: C_1  and  N_6 
REMARK    4  A    between atoms: C_2  and  C_19 
REMARK       I    between atoms: C_3  and  N_18 
REMARK    5  A    between atoms: N_7  and  C_22 
REMARK    6  A    between atoms: C_8  and  C_20 
REMARK    7  A    between atoms: C_8  and  C_12 
REMARK    8  A    between atoms: C_8  and  N_18 
REMARK    9  A    between atoms: C_12  and  C_23 
REMARK   10  A    between atoms: C_19  and  C_22 
ROOT
HETATM    1  C           1       1.662   0.994   0.557  0.00  0.00     0.249 C 
HETATM    2  H           1       2.326   2.818  -0.162  0.00  0.00     0.163 HD
HETATM    3  N           1       1.802   1.980  -0.382  0.00  0.00    -0.344 N 
HETATM    4  O           1       2.474   0.103   0.624  0.00  0.00    -0.271 OA
ENDROOT
BRANCH   1   5
HETATM    5  C           1       0.491   1.021   1.510  0.00  0.00     0.274 C 
BRANCH   5   6
HETATM    6  C           1       0.570  -0.179   2.445  0.00  0.00     0.044 C 
BRANCH   6   7
HETATM    7  C           1       0.530  -1.463   1.628  0.00  0.00     0.033 C 
BRANCH   7   8
HETATM    8  C           1      -0.770  -1.522   0.836  0.00  0.00     0.620 C 
BRANCH   8   9
HETATM    9  N           1      -1.547  -2.741   1.237  0.00  0.00    -0.077 N 
HETATM   10  H           1      -2.438  -2.781   0.694  0.00  0.00     0.274 HD
HETATM   11  H           1      -1.763  -2.695   2.258  0.00  0.00     0.274 HD
HETATM   12  H           1      -0.979  -3.596   1.039  0.00  0.00     0.274 HD
ENDBRANCH   8   9
ENDBRANCH   7   8
ENDBRANCH   6   7
ENDBRANCH   5   6
BRANCH   5  13
HETATM   13  N           1      -0.789   0.963   0.730  0.00  0.00    -0.067 N 
HETATM   14  H           1      -1.600   0.982   1.388  0.00  0.00     0.275 HD
HETATM   15  H           1      -0.843   1.787   0.088  0.00  0.00     0.275 HD
HETATM   16  H           1      -0.815   0.082   0.169  0.00  0.00     0.275 HD
ENDBRANCH   5  13
ENDBRANCH   1   5
BRANCH   3  17
HETATM   17  C           1       1.200   1.825  -1.692  0.00  0.00     0.191 C 
BRANCH  17  18
HETATM   18  C           1       1.501   3.043  -2.531  0.00  0.00     0.197 C 
HETATM   19  O           1       0.566   3.741  -2.978  0.00  0.00    -0.646 OA
HETATM   20  O           1       2.687   3.354  -2.778  0.00  0.00    -0.646 OA
ENDBRANCH  17  18
BRANCH  17  21
HETATM   21  C           1      -0.308   1.672  -1.542  0.00  0.00     0.094 C 
BRANCH  21  22
HETATM   22  C           1      -0.650   0.222  -1.397  0.00  0.00     0.034 A 
HETATM   23  C           1       0.267  -0.802  -1.402  0.00  0.00     0.212 A 
HETATM   24  N           1      -0.473  -1.941  -1.245  0.00  0.00    -0.072 N 
HETATM   25  C           1      -1.784  -1.570  -1.154  0.00  0.00     0.277 A 
HETATM   26  H           1      -0.102  -2.922  -1.203  0.00  0.00     0.272 HD
HETATM   27  N           1      -1.922  -0.267  -1.243  0.00  0.00    -0.349 N 
ATOM     28  HN          1      -2.790   0.267  -1.206  1.00  0.00     0.166 HD
ENDBRANCH  21  22
ENDBRANCH  17  21
ENDBRANCH   3  17
TORSDOF 10
