REMARK  10 active torsions:
REMARK  status: ('A' for Active; 'I' for Inactive)
REMARK    1  A    between atoms: C_4  and  O_12 
REMARK    2  A    between atoms: C_4  and  C_18 
REMARK    3  A    between atoms: C_5  and  C_20 
REMARK    4  A    between atoms: C_5  and  C_23 
REMARK    5  A    between atoms: C_5  and  N_15 
REMARK    6  A    between atoms: N_7  and  C_8 
REMARK    7  A    between atoms: C_8  and  C_9 
REMARK    8  A    between atoms: C_9  and  C_23 
REMARK    9  A    between atoms: C_17  and  C_18 
REMARK   10  A    between atoms: C_18  and  N_21 
REMARK       I    between atoms: C_20  and  N_21 
ROOT
HETATM    1  C           1       1.402   0.430   0.575  0.00  0.00     0.274 C 
ENDROOT
BRANCH   1   2
HETATM    2  C           1       0.563  -0.519  -0.245  0.00  0.00     0.249 C 
HETATM    3  O           1       0.392  -1.654   0.132  0.00  0.00    -0.271 OA
HETATM    4  N           1      -0.003  -0.094  -1.417  0.00  0.00    -0.343 N 
HETATM    5  H           1       0.141   0.856  -1.733  0.00  0.00     0.163 HD
BRANCH   4   6
HETATM    6  C           1      -0.809  -1.006  -2.205  0.00  0.00     0.214 C 
BRANCH   6   7
HETATM    7  C           1      -1.316  -0.289  -3.449  0.00  0.00     0.147 C 
HETATM    8  C           1      -2.839  -0.289  -3.449  0.00  0.00     0.042 C 
BRANCH   7   9
HETATM    9  O           1      -0.848   1.033  -3.449  0.00  0.00    -0.393 OA
HETATM   10  H           1       0.093   0.990  -3.449  0.00  0.00     0.210 HD
ENDBRANCH   7   9
ENDBRANCH   6   7
BRANCH   6  11
HETATM   11  C           1       0.029  -2.192  -2.614  0.00  0.00     0.199 C 
HETATM   12  O           1       0.207  -2.444  -3.825  0.00  0.00    -0.646 OA
HETATM   13  O           1       0.546  -2.923  -1.741  0.00  0.00    -0.646 OA
ENDBRANCH   6  11
ENDBRANCH   4   6
ENDBRANCH   1   2
BRANCH   1  14
HETATM   14  C           1       1.910  -0.286   1.820  0.00  0.00     0.044 C 
BRANCH  14  15
HETATM   15  C           1       0.726  -0.763   2.650  0.00  0.00     0.030 C 
BRANCH  15  16
HETATM   16  C           1      -0.121   0.434   3.064  0.00  0.00     0.248 C 
BRANCH  16  17
HETATM   17  N           1       0.712   1.378   3.879  0.00  0.00    -0.079 N 
HETATM   18  H           1       1.061   0.887   4.733  0.00  0.00     0.274 HD
HETATM   19  H           1       0.132   2.200   4.162  0.00  0.00     0.274 HD
HETATM   20  H           1       1.525   1.707   3.309  0.00  0.00     0.274 HD
ENDBRANCH  16  17
ENDBRANCH  15  16
ENDBRANCH  14  15
ENDBRANCH   1  14
BRANCH   1  21
HETATM   21  N           1       0.569   1.609   0.982  0.00  0.00    -0.067 N 
HETATM   22  H           1       1.149   2.267   1.551  0.00  0.00     0.275 HD
HETATM   23  H           1       0.221   2.100   0.128  0.00  0.00     0.275 HD
HETATM   24  H           1      -0.244   1.281   1.552  0.00  0.00     0.257 HD
ENDBRANCH   1  21
TORSDOF 10
