REMARK  10 active torsions:
REMARK  status: ('A' for Active; 'I' for Inactive)
REMARK    1  A    between atoms: C_1  and  C_5 
REMARK    2  A    between atoms: C_1  and  C_11 
REMARK       I    between atoms: C_3  and  N_12 
REMARK    3  A    between atoms: C_3  and  C_4 
REMARK    4  A    between atoms: C_4  and  C_7 
REMARK    5  A    between atoms: C_4  and  N_24 
REMARK    6  A    between atoms: C_7  and  C_10 
REMARK    7  A    between atoms: C_8  and  C_10 
REMARK    8  A    between atoms: C_8  and  N_17 
REMARK    9  A    between atoms: C_11  and  C_13 
REMARK   10  A    between atoms: C_11  and  N_12 
ROOT
HETATM    1  C           1       1.012  -0.358   0.226  0.00  0.00     0.249 C 
HETATM    2  N           1       0.225   0.756   0.349  0.00  0.00    -0.345 N 
HETATM    3  O           1       1.304  -0.772  -0.870  0.00  0.00    -0.271 OA
HETATM    4  H           1      -0.020   1.103   1.268  0.00  0.00     0.163 HD
ENDROOT
BRANCH   1   5
HETATM    5  C           1       1.514  -1.067   1.460  0.00  0.00     0.274 C 
BRANCH   5   6
HETATM    6  C           1       2.360  -2.264   1.049  0.00  0.00     0.044 C 
BRANCH   6   7
HETATM    7  C           1       1.515  -3.224   0.221  0.00  0.00     0.030 C 
BRANCH   7   8
HETATM    8  C           1       0.330  -3.701   1.049  0.00  0.00     0.230 C 
BRANCH   8   9
HETATM    9  N           1       0.385  -5.194   1.189  0.00  0.00    -0.079 N 
HETATM   10  H           1      -0.428  -5.521   1.757  0.00  0.00     0.274 HD
HETATM   11  H           1       1.275  -5.466   1.666  0.00  0.00     0.274 HD
HETATM   12  H           1       0.348  -5.634   0.242  0.00  0.00     0.274 HD
ENDBRANCH   8   9
ENDBRANCH   7   8
ENDBRANCH   6   7
ENDBRANCH   5   6
BRANCH   5  13
HETATM   13  N           1       0.346  -1.537   2.276  0.00  0.00    -0.067 N 
HETATM   14  H           1       0.693  -2.028   3.130  0.00  0.00     0.275 HD
HETATM   15  H           1      -0.234  -0.715   2.558  0.00  0.00     0.275 HD
HETATM   16  H           1      -0.233  -2.195   1.707  0.00  0.00     0.275 HD
ENDBRANCH   5  13
ENDBRANCH   1   5
BRANCH   2  17
HETATM   17  C           1      -0.258   1.437  -0.836  0.00  0.00     0.185 C 
BRANCH  17  18
HETATM   18  C           1      -1.104   2.634  -0.423  0.00  0.00     0.040 C 
BRANCH  18  19
HETATM   19  C           1      -1.611   3.352  -1.668  0.00  0.00    -0.020 C 
HETATM   20  C           1      -3.134   3.352  -1.668  0.00  0.00     0.009 C 
HETATM   21  C           1      -1.103   4.787  -1.668  0.00  0.00     0.009 C 
ENDBRANCH  18  19
ENDBRANCH  17  18
BRANCH  17  22
HETATM   22  C           1       0.917   1.910  -1.657  0.00  0.00     0.196 C 
HETATM   23  O           1       1.743   1.082  -2.100  0.00  0.00    -0.646 OA
HETATM   24  O           1       1.063   3.128  -1.895  0.00  0.00    -0.646 OA
ENDBRANCH  17  22
ENDBRANCH   2  17
TORSDOF 10
