REMARK  10 active torsions:
REMARK  status: ('A' for Active; 'I' for Inactive)
REMARK    1  A    between atoms: C_2  and  C_18 
REMARK    2  A    between atoms: C_2  and  C_3 
REMARK    3  A    between atoms: C_2  and  N_7 
REMARK    4  A    between atoms: C_4  and  C_13 
REMARK    5  A    between atoms: C_4  and  N_20 
REMARK       I    between atoms: N_7  and  C_8 
REMARK    6  A    between atoms: C_8  and  C_15 
REMARK    7  A    between atoms: C_13  and  C_14 
REMARK    8  A    between atoms: C_14  and  C_15 
REMARK    9  A    between atoms: C_15  and  N_21 
REMARK   10  A    between atoms: C_18  and  S_19 
ROOT
HETATM    1  C           1       1.078  -0.042   0.634  0.00  0.00     0.274 C 
ENDROOT
BRANCH   1   2
HETATM    2  C           1      -0.431  -0.041   0.633  0.00  0.00     0.249 C 
HETATM    3  N           1      -1.117  -1.226   0.633  0.00  0.00    -0.344 N 
HETATM    4  H           1      -0.612  -2.103   0.633  0.00  0.00     0.163 HD
HETATM    5  O           1      -1.034   1.006   0.632  0.00  0.00    -0.271 OA
BRANCH   3   6
HETATM    6  C           1      -2.567  -1.224   0.632  0.00  0.00     0.194 C 
BRANCH   6   7
HETATM    7  C           1      -3.075  -2.660   0.632  0.00  0.00     0.106 C 
BRANCH   7   8
HETATM    8  S           1      -4.890  -2.660   0.632  0.00  0.00    -0.180 SA
HETATM    9  H           1      -5.031  -3.998   0.632  0.00  0.00     0.101 HD
ENDBRANCH   7   8
ENDBRANCH   6   7
BRANCH   6  10
HETATM   10  C           1      -3.069  -0.512   1.864  0.00  0.00     0.197 C 
HETATM   11  O           1      -2.766   0.685   2.061  0.00  0.00    -0.646 OA
HETATM   12  O           1      -3.788  -1.119   2.687  0.00  0.00    -0.646 OA
ENDBRANCH   6  10
ENDBRANCH   3   6
ENDBRANCH   1   2
BRANCH   1  13
HETATM   13  C           1       1.588   1.393   0.634  0.00  0.00     0.044 C 
BRANCH  13  14
HETATM   14  C           1       1.082   2.112  -0.610  0.00  0.00     0.030 C 
BRANCH  14  15
HETATM   15  C           1       2.268   2.589  -1.439  0.00  0.00     0.230 C 
BRANCH  15  16
HETATM   16  N           1       3.100   1.410  -1.847  0.00  0.00    -0.079 N 
HETATM   17  H           1       3.448   0.917  -0.994  0.00  0.00     0.274 HD
HETATM   18  H           1       2.519   0.754  -2.416  0.00  0.00     0.274 HD
HETATM   19  H           1       3.913   1.737  -2.416  0.00  0.00     0.274 HD
ENDBRANCH  15  16
ENDBRANCH  14  15
ENDBRANCH  13  14
ENDBRANCH   1  13
BRANCH   1  20
HETATM   20  N           1       1.577  -0.750  -0.591  0.00  0.00    -0.067 N 
HETATM   21  H           1       1.228  -1.734  -0.591  0.00  0.00     0.275 HD
HETATM   22  H           1       1.229  -0.256  -1.444  0.00  0.00     0.275 HD
HETATM   23  H           1       2.622  -0.751  -0.592  0.00  0.00     0.275 HD
ENDBRANCH   1  20
TORSDOF 10
