REMARK  10 active torsions:
REMARK  status: ('A' for Active; 'I' for Inactive)
REMARK    1  A    between atoms: C_2  and  O_16 
REMARK    2  A    between atoms: C_2  and  C_10 
REMARK    3  A    between atoms: C_3  and  C_8 
REMARK    4  A    between atoms: C_3  and  C_15 
REMARK       I    between atoms: C_5  and  N_6 
REMARK    5  A    between atoms: C_5  and  C_11 
REMARK    6  A    between atoms: N_6  and  C_10 
REMARK    7  A    between atoms: C_8  and  C_11 
REMARK    8  A    between atoms: C_10  and  C_12 
REMARK    9  A    between atoms: C_11  and  N_13 
REMARK   10  A    between atoms: C_15  and  N_19 
ROOT
HETATM    1  C           1       1.057  -0.056   0.634  0.00  0.00     0.274 C 
ENDROOT
BRANCH   1   2
HETATM    2  C           1      -0.452  -0.054   0.633  0.00  0.00     0.249 C 
HETATM    3  N           1      -1.138  -1.239   0.633  0.00  0.00    -0.343 N 
HETATM    4  H           1      -0.633  -2.116   0.633  0.00  0.00     0.163 HD
HETATM    5  O           1      -1.055   0.993   0.632  0.00  0.00    -0.271 OA
BRANCH   3   6
HETATM    6  C           1      -2.588  -1.237   0.632  0.00  0.00     0.209 C 
BRANCH   6   7
HETATM    7  C           1      -3.096  -2.673   0.632  0.00  0.00     0.200 C 
BRANCH   7   8
HETATM    8  O           1      -4.498  -2.673   0.632  0.00  0.00    -0.398 OA
HETATM    9  H           1      -4.772  -3.574   0.632  0.00  0.00     0.209 HD
ENDBRANCH   7   8
ENDBRANCH   6   7
BRANCH   6  10
HETATM   10  C           1      -3.090  -0.525   1.864  0.00  0.00     0.198 C 
HETATM   11  O           1      -2.787   0.671   2.061  0.00  0.00    -0.646 OA
HETATM   12  O           1      -3.809  -1.132   2.687  0.00  0.00    -0.646 OA
ENDBRANCH   6  10
ENDBRANCH   3   6
ENDBRANCH   1   2
BRANCH   1  13
HETATM   13  C           1       1.567   1.380   0.634  0.00  0.00     0.044 C 
BRANCH  13  14
HETATM   14  C           1       1.061   2.099  -0.610  0.00  0.00     0.030 C 
BRANCH  14  15
HETATM   15  C           1       2.247   2.576  -1.439  0.00  0.00     0.230 C 
BRANCH  15  16
HETATM   16  N           1       3.079   1.396  -1.847  0.00  0.00    -0.079 N 
HETATM   17  H           1       2.498   0.741  -2.416  0.00  0.00     0.274 HD
HETATM   18  H           1       3.892   1.724  -2.416  0.00  0.00     0.274 HD
HETATM   19  H           1       3.427   0.904  -0.994  0.00  0.00     0.274 HD
ENDBRANCH  15  16
ENDBRANCH  14  15
ENDBRANCH  13  14
ENDBRANCH   1  13
BRANCH   1  20
HETATM   20  N           1       1.556  -0.763  -0.591  0.00  0.00    -0.067 N 
HETATM   21  H           1       1.208  -0.269  -1.444  0.00  0.00     0.275 HD
HETATM   22  H           1       2.601  -0.764  -0.592  0.00  0.00     0.275 HD
HETATM   23  H           1       1.207  -1.748  -0.591  0.00  0.00     0.275 HD
ENDBRANCH   1  20
TORSDOF 10
