REMARK  9 active torsions:
REMARK  status: ('A' for Active; 'I' for Inactive)
REMARK    1  A    between atoms: C_1  and  C_8 
REMARK    2  A    between atoms: C_1  and  C_2 
REMARK    3  A    between atoms: C_2  and  N_12 
REMARK    4  A    between atoms: C_4  and  C_5 
REMARK    5  A    between atoms: C_5  and  C_11 
REMARK    6  A    between atoms: C_5  and  N_21 
REMARK    7  A    between atoms: C_8  and  C_9 
REMARK    8  A    between atoms: C_9  and  C_10 
REMARK    9  A    between atoms: C_9  and  N_23 
REMARK       I    between atoms: C_10  and  N_21 
ROOT
HETATM    1  C           1       1.458   0.335   0.757  0.00  0.00     0.274 C 
ENDROOT
BRANCH   1   2
HETATM    2  C           1       1.965  -0.381   2.001  0.00  0.00     0.044 C 
BRANCH   2   3
HETATM    3  C           1       0.781  -0.858   2.832  0.00  0.00     0.030 C 
BRANCH   3   4
HETATM    4  C           1      -0.065   0.339   3.245  0.00  0.00     0.248 C 
BRANCH   4   5
HETATM    5  N           1       0.768   1.283   4.060  0.00  0.00    -0.079 N 
HETATM    6  H           1       0.187   2.105   4.344  0.00  0.00     0.274 HD
HETATM    7  H           1       1.116   0.792   4.914  0.00  0.00     0.274 HD
HETATM    8  H           1       1.580   1.611   3.490  0.00  0.00     0.274 HD
ENDBRANCH   4   5
ENDBRANCH   3   4
ENDBRANCH   2   3
ENDBRANCH   1   2
BRANCH   1   9
HETATM    9  C           1       0.619  -0.614  -0.063  0.00  0.00     0.249 C 
HETATM   10  N           1       0.052  -0.189  -1.235  0.00  0.00    -0.344 N 
HETATM   11  H           1       0.196   0.761  -1.551  0.00  0.00     0.163 HD
HETATM   12  O           1       0.447  -1.749   0.314  0.00  0.00    -0.271 OA
BRANCH  10  13
HETATM   13  C           1      -0.754  -1.101  -2.023  0.00  0.00     0.189 C 
BRANCH  13  14
HETATM   14  C           1      -1.261  -0.384  -3.267  0.00  0.00     0.010 C 
HETATM   15  C           1      -2.784  -0.384  -3.267  0.00  0.00     0.012 C 
HETATM   16  C           1      -0.752   1.052  -3.267  0.00  0.00     0.012 C 
ENDBRANCH  13  14
BRANCH  13  17
HETATM   17  C           1       0.085  -2.287  -2.432  0.00  0.00     0.197 C 
HETATM   18  O           1       0.601  -3.018  -1.559  0.00  0.00    -0.646 OA
HETATM   19  O           1       0.263  -2.539  -3.643  0.00  0.00    -0.646 OA
ENDBRANCH  13  17
ENDBRANCH  10  13
ENDBRANCH   1   9
BRANCH   1  20
HETATM   20  N           1       0.624   1.514   1.164  0.00  0.00    -0.067 N 
HETATM   21  H           1       1.204   2.172   1.732  0.00  0.00     0.275 HD
HETATM   22  H           1       0.276   2.005   0.310  0.00  0.00     0.275 HD
HETATM   23  H           1      -0.189   1.186   1.733  0.00  0.00     0.257 HD
ENDBRANCH   1  20
TORSDOF 9
