REMARK  12 active torsions:
REMARK  status: ('A' for Active; 'I' for Inactive)
REMARK    1  A    between atoms: C_1  and  C_31 
REMARK    2  A    between atoms: C_1  and  C_28 
REMARK       I    between atoms: N_2  and  C_29 
REMARK    3  A    between atoms: N_2  and  C_23 
REMARK       I    between atoms: N_3  and  C_29 
REMARK    4  A    between atoms: C_5  and  C_32 
REMARK    5  A    between atoms: C_5  and  C_6 
REMARK    6  A    between atoms: C_5  and  N_18 
REMARK    7  A    between atoms: C_6  and  C_7 
REMARK    8  A    between atoms: C_7  and  C_11 
REMARK    9  A    between atoms: C_11  and  N_19 
REMARK   10  A    between atoms: C_23  and  C_31 
REMARK   11  A    between atoms: N_25  and  C_28 
REMARK       I    between atoms: N_25  and  C_32 
REMARK   12  A    between atoms: C_27  and  C_28 
ROOT
HETATM    1  H           1       1.733  -0.725  -1.155  0.00  0.00     0.163 HD
HETATM    2  O           1       0.574   2.158  -0.719  0.00  0.00    -0.271 OA
HETATM    3  N           1       1.576   0.162  -0.693  0.00  0.00    -0.345 N 
HETATM    4  C           1       0.761   1.099  -1.270  0.00  0.00     0.249 C 
ENDROOT
BRANCH   3   5
HETATM    5  C           1       2.215   0.441   0.578  0.00  0.00     0.185 C 
BRANCH   5   6
HETATM    6  C           1       3.060  -0.755   0.994  0.00  0.00     0.038 C 
BRANCH   6   7
HETATM    7  C           1       2.214  -1.712   1.823  0.00  0.00     0.023 C 
BRANCH   7   8
HETATM    8  C           1       1.706  -0.995   3.066  0.00  0.00     0.138 C 
BRANCH   8   9
HETATM    9  N           1       0.236  -0.995   3.066  0.00  0.00    -0.227 N 
HETATM   10  C           1      -0.397  -2.091   3.066  0.00  0.00     0.665 C 
HETATM   11  N           1       0.236  -3.187   3.066  0.00  0.00    -0.235 N 
HETATM   12  N           1      -1.697  -2.091   3.066  0.00  0.00    -0.235 N 
HETATM   13  H           1       1.286  -3.187   3.066  0.00  0.00     0.174 HD
HETATM   14  H           1      -0.289  -4.097   3.066  0.00  0.00     0.174 HD
HETATM   15  H           1      -2.220  -1.186   3.066  0.00  0.00     0.174 HD
HETATM   16  H           1      -2.220  -2.996   3.066  0.00  0.00     0.174 HD
HETATM   17  H           1      -0.289  -0.085   3.066  0.00  0.00     0.177 HD
ENDBRANCH   8   9
ENDBRANCH   7   8
ENDBRANCH   6   7
ENDBRANCH   5   6
BRANCH   5  18
HETATM   18  C           1       3.097   1.658   0.441  0.00  0.00     0.196 C 
HETATM   19  O           1       4.324   1.568   0.662  0.00  0.00    -0.646 OA
HETATM   20  O           1       2.601   2.755   0.105  0.00  0.00    -0.646 OA
ENDBRANCH   5  18
ENDBRANCH   3   5
BRANCH   4  21
HETATM   21  C           1       0.096   0.809  -2.593  0.00  0.00     0.274 C 
BRANCH  21  22
HETATM   22  C           1      -0.750   2.005  -3.010  0.00  0.00     0.044 C 
BRANCH  22  23
HETATM   23  C           1      -1.815   2.267  -1.953  0.00  0.00     0.030 C 
BRANCH  23  24
HETATM   24  C           1      -2.706   1.040  -1.815  0.00  0.00     0.230 C 
BRANCH  24  25
HETATM   25  N           1      -4.124   1.411  -2.135  0.00  0.00    -0.079 N 
HETATM   26  H           1      -4.735   0.569  -2.040  0.00  0.00     0.274 HD
HETATM   27  H           1      -4.447   2.153  -1.473  0.00  0.00     0.274 HD
HETATM   28  H           1      -4.177   1.770  -3.115  0.00  0.00     0.274 HD
ENDBRANCH  24  25
ENDBRANCH  23  24
ENDBRANCH  22  23
ENDBRANCH  21  22
BRANCH  21  29
HETATM   29  N           1      -0.782  -0.400  -2.456  0.00  0.00    -0.067 N 
HETATM   30  H           1      -1.512  -0.219  -1.731  0.00  0.00     0.275 HD
HETATM   31  H           1      -0.201  -1.220  -2.171  0.00  0.00     0.275 HD
HETATM   32  H           1      -1.243  -0.601  -3.372  0.00  0.00     0.275 HD
ENDBRANCH  21  29
ENDBRANCH   4  21
TORSDOF 12
