REMARK  10 active torsions:
REMARK  status: ('A' for Active; 'I' for Inactive)
REMARK    1  A    between atoms: N_1  and  C_11 
REMARK    2  A    between atoms: Se_2  and  C_20 
REMARK    3  A    between atoms: N_4  and  C_17 
REMARK    4  A    between atoms: C_6  and  C_23 
REMARK    5  A    between atoms: C_11  and  C_14 
REMARK    6  A    between atoms: C_11  and  C_12 
REMARK    7  A    between atoms: C_12  and  C_21 
REMARK       I    between atoms: C_14  and  N_22 
REMARK    8  A    between atoms: C_17  and  C_21 
REMARK    9  A    between atoms: C_20  and  C_23 
REMARK   10  A    between atoms: N_22  and  C_23 
ROOT
HETATM    1  C           1       1.085  -0.038   0.634  0.00  0.00     0.274 C 
ENDROOT
BRANCH   1   2
HETATM    2  N           1       1.584  -0.746  -0.591  0.00  0.00    -0.067 N 
HETATM    3  H           1       2.629  -0.747  -0.592  0.00  0.00     0.275 HD
HETATM    4  H           1       1.235  -1.731  -0.591  0.00  0.00     0.275 HD
HETATM    5  H           1       1.237  -0.252  -1.444  0.00  0.00     0.275 HD
ENDBRANCH   1   2
BRANCH   1   6
HETATM    6  C           1      -0.424  -0.037   0.633  0.00  0.00     0.249 C 
HETATM    7  O           1      -1.027   1.010   0.632  0.00  0.00    -0.271 OA
HETATM    8  N           1      -1.110  -1.222   0.633  0.00  0.00    -0.345 N 
HETATM    9  H           1      -0.604  -2.099   0.633  0.00  0.00     0.163 HD
BRANCH   8  10
HETATM   10  C           1      -2.560  -1.220   0.632  0.00  0.00     0.185 C 
BRANCH  10  11
HETATM   11  C           1      -3.062  -0.508   1.864  0.00  0.00     0.196 C 
HETATM   12  O           1      -2.759   0.688   2.061  0.00  0.00    -0.646 OA
HETATM   13  O           1      -3.781  -1.115   2.687  0.00  0.00    -0.646 OA
ENDBRANCH  10  11
BRANCH  10  14
HETATM   14  C           1      -3.068  -2.656   0.632  0.00  0.00     0.039 C 
BRANCH  14  15
HETATM   15 Se           1      -5.017  -2.656   0.632  0.00  0.00     0.000 Se
HETATM   16  H           1      -5.132  -4.123   0.632  0.00  0.00     0.000 HD
ENDBRANCH  14  15
ENDBRANCH  10  14
ENDBRANCH   8  10
ENDBRANCH   1   6
BRANCH   1  17
HETATM   17  C           1       1.595   1.397   0.634  0.00  0.00     0.044 C 
BRANCH  17  18
HETATM   18  C           1       1.090   2.116  -0.610  0.00  0.00     0.030 C 
BRANCH  18  19
HETATM   19  C           1       2.275   2.593  -1.439  0.00  0.00     0.230 C 
BRANCH  19  20
HETATM   20  N           1       3.107   1.414  -1.847  0.00  0.00    -0.079 N 
HETATM   21  H           1       3.921   1.741  -2.416  0.00  0.00     0.274 HD
HETATM   22  H           1       3.455   0.921  -0.994  0.00  0.00     0.274 HD
HETATM   23  H           1       2.526   0.758  -2.416  0.00  0.00     0.274 HD
ENDBRANCH  19  20
ENDBRANCH  18  19
ENDBRANCH  17  18
ENDBRANCH   1  17
TORSDOF 10
