REMARK  8 active torsions:
REMARK  status: ('A' for Active; 'I' for Inactive)
REMARK    1  A    between atoms: C_2  and  C_17 
REMARK    2  A    between atoms: C_2  and  C_10 
REMARK       I    between atoms: C_9  and  N_13 
REMARK    3  A    between atoms: C_9  and  C_16 
REMARK    4  A    between atoms: C_10  and  N_11 
REMARK    5  A    between atoms: C_12  and  C_18 
REMARK    6  A    between atoms: C_12  and  N_13 
REMARK    7  A    between atoms: N_14  and  C_16 
REMARK    8  A    between atoms: C_16  and  C_17 
ROOT
HETATM    1  C           1      -0.565   0.235  -0.852  0.00  0.00     0.274 C 
ENDROOT
BRANCH   1   2
HETATM    2  C           1       0.415  -0.913  -0.852  0.00  0.00     0.248 C 
HETATM    3  O           1       1.603  -0.692  -0.852  0.00  0.00    -0.271 OA
HETATM    4  N           1      -0.042  -2.203  -0.852  0.00  0.00    -0.349 N 
HETATM    5  H           1      -1.037  -2.387  -0.852  0.00  0.00     0.163 HD
BRANCH   4   6
HETATM    6  C           1       0.900  -3.306  -0.852  0.00  0.00     0.235 C 
BRANCH   6   7
HETATM    7  C           1       0.145  -4.612  -0.852  0.00  0.00     0.191 C 
HETATM    8  O           1       0.770  -5.695  -0.852  0.00  0.00    -0.647 OA
HETATM    9  O           1      -1.105  -4.612  -0.852  0.00  0.00    -0.647 OA
ENDBRANCH   6   7
ENDBRANCH   4   6
ENDBRANCH   1   2
BRANCH   1  10
HETATM   10  N           1      -1.426   0.156   0.374  0.00  0.00    -0.067 N 
HETATM   11  H           1      -1.949  -0.749   0.373  0.00  0.00     0.275 HD
HETATM   12  H           1      -0.825   0.211   1.226  0.00  0.00     0.275 HD
HETATM   13  H           1      -2.105   0.950   0.375  0.00  0.00     0.275 HD
ENDBRANCH   1  10
BRANCH   1  14
HETATM   14  C           1       0.197   1.554  -0.852  0.00  0.00     0.044 C 
BRANCH  14  15
HETATM   15  C           1       1.072   1.635   0.391  0.00  0.00     0.030 C 
BRANCH  15  16
HETATM   16  C           1       0.667   2.847   1.221  0.00  0.00     0.230 C 
BRANCH  16  17
HETATM   17  N           1      -0.770   2.715   1.630  0.00  0.00    -0.079 N 
HETATM   18  H           1      -0.892   1.847   2.199  0.00  0.00     0.274 HD
HETATM   19  H           1      -1.048   3.546   2.199  0.00  0.00     0.274 HD
HETATM   20  H           1      -1.371   2.660   0.777  0.00  0.00     0.274 HD
ENDBRANCH  16  17
ENDBRANCH  15  16
ENDBRANCH  14  15
ENDBRANCH   1  14
TORSDOF 8
