REMARK  8 active torsions:
REMARK  status: ('A' for Active; 'I' for Inactive)
REMARK       I    between atoms: C_2  and  N_3 
REMARK    1  A    between atoms: C_2  and  C_12 
REMARK    2  A    between atoms: N_3  and  C_7 
REMARK    3  A    between atoms: C_5  and  C_14 
REMARK    4  A    between atoms: C_5  and  C_6 
REMARK    5  A    between atoms: C_6  and  N_20 
REMARK    6  A    between atoms: C_7  and  C_8 
REMARK    7  A    between atoms: C_12  and  C_14 
REMARK    8  A    between atoms: C_12  and  N_19 
ROOT
HETATM    1  C           1       0.191   0.167   1.300  0.00  0.00     0.274 C 
ENDROOT
BRANCH   1   2
HETATM    2  C           1      -0.311   0.878   0.068  0.00  0.00     0.249 C 
HETATM    3  N           1      -1.657   1.003  -0.150  0.00  0.00    -0.345 N 
HETATM    4  H           1      -2.315   0.619   0.516  0.00  0.00     0.163 HD
HETATM    5  O           1       0.474   1.336  -0.728  0.00  0.00    -0.271 OA
BRANCH   3   6
HETATM    6  C           1      -2.140   1.686  -1.334  0.00  0.00     0.181 C 
HETATM    7  C           1      -3.663   1.686  -1.334  0.00  0.00     0.043 C 
BRANCH   6   8
HETATM    8  C           1      -1.636   3.108  -1.334  0.00  0.00     0.196 C 
HETATM    9  O           1      -0.407   3.336  -1.334  0.00  0.00    -0.646 OA
HETATM   10  O           1      -2.448   4.059  -1.334  0.00  0.00    -0.646 OA
ENDBRANCH   6   8
ENDBRANCH   3   6
ENDBRANCH   1   2
BRANCH   1  11
HETATM   11  C           1       1.714   0.166   1.302  0.00  0.00     0.044 C 
BRANCH  11  12
HETATM   12  C           1       2.223  -0.553   0.059  0.00  0.00     0.030 C 
BRANCH  12  13
HETATM   13  C           1       1.716  -1.989   0.059  0.00  0.00     0.230 C 
BRANCH  13  14
HETATM   14  N           1       2.882  -2.932   0.061  0.00  0.00    -0.079 N 
HETATM   15  H           1       3.460  -2.768   0.915  0.00  0.00     0.274 HD
HETATM   16  H           1       2.533  -3.917   0.060  0.00  0.00     0.274 HD
HETATM   17  H           1       3.463  -2.768  -0.792  0.00  0.00     0.274 HD
ENDBRANCH  13  14
ENDBRANCH  12  13
ENDBRANCH  11  12
ENDBRANCH   1  11
BRANCH   1  18
HETATM   18  N           1      -0.309  -1.247   1.300  0.00  0.00    -0.067 N 
HETATM   19  H           1       0.040  -1.740   0.447  0.00  0.00     0.275 HD
HETATM   20  H           1      -1.354  -1.247   1.300  0.00  0.00     0.275 HD
HETATM   21  H           1       0.038  -1.740   2.153  0.00  0.00     0.275 HD
ENDBRANCH   1  18
TORSDOF 8
