REMARK  11 active torsions:
REMARK  status: ('A' for Active; 'I' for Inactive)
REMARK    1  A    between atoms: C_1  and  C_24 
REMARK    2  A    between atoms: C_1  and  C_3 
REMARK    3  A    between atoms: C_3  and  C_9 
REMARK    4  A    between atoms: C_7  and  C_12 
REMARK    5  A    between atoms: C_9  and  N_18 
REMARK    6  A    between atoms: N_10  and  C_24 
REMARK    7  A    between atoms: C_11  and  S_20 
REMARK    8  A    between atoms: C_11  and  C_21 
REMARK    9  A    between atoms: C_12  and  C_21 
REMARK   10  A    between atoms: C_12  and  N_17 
REMARK       I    between atoms: C_16  and  N_17 
REMARK   11  A    between atoms: C_16  and  C_24 
ROOT
HETATM    1  O           1       1.408  -1.197   0.087  0.00  0.00    -0.271 OA
HETATM    2  H           1      -1.511  -0.188   0.639  0.00  0.00     0.163 HD
HETATM    3  C           1       0.226  -1.034  -0.103  0.00  0.00     0.249 C 
HETATM    4  N           1      -0.521  -0.324   0.798  0.00  0.00    -0.345 N 
ENDROOT
BRANCH   3   5
HETATM    5  C           1      -0.427  -1.613  -1.334  0.00  0.00     0.274 C 
BRANCH   5   6
HETATM    6  C           1       0.616  -2.350  -2.164  0.00  0.00     0.044 C 
BRANCH   6   7
HETATM    7  C           1       1.712  -1.378  -2.581  0.00  0.00     0.030 C 
BRANCH   7   8
HETATM    8  C           1       1.107  -0.254  -3.410  0.00  0.00     0.230 C 
BRANCH   8   9
HETATM    9  N           1       1.735  -0.241  -4.772  0.00  0.00    -0.079 N 
HETATM   10  H           1       1.320   0.531  -5.341  0.00  0.00     0.274 HD
HETATM   11  H           1       1.558  -1.156  -5.245  0.00  0.00     0.274 HD
HETATM   12  H           1       2.765  -0.089  -4.679  0.00  0.00     0.274 HD
ENDBRANCH   8   9
ENDBRANCH   7   8
ENDBRANCH   6   7
ENDBRANCH   5   6
BRANCH   5  13
HETATM   13  N           1      -1.024  -0.505  -2.150  0.00  0.00    -0.067 N 
HETATM   14  H           1      -1.476  -0.905  -3.003  0.00  0.00     0.275 HD
HETATM   15  H           1      -1.740  -0.000  -1.581  0.00  0.00     0.275 HD
HETATM   16  H           1      -0.271   0.161  -2.436  0.00  0.00     0.275 HD
ENDBRANCH   5  13
ENDBRANCH   3   5
BRANCH   4  17
HETATM   17  C           1       0.107   0.232   1.981  0.00  0.00     0.186 C 
BRANCH  17  18
HETATM   18  C           1       0.708  -0.883   2.802  0.00  0.00     0.196 C 
HETATM   19  O           1       1.591  -1.616   2.309  0.00  0.00    -0.646 OA
HETATM   20  O           1       0.322  -1.072   3.976  0.00  0.00    -0.646 OA
ENDBRANCH  17  18
BRANCH  17  21
HETATM   21  C           1      -0.937   0.968   2.811  0.00  0.00     0.046 C 
BRANCH  21  22
HETATM   22  C           1      -0.279   1.552   4.054  0.00  0.00     0.076 C 
BRANCH  22  23
HETATM   23  S           1      -0.478   3.356   4.054  0.00  0.00    -0.173 SA
HETATM   24  C           1      -2.293   3.356   4.054  0.00  0.00     0.089 C 
ENDBRANCH  22  23
ENDBRANCH  21  22
ENDBRANCH  17  21
ENDBRANCH   4  17
TORSDOF 11
