REMARK  11 active torsions:
REMARK  status: ('A' for Active; 'I' for Inactive)
REMARK    1  A    between atoms: N_6  and  C_26 
REMARK    2  A    between atoms: N_7  and  C_8 
REMARK    3  A    between atoms: C_8  and  C_17 
REMARK       I    between atoms: C_9  and  N_10 
REMARK    4  A    between atoms: C_9  and  C_15 
REMARK    5  A    between atoms: C_11  and  C_23 
REMARK    6  A    between atoms: C_13  and  C_26 
REMARK    7  A    between atoms: C_13  and  C_17 
REMARK    8  A    between atoms: C_15  and  C_27 
REMARK    9  A    between atoms: N_20  and  C_23 
REMARK       I    between atoms: N_20  and  C_25 
REMARK   10  A    between atoms: C_23  and  C_27 
REMARK   11  A    between atoms: C_25  and  C_26 
ROOT
HETATM    1  O           1       0.081  -0.132   1.215  0.00  0.00    -0.271 OA
HETATM    2  H           1       0.989   1.199  -1.477  0.00  0.00     0.163 HD
HETATM    3  N           1       0.984   0.530  -0.717  0.00  0.00    -0.345 N 
HETATM    4  C           1       0.088   0.667   0.309  0.00  0.00     0.249 C 
ENDROOT
BRANCH   4   5
HETATM    5  C           1      -0.891   1.815   0.308  0.00  0.00     0.274 C 
BRANCH   5   6
HETATM    6  N           1      -1.753   1.735  -0.917  0.00  0.00    -0.067 N 
HETATM    7  H           1      -2.431   2.530  -0.919  0.00  0.00     0.275 HD
HETATM    8  H           1      -1.152   1.790  -1.770  0.00  0.00     0.275 HD
HETATM    9  H           1      -2.277   0.831  -0.916  0.00  0.00     0.275 HD
ENDBRANCH   5   6
BRANCH   5  10
HETATM   10  C           1      -1.768   1.737   1.551  0.00  0.00     0.044 C 
BRANCH  10  11
HETATM   11  C           1      -2.532   0.419   1.552  0.00  0.00     0.030 C 
BRANCH  11  12
HETATM   12  C           1      -4.029   0.700   1.550  0.00  0.00     0.230 C 
BRANCH  12  13
HETATM   13  N           1      -4.392   1.488   2.774  0.00  0.00    -0.079 N 
HETATM   14  H           1      -3.868   2.393   2.773  0.00  0.00     0.274 HD
HETATM   15  H           1      -5.419   1.681   2.773  0.00  0.00     0.274 HD
HETATM   16  H           1      -4.141   0.941   3.628  0.00  0.00     0.274 HD
ENDBRANCH  12  13
ENDBRANCH  11  12
ENDBRANCH  10  11
ENDBRANCH   5  10
ENDBRANCH   4   5
BRANCH   3  17
HETATM   17  C           1       1.924  -0.574  -0.717  0.00  0.00     0.186 C 
BRANCH  17  18
HETATM   18  C           1       2.791  -0.494   0.516  0.00  0.00     0.196 C 
HETATM   19  O           1       2.269  -0.541   1.651  0.00  0.00    -0.646 OA
HETATM   20  O           1       4.030  -0.381   0.402  0.00  0.00    -0.646 OA
ENDBRANCH  17  18
BRANCH  17  21
HETATM   21  C           1       2.800  -0.494  -1.960  0.00  0.00     0.045 C 
BRANCH  21  22
HETATM   22  C           1       3.789  -1.652  -1.960  0.00  0.00     0.105 C 
BRANCH  22  23
HETATM   23  C           1       3.035  -2.959  -1.960  0.00  0.00     0.215 C 
HETATM   24  O           1       1.827  -2.959  -1.960  0.00  0.00    -0.274 OA
HETATM   25  N           1       3.719  -4.145  -1.960  0.00  0.00    -0.370 N 
HETATM   26  H           1       4.731  -4.145  -1.960  0.00  0.00     0.159 HD
HETATM   27  H           1       3.213  -5.021  -1.960  0.00  0.00     0.159 HD
ENDBRANCH  22  23
ENDBRANCH  21  22
ENDBRANCH  17  21
ENDBRANCH   3  17
TORSDOF 11
