REMARK  11 active torsions:
REMARK  status: ('A' for Active; 'I' for Inactive)
REMARK    1  A    between atoms: C_3  and  C_19 
REMARK    2  A    between atoms: C_3  and  C_17 
REMARK    3  A    between atoms: C_3  and  N_11 
REMARK    4  A    between atoms: Se_6  and  C_20 
REMARK    5  A    between atoms: N_7  and  C_8 
REMARK    6  A    between atoms: C_8  and  C_24 
REMARK       I    between atoms: C_10  and  N_11 
REMARK    7  A    between atoms: C_10  and  C_22 
REMARK    8  A    between atoms: N_16  and  C_22 
REMARK    9  A    between atoms: C_19  and  C_20 
REMARK   10  A    between atoms: C_22  and  C_23 
REMARK   11  A    between atoms: C_23  and  C_24 
ROOT
HETATM    1  H           1      -1.500  -0.160   0.639  0.00  0.00     0.163 HD
HETATM    2  C           1       0.214  -1.051  -0.103  0.00  0.00     0.249 C 
HETATM    3  N           1      -0.514  -0.322   0.798  0.00  0.00    -0.345 N 
HETATM    4  O           1       1.391  -1.245   0.087  0.00  0.00    -0.271 OA
ENDROOT
BRANCH   2   5
HETATM    5  C           1      -0.454  -1.613  -1.334  0.00  0.00     0.274 C 
BRANCH   5   6
HETATM    6  N           1      -1.021  -0.490  -2.150  0.00  0.00    -0.067 N 
HETATM    7  H           1      -0.251   0.157  -2.436  0.00  0.00     0.275 HD
HETATM    8  H           1      -1.724   0.034  -1.581  0.00  0.00     0.275 HD
HETATM    9  H           1      -1.484  -0.878  -3.003  0.00  0.00     0.275 HD
ENDBRANCH   5   6
BRANCH   5  10
HETATM   10  C           1       0.569  -2.377  -2.164  0.00  0.00     0.044 C 
BRANCH  10  11
HETATM   11  C           1       1.691  -1.434  -2.581  0.00  0.00     0.030 C 
BRANCH  11  12
HETATM   12  C           1       1.115  -0.294  -3.410  0.00  0.00     0.230 C 
BRANCH  12  13
HETATM   13  N           1       1.743  -0.298  -4.772  0.00  0.00    -0.079 N 
HETATM   14  H           1       1.348   0.485  -5.341  0.00  0.00     0.274 HD
HETATM   15  H           1       1.543  -1.208  -5.245  0.00  0.00     0.274 HD
HETATM   16  H           1       2.777  -0.173  -4.679  0.00  0.00     0.274 HD
ENDBRANCH  12  13
ENDBRANCH  11  12
ENDBRANCH  10  11
ENDBRANCH   5  10
ENDBRANCH   2   5
BRANCH   3  17
HETATM   17  C           1       0.128   0.217   1.981  0.00  0.00     0.185 C 
BRANCH  17  18
HETATM   18  C           1      -0.896   0.981   2.811  0.00  0.00     0.036 C 
BRANCH  18  19
HETATM   19  C           1      -0.223   1.547   4.054  0.00  0.00     0.003 C 
BRANCH  19  20
HETATM   20 Se           1      -0.386   3.490   4.054  0.00  0.00     0.000 Se
HETATM   21  C           1      -2.335   3.490   4.054  0.00  0.00     0.000 C 
ENDBRANCH  19  20
ENDBRANCH  18  19
ENDBRANCH  17  18
BRANCH  17  22
HETATM   22  C           1       0.700  -0.912   2.802  0.00  0.00     0.196 C 
HETATM   23  O           1       0.309  -1.092   3.976  0.00  0.00    -0.646 OA
HETATM   24  O           1       1.564  -1.669   2.309  0.00  0.00    -0.646 OA
ENDBRANCH  17  22
ENDBRANCH   3  17
TORSDOF 11
