REMARK  12 active torsions:
REMARK  status: ('A' for Active; 'I' for Inactive)
REMARK       I    between atoms: C_1  and  N_27 
REMARK    1  A    between atoms: C_1  and  C_3 
REMARK    2  A    between atoms: N_2  and  C_12 
REMARK    3  A    between atoms: C_3  and  C_11 
REMARK    4  A    between atoms: C_3  and  N_4 
REMARK    5  A    between atoms: P_5  and  O_9 
REMARK    6  A    between atoms: P_5  and  O_20 
REMARK    7  A    between atoms: O_9  and  C_14 
REMARK    8  A    between atoms: C_11  and  C_21 
REMARK    9  A    between atoms: C_12  and  C_21 
REMARK   10  A    between atoms: C_14  and  C_25 
REMARK   11  A    between atoms: C_24  and  C_25 
REMARK   12  A    between atoms: C_25  and  N_27 
ROOT
HETATM    1  C           1       1.083  -0.785   0.768  0.00  0.00     0.249 C 
HETATM    2  H           1       0.305  -2.650   0.319  0.00  0.00     0.163 HD
HETATM    3  O           1       1.079   0.124   1.563  0.00  0.00    -0.271 OA
HETATM    4  N           1       0.302  -1.888   0.985  0.00  0.00    -0.343 N 
ENDROOT
BRANCH   1   5
HETATM    5  C           1       1.950  -0.705  -0.465  0.00  0.00     0.274 C 
BRANCH   5   6
HETATM    6  C           1       2.712   0.613  -0.466  0.00  0.00     0.044 C 
BRANCH   6   7
HETATM    7  C           1       1.723   1.772  -0.466  0.00  0.00     0.030 C 
BRANCH   7   8
HETATM    8  C           1       0.846   1.692  -1.708  0.00  0.00     0.230 C 
BRANCH   8   9
HETATM    9  N           1       1.021   2.938  -2.525  0.00  0.00    -0.079 N 
HETATM   10  H           1       0.419   2.883  -3.378  0.00  0.00     0.274 HD
HETATM   11  H           1       2.022   3.028  -2.812  0.00  0.00     0.274 HD
HETATM   12  H           1       0.744   3.769  -1.956  0.00  0.00     0.274 HD
ENDBRANCH   8   9
ENDBRANCH   7   8
ENDBRANCH   6   7
ENDBRANCH   5   6
BRANCH   5  13
HETATM   13  N           1       1.086  -0.784  -1.688  0.00  0.00    -0.067 N 
HETATM   14  H           1       1.685  -0.729  -2.543  0.00  0.00     0.275 HD
HETATM   15  H           1       0.563  -1.689  -1.688  0.00  0.00     0.275 HD
HETATM   16  H           1       0.407   0.011  -1.687  0.00  0.00     0.275 HD
ENDBRANCH   5  13
ENDBRANCH   1   5
BRANCH   4  17
HETATM   17  C           1      -0.531  -1.964   2.170  0.00  0.00     0.210 C 
BRANCH  17  18
HETATM   18  C           1      -1.520  -0.806   2.170  0.00  0.00     0.217 C 
BRANCH  18  19
HETATM   19  O           1      -2.327  -0.880   1.025  0.00  0.00    -0.287 OA
BRANCH  19  20
HETATM   20  P           1      -3.438   0.281   0.867  0.00  0.00     0.406 P 
HETATM   21  O           1      -2.770   1.601   0.815  0.00  0.00    -0.624 OA
HETATM   22  O           1      -4.361   0.241   2.023  0.00  0.00    -0.624 OA
BRANCH  20  23
HETATM   23  O           1      -4.271   0.046  -0.497  0.00  0.00    -0.300 OA
HETATM   24  H           1      -4.895   0.750  -0.526  0.00  0.00     0.223 HD
ENDBRANCH  20  23
ENDBRANCH  19  20
ENDBRANCH  18  19
ENDBRANCH  17  18
BRANCH  17  25
HETATM   25  C           1      -1.286  -3.271   2.170  0.00  0.00     0.198 C 
HETATM   26  O           1      -2.536  -3.271   2.170  0.00  0.00    -0.646 OA
HETATM   27  O           1      -0.661  -4.354   2.170  0.00  0.00    -0.646 OA
ENDBRANCH  17  25
ENDBRANCH   4  17
TORSDOF 12
