REMARK  7 active torsions:
REMARK  status: ('A' for Active; 'I' for Inactive)
REMARK    1  A    between atoms: C_3  and  C_4 
REMARK    2  A    between atoms: C_3  and  N_5 
REMARK    3  A    between atoms: C_4  and  C_18 
REMARK       I    between atoms: N_10  and  C_11 
REMARK    4  A    between atoms: C_11  and  C_19 
REMARK    5  A    between atoms: N_17  and  C_19 
REMARK    6  A    between atoms: C_18  and  C_19 
REMARK    7  A    between atoms: C_20  and  C_21 
ROOT
HETATM    1  C           1       1.047  -0.186   0.360  0.00  0.00     0.275 C 
ENDROOT
BRANCH   1   2
HETATM    2  C           1      -0.397   0.059   0.723  0.00  0.00     0.251 C 
HETATM    3  N           1      -1.304  -0.963   0.651  0.00  0.00    -0.336 N 
HETATM    4  C           1      -1.057  -2.345   0.247  0.00  0.00     0.127 C 
HETATM    5  C           1      -2.730  -0.911   0.961  0.00  0.00     0.188 C 
HETATM    6  C           1      -2.269  -2.699  -0.597  0.00  0.00     0.022 C 
HETATM    7  C           1      -3.369  -1.752  -0.131  0.00  0.00     0.038 C 
HETATM    8  O           1      -0.753   1.158   1.078  0.00  0.00    -0.271 OA
BRANCH   5   9
HETATM    9  C           1      -3.006  -1.499   2.323  0.00  0.00     0.196 C 
HETATM   10  O           1      -4.176  -1.541   2.761  0.00  0.00    -0.646 OA
HETATM   11  O           1      -2.064  -1.945   3.013  0.00  0.00    -0.646 OA
ENDBRANCH   5   9
ENDBRANCH   1   2
BRANCH   1  12
HETATM   12  N           1       1.132  -0.645  -1.065  0.00  0.00    -0.067 N 
HETATM   13  H           1       0.589  -1.531  -1.178  0.00  0.00     0.275 HD
HETATM   14  H           1       0.735   0.090  -1.692  0.00  0.00     0.275 HD
HETATM   15  H           1       2.132  -0.815  -1.317  0.00  0.00     0.275 HD
ENDBRANCH   1  12
BRANCH   1  16
HETATM   16  C           1       1.838   1.105   0.525  0.00  0.00     0.044 C 
BRANCH  16  17
HETATM   17  C           1       1.260   2.176  -0.390  0.00  0.00     0.030 C 
BRANCH  17  18
HETATM   18  C           1       2.331   2.643  -1.367  0.00  0.00     0.230 C 
BRANCH  18  19
HETATM   19  N           1       3.492   3.211  -0.604  0.00  0.00    -0.079 N 
HETATM   20  H           1       3.889   2.475   0.023  0.00  0.00     0.274 HD
HETATM   21  H           1       4.227   3.531  -1.274  0.00  0.00     0.274 HD
HETATM   22  H           1       3.167   4.021  -0.030  0.00  0.00     0.274 HD
ENDBRANCH  18  19
ENDBRANCH  17  18
ENDBRANCH  16  17
ENDBRANCH   1  16
TORSDOF 7
