REMARK  13 active torsions:
REMARK  status: ('A' for Active; 'I' for Inactive)
REMARK    1  A    between atoms: C_1  and  N_23 
REMARK    2  A    between atoms: C_1  and  C_28 
REMARK    3  A    between atoms: C_2  and  C_20 
REMARK    4  A    between atoms: C_2  and  C_3 
REMARK    5  A    between atoms: C_3  and  C_26 
REMARK    6  A    between atoms: C_3  and  N_12 
REMARK    7  A    between atoms: C_6  and  C_15 
REMARK    8  A    between atoms: C_6  and  C_22 
REMARK    9  A    between atoms: C_6  and  N_17 
REMARK       I    between atoms: N_12  and  C_15 
REMARK   10  A    between atoms: C_13  and  C_24 
REMARK   11  A    between atoms: C_13  and  N_16 
REMARK   12  A    between atoms: C_20  and  C_28 
REMARK   13  A    between atoms: C_22  and  C_24 
ROOT
HETATM    1  H           1      -0.448  -1.076  -0.192  0.00  0.00     0.163 HD
HETATM    2  N           1       0.058  -0.200  -0.192  0.00  0.00    -0.345 N 
HETATM    3  C           1      -0.626   0.986  -0.192  0.00  0.00     0.249 C 
HETATM    4  O           1      -0.022   2.032  -0.192  0.00  0.00    -0.271 OA
ENDROOT
BRANCH   2   5
HETATM    5  C           1       1.508  -0.200  -0.192  0.00  0.00     0.185 C 
BRANCH   5   6
HETATM    6  C           1       2.015  -1.636  -0.192  0.00  0.00     0.036 C 
BRANCH   6   7
HETATM    7  C           1       3.538  -1.637  -0.192  0.00  0.00     0.004 C 
BRANCH   7   8
HETATM    8  C           1       4.045  -2.356  -1.436  0.00  0.00     0.027 C 
BRANCH   8   9
HETATM    9  C           1       3.537  -3.792  -1.436  0.00  0.00     0.229 C 
BRANCH   9  10
HETATM   10  N           1       2.037  -3.792  -1.436  0.00  0.00    -0.079 N 
HETATM   11  H           1       1.688  -4.777  -1.436  0.00  0.00     0.274 HD
HETATM   12  H           1       1.689  -3.300  -0.582  0.00  0.00     0.274 HD
HETATM   13  H           1       1.688  -3.299  -2.289  0.00  0.00     0.274 HD
ENDBRANCH   9  10
ENDBRANCH   8   9
ENDBRANCH   7   8
ENDBRANCH   6   7
ENDBRANCH   5   6
BRANCH   5  14
HETATM   14  C           1       2.010   0.512  -1.424  0.00  0.00     0.196 C 
HETATM   15  O           1       1.709   1.709  -1.622  0.00  0.00    -0.646 OA
HETATM   16  O           1       2.728  -0.096  -2.248  0.00  0.00    -0.646 OA
ENDBRANCH   5  14
ENDBRANCH   2   5
BRANCH   3  17
HETATM   17  C           1      -2.135   0.986  -0.192  0.00  0.00     0.274 C 
BRANCH  17  18
HETATM   18  C           1      -2.644   2.422  -0.192  0.00  0.00     0.044 C 
BRANCH  18  19
HETATM   19  C           1      -2.137   3.141   1.051  0.00  0.00     0.030 C 
BRANCH  19  20
HETATM   20  C           1      -3.321   3.619   1.880  0.00  0.00     0.230 C 
BRANCH  20  21
HETATM   21  N           1      -4.155   2.441   2.289  0.00  0.00    -0.079 N 
HETATM   22  H           1      -3.574   1.785   2.859  0.00  0.00     0.274 HD
HETATM   23  H           1      -4.503   1.948   1.436  0.00  0.00     0.274 HD
HETATM   24  H           1      -4.967   2.769   2.858  0.00  0.00     0.274 HD
ENDBRANCH  20  21
ENDBRANCH  19  20
ENDBRANCH  18  19
ENDBRANCH  17  18
BRANCH  17  25
HETATM   25  N           1      -2.635   0.280   1.033  0.00  0.00    -0.067 N 
HETATM   26  H           1      -3.680   0.279   1.034  0.00  0.00     0.275 HD
HETATM   27  H           1      -2.286  -0.705   1.033  0.00  0.00     0.275 HD
HETATM   28  H           1      -2.286   0.773   1.886  0.00  0.00     0.275 HD
ENDBRANCH  17  25
ENDBRANCH   3  17
TORSDOF 13
