REMARK  10 active torsions:
REMARK  status: ('A' for Active; 'I' for Inactive)
REMARK    1  A    between atoms: N_4  and  C_27 
REMARK    2  A    between atoms: C_5  and  C_27 
REMARK    3  A    between atoms: C_5  and  C_13 
REMARK    4  A    between atoms: N_6  and  C_22 
REMARK    5  A    between atoms: C_12  and  C_14 
REMARK    6  A    between atoms: C_12  and  C_29 
REMARK    7  A    between atoms: C_12  and  N_23 
REMARK    8  A    between atoms: C_13  and  C_22 
REMARK       I    between atoms: C_16  and  N_23 
REMARK    9  A    between atoms: C_16  and  C_27 
REMARK   10  A    between atoms: C_24  and  C_29 
ROOT
HETATM    1  H           1      -4.126  -0.425   0.680  0.00  0.00     0.163 HD
HETATM    2  C           1      -2.389  -1.165  -0.168  0.00  0.00     0.249 C 
HETATM    3  O           1      -2.181  -2.349  -0.045  0.00  0.00    -0.271 OA
HETATM    4  N           1      -3.121  -0.497   0.776  0.00  0.00    -0.344 N 
ENDROOT
BRANCH   4   5
HETATM    5  C           1      -2.457   0.108   1.915  0.00  0.00     0.190 C 
BRANCH   5   6
HETATM    6  C           1      -3.482   0.777   2.797  0.00  0.00     0.197 C 
HETATM    7  O           1      -3.411   2.005   3.017  0.00  0.00    -0.646 OA
HETATM    8  O           1      -4.403   0.103   3.308  0.00  0.00    -0.646 OA
ENDBRANCH   5   6
BRANCH   5   9
HETATM    9  C           1      -1.455   1.144   1.425  0.00  0.00     0.077 C 
BRANCH   9  10
HETATM   10  C           1      -0.125   0.491   1.209  0.00  0.00    -0.021 A 
HETATM   11  C           1       1.061   1.132   0.755  0.00  0.00     0.005 A 
HETATM   12  C           1       2.058   0.158   0.697  0.00  0.00     0.132 A 
HETATM   13  C           1       1.381   2.452   0.387  0.00  0.00     0.014 A 
HETATM   14  N           1       1.489  -1.028   1.103  0.00  0.00    -0.076 N 
HETATM   15  C           1       3.366   0.440   0.287  0.00  0.00     0.037 A 
HETATM   16  C           1       0.169  -0.838   1.416  0.00  0.00     0.195 A 
HETATM   17  H           1       1.994  -1.947   1.165  0.00  0.00     0.272 HD
HETATM   18  C           1       3.661   1.758  -0.074  0.00  0.00     0.002 A 
HETATM   19  C           1       2.685   2.752  -0.026  0.00  0.00     0.001 A 
ENDBRANCH   9  10
ENDBRANCH   5   9
ENDBRANCH   4   5
BRANCH   2  20
HETATM   20  C           1      -1.841  -0.423  -1.362  0.00  0.00     0.274 C 
BRANCH  20  21
HETATM   21  N           1      -0.922   0.666  -0.895  0.00  0.00    -0.067 N 
HETATM   22  H           1      -0.542   1.180  -1.721  0.00  0.00     0.275 HD
HETATM   23  H           1      -1.451   1.330  -0.285  0.00  0.00     0.275 HD
HETATM   24  H           1      -0.133   0.247  -0.353  0.00  0.00     0.275 HD
ENDBRANCH  20  21
BRANCH  20  25
HETATM   25  C           1      -1.071  -1.390  -2.252  0.00  0.00     0.044 C 
BRANCH  25  26
HETATM   26  C           1       0.080  -2.000  -1.462  0.00  0.00     0.033 C 
BRANCH  26  27
HETATM   27  C           1       1.014  -0.894  -0.988  0.00  0.00     0.619 C 
BRANCH  27  28
HETATM   28  N           1       2.385  -1.119  -1.553  0.00  0.00    -0.077 N 
HETATM   29  H           1       2.337  -1.110  -2.597  0.00  0.00     0.274 HD
HETATM   30  H           1       3.025  -0.361  -1.227  0.00  0.00     0.274 HD
HETATM   31  H           1       2.747  -2.044  -1.228  0.00  0.00     0.274 HD
ENDBRANCH  27  28
ENDBRANCH  26  27
ENDBRANCH  25  26
ENDBRANCH  20  25
ENDBRANCH   2  20
TORSDOF 10
