REMARK  12 active torsions:
REMARK  status: ('A' for Active; 'I' for Inactive)
REMARK    1  A    between atoms: N_2  and  C_20 
REMARK    2  A    between atoms: C_5  and  C_20 
REMARK    3  A    between atoms: C_5  and  C_23 
REMARK       I    between atoms: C_9  and  N_25 
REMARK    4  A    between atoms: C_9  and  C_11 
REMARK    5  A    between atoms: C_10  and  C_18 
REMARK    6  A    between atoms: C_10  and  N_15 
REMARK    7  A    between atoms: C_11  and  C_17 
REMARK    8  A    between atoms: C_11  and  N_27 
REMARK    9  A    between atoms: C_16  and  C_21 
REMARK   10  A    between atoms: C_17  and  C_18 
REMARK   11  A    between atoms: C_21  and  C_23 
REMARK   12  A    between atoms: C_21  and  N_25 
ROOT
HETATM    1  O           1       1.643   1.023   0.111  0.00  0.00    -0.271 OA
HETATM    2  C           1       0.455   1.135   0.301  0.00  0.00     0.249 C 
HETATM    3  H           1      -1.429   0.707  -0.442  0.00  0.00     0.163 HD
HETATM    4  N           1      -0.434   0.614  -0.601  0.00  0.00    -0.345 N 
ENDROOT
BRANCH   2   5
HETATM    5  C           1      -0.049   1.847   1.532  0.00  0.00     0.274 C 
BRANCH   5   6
HETATM    6  C           1       1.135   2.326   2.362  0.00  0.00     0.044 C 
BRANCH   6   7
HETATM    7  C           1       1.980   1.130   2.779  0.00  0.00     0.030 C 
BRANCH   7   8
HETATM    8  C           1       1.134   0.173   3.608  0.00  0.00     0.230 C 
BRANCH   8   9
HETATM    9  N           1       1.743   0.018   4.970  0.00  0.00    -0.079 N 
HETATM   10  H           1       2.711  -0.365   4.877  0.00  0.00     0.274 HD
HETATM   11  H           1       1.162  -0.639   5.539  0.00  0.00     0.274 HD
HETATM   12  H           1       1.780   0.949   5.443  0.00  0.00     0.274 HD
ENDBRANCH   8   9
ENDBRANCH   7   8
ENDBRANCH   6   7
ENDBRANCH   5   6
BRANCH   5  13
HETATM   13  N           1      -0.883   0.905   2.348  0.00  0.00    -0.067 N 
HETATM   14  H           1      -1.232   1.398   3.201  0.00  0.00     0.275 HD
HETATM   15  H           1      -1.695   0.577   1.779  0.00  0.00     0.275 HD
HETATM   16  H           1      -0.302   0.084   2.634  0.00  0.00     0.275 HD
ENDBRANCH   5  13
ENDBRANCH   2   5
BRANCH   4  17
HETATM   17  C           1       0.050  -0.071  -1.784  0.00  0.00     0.185 C 
BRANCH  17  18
HETATM   18  C           1       0.889   0.877  -2.605  0.00  0.00     0.196 C 
HETATM   19  O           1       1.917   1.389  -2.111  0.00  0.00    -0.646 OA
HETATM   20  O           1       0.557   1.150  -3.778  0.00  0.00    -0.646 OA
ENDBRANCH  17  18
BRANCH  17  21
HETATM   21  C           1      -1.135  -0.549  -2.613  0.00  0.00     0.038 C 
BRANCH  21  22
HETATM   22  C           1      -0.628  -1.268  -3.856  0.00  0.00     0.030 C 
BRANCH  22  23
HETATM   23  C           1      -1.136  -2.704  -3.856  0.00  0.00     0.230 C 
BRANCH  23  24
HETATM   24  N           1      -2.636  -2.704  -3.856  0.00  0.00    -0.079 N 
HETATM   25  H           1      -2.984  -2.212  -3.002  0.00  0.00     0.274 HD
HETATM   26  H           1      -2.985  -3.689  -3.856  0.00  0.00     0.274 HD
HETATM   27  H           1      -2.984  -2.211  -4.709  0.00  0.00     0.274 HD
ENDBRANCH  23  24
ENDBRANCH  22  23
ENDBRANCH  21  22
ENDBRANCH  17  21
ENDBRANCH   4  17
TORSDOF 12
