REMARK  10 active torsions:
REMARK  status: ('A' for Active; 'I' for Inactive)
REMARK    1  A    between atoms: C_1  and  C_3 
REMARK    2  A    between atoms: C_2  and  C_14 
REMARK    3  A    between atoms: C_2  and  N_25 
REMARK    4  A    between atoms: C_3  and  C_12 
REMARK    5  A    between atoms: N_6  and  C_12 
REMARK       I    between atoms: N_6  and  C_9 
REMARK    6  A    between atoms: C_9  and  C_20 
REMARK    7  A    between atoms: C_12  and  C_22 
REMARK    8  A    between atoms: C_14  and  C_15 
REMARK    9  A    between atoms: C_15  and  C_20 
REMARK   10  A    between atoms: C_20  and  N_24 
ROOT
HETATM    1  N           1       2.645   1.007  -0.369  0.00  0.00    -0.344 N 
HETATM    2  C           1       2.012   0.379   0.670  0.00  0.00     0.249 C 
HETATM    3  O           1       2.385  -0.711   1.034  0.00  0.00    -0.271 OA
HETATM    4  H           1       3.432   1.617  -0.188  0.00  0.00     0.163 HD
ENDROOT
BRANCH   2   5
HETATM    5  C           1       0.849   1.048   1.360  0.00  0.00     0.274 C 
BRANCH   5   6
HETATM    6  C           1       0.330   0.146   2.472  0.00  0.00     0.044 C 
BRANCH   6   7
HETATM    7  C           1      -0.127  -1.180   1.879  0.00  0.00     0.030 C 
BRANCH   7   8
HETATM    8  C           1      -1.606  -1.388   2.179  0.00  0.00     0.230 C 
BRANCH   8   9
HETATM    9  N           1      -2.402  -0.269   1.574  0.00  0.00    -0.079 N 
HETATM   10  H           1      -2.255  -0.257   0.540  0.00  0.00     0.274 HD
HETATM   11  H           1      -3.416  -0.412   1.780  0.00  0.00     0.274 HD
HETATM   12  H           1      -2.089   0.641   1.982  0.00  0.00     0.274 HD
ENDBRANCH   8   9
ENDBRANCH   7   8
ENDBRANCH   6   7
ENDBRANCH   5   6
BRANCH   5  13
HETATM   13  N           1      -0.246   1.296   0.366  0.00  0.00    -0.067 N 
HETATM   14  H           1      -1.052   1.760   0.843  0.00  0.00     0.275 HD
HETATM   15  H           1       0.110   1.916  -0.397  0.00  0.00     0.275 HD
HETATM   16  H           1      -0.559   0.386  -0.041  0.00  0.00     0.275 HD
ENDBRANCH   5  13
ENDBRANCH   2   5
BRANCH   1  17
HETATM   17  C           1       2.188   0.797  -1.729  0.00  0.00     0.189 C 
BRANCH  17  18
HETATM   18  C           1       0.739   1.250  -1.852  0.00  0.00     0.074 C 
BRANCH  18  19
HETATM   19  C           1      -0.172   0.102  -1.548  0.00  0.00    -0.056 A 
HETATM   20  C           1       0.363  -1.143  -1.215  0.00  0.00     0.007 A 
HETATM   21  C           1      -0.485  -2.213  -0.931  0.00  0.00     0.001 A 
HETATM   22  C           1      -1.868  -2.038  -0.980  0.00  0.00     0.000 A 
HETATM   23  C           1      -2.403  -0.794  -1.312  0.00  0.00     0.001 A 
HETATM   24  C           1      -1.555   0.276  -1.596  0.00  0.00     0.007 A 
ENDBRANCH  18  19
ENDBRANCH  17  18
BRANCH  17  25
HETATM   25  C           1       3.048   1.597  -2.677  0.00  0.00     0.197 C 
HETATM   26  O           1       2.530   2.473  -3.403  0.00  0.00    -0.646 OA
HETATM   27  O           1       4.278   1.383  -2.736  0.00  0.00    -0.646 OA
ENDBRANCH  17  25
ENDBRANCH   1  17
TORSDOF 10
