REMARK  13 active torsions:
REMARK  status: ('A' for Active; 'I' for Inactive)
REMARK    1  A    between atoms: P_1  and  O_28 
REMARK    2  A    between atoms: P_1  and  O_2 
REMARK    3  A    between atoms: C_4  and  C_15 
REMARK    4  A    between atoms: C_7  and  C_24 
REMARK    5  A    between atoms: C_7  and  C_9 
REMARK    6  A    between atoms: N_8  and  C_24 
REMARK    7  A    between atoms: C_9  and  C_16 
REMARK    8  A    between atoms: C_15  and  C_20 
REMARK    9  A    between atoms: C_16  and  N_17 
REMARK   10  A    between atoms: C_20  and  C_29 
REMARK   11  A    between atoms: C_20  and  N_26 
REMARK       I    between atoms: C_23  and  N_26 
REMARK   12  A    between atoms: C_23  and  C_24 
REMARK   13  A    between atoms: C_25  and  O_28 
ROOT
HETATM    1  C           1       2.364   1.322  -1.737  0.00  0.00     0.189 C 
ENDROOT
BRANCH   1   2
HETATM    2  C           1       0.915   1.775  -1.860  0.00  0.00     0.074 C 
BRANCH   2   3
HETATM    3  C           1       0.005   0.626  -1.555  0.00  0.00    -0.056 A 
HETATM    4  C           1       0.540  -0.618  -1.223  0.00  0.00     0.010 A 
HETATM    5  C           1      -0.309  -1.688  -0.939  0.00  0.00     0.038 A 
HETATM    6  C           1      -1.692  -1.514  -0.988  0.00  0.00     0.081 A 
HETATM    7  C           1      -2.226  -0.269  -1.320  0.00  0.00     0.038 A 
HETATM    8  C           1      -1.378   0.801  -1.604  0.00  0.00     0.010 A 
BRANCH   6   9
HETATM    9  O           1      -2.516  -2.554  -0.712  0.00  0.00    -0.247 OA
BRANCH   9  10
HETATM   10  P           1      -1.845  -3.973  -0.333  0.00  0.00     0.411 P 
HETATM   11  O           1      -1.004  -4.438  -1.458  0.00  0.00    -0.624 OA
HETATM   12  O           1      -2.910  -4.967  -0.070  0.00  0.00    -0.624 OA
BRANCH  10  13
HETATM   13  O           1      -0.930  -3.800   0.987  0.00  0.00    -0.300 OA
HETATM   14  H           1      -0.573  -4.656   1.150  0.00  0.00     0.223 HD
ENDBRANCH  10  13
ENDBRANCH   9  10
ENDBRANCH   6   9
ENDBRANCH   2   3
ENDBRANCH   1   2
BRANCH   1  15
HETATM   15  C           1       3.224   2.121  -2.685  0.00  0.00     0.197 C 
HETATM   16  O           1       2.707   2.997  -3.411  0.00  0.00    -0.646 OA
HETATM   17  O           1       4.454   1.907  -2.744  0.00  0.00    -0.646 OA
ENDBRANCH   1  15
BRANCH   1  18
HETATM   18  N           1       2.822   1.531  -0.377  0.00  0.00    -0.344 N 
HETATM   19  H           1       3.608   2.141  -0.196  0.00  0.00     0.163 HD
HETATM   20  C           1       2.189   0.903   0.662  0.00  0.00     0.249 C 
HETATM   21  O           1       2.562  -0.186   1.026  0.00  0.00    -0.271 OA
BRANCH  20  22
HETATM   22  C           1       1.026   1.573   1.352  0.00  0.00     0.274 C 
BRANCH  22  23
HETATM   23  C           1       0.507   0.671   2.464  0.00  0.00     0.044 C 
BRANCH  23  24
HETATM   24  C           1       0.049  -0.655   1.871  0.00  0.00     0.030 C 
BRANCH  24  25
HETATM   25  C           1      -1.429  -0.863   2.171  0.00  0.00     0.230 C 
BRANCH  25  26
HETATM   26  N           1      -2.225   0.255   1.567  0.00  0.00    -0.079 N 
HETATM   27  H           1      -2.078   0.268   0.532  0.00  0.00     0.274 HD
HETATM   28  H           1      -3.240   0.113   1.773  0.00  0.00     0.274 HD
HETATM   29  H           1      -1.912   1.165   1.975  0.00  0.00     0.274 HD
ENDBRANCH  25  26
ENDBRANCH  24  25
ENDBRANCH  23  24
ENDBRANCH  22  23
BRANCH  22  30
HETATM   30  N           1      -0.069   1.821   0.358  0.00  0.00    -0.067 N 
HETATM   31  H           1       0.287   2.440  -0.404  0.00  0.00     0.275 HD
HETATM   32  H           1      -0.875   2.284   0.835  0.00  0.00     0.275 HD
HETATM   33  H           1      -0.383   0.911  -0.049  0.00  0.00     0.275 HD
ENDBRANCH  22  30
ENDBRANCH  20  22
ENDBRANCH   1  18
TORSDOF 13
