REMARK  10 active torsions:
REMARK  status: ('A' for Active; 'I' for Inactive)
REMARK       I    between atoms: C_1  and  N_6 
REMARK    1  A    between atoms: C_1  and  C_2 
REMARK    2  A    between atoms: C_2  and  C_26 
REMARK    3  A    between atoms: C_2  and  N_17 
REMARK    4  A    between atoms: N_6  and  C_10 
REMARK    5  A    between atoms: C_7  and  C_16 
REMARK    6  A    between atoms: C_7  and  N_8 
REMARK    7  A    between atoms: C_9  and  C_24 
REMARK    8  A    between atoms: C_9  and  C_10 
REMARK    9  A    between atoms: C_10  and  C_25 
REMARK       I    between atoms: N_13  and  C_24 
REMARK   10  A    between atoms: C_16  and  C_26 
ROOT
HETATM    1  C           1      -0.197   0.134   0.580  0.00  0.00     0.249 C 
HETATM    2  H           1       1.498  -1.053   0.580  0.00  0.00     0.163 HD
HETATM    3  N           1       0.486  -1.052   0.580  0.00  0.00    -0.344 N 
HETATM    4  O           1      -1.405   0.136   0.580  0.00  0.00    -0.271 OA
ENDROOT
BRANCH   1   5
HETATM    5  C           1       0.559   1.440   0.581  0.00  0.00     0.274 C 
BRANCH   5   6
HETATM    6  C           1      -0.429   2.599   0.581  0.00  0.00     0.044 C 
BRANCH   6   7
HETATM    7  C           1      -1.305   2.521  -0.663  0.00  0.00     0.030 C 
BRANCH   7   8
HETATM    8  C           1      -1.125   3.786  -1.491  0.00  0.00     0.230 C 
BRANCH   8   9
HETATM    9  N           1       0.312   3.917  -1.900  0.00  0.00    -0.079 N 
HETATM   10  H           1       0.590   3.086  -2.469  0.00  0.00     0.274 HD
HETATM   11  H           1       0.436   4.786  -2.468  0.00  0.00     0.274 HD
HETATM   12  H           1       0.913   3.972  -1.046  0.00  0.00     0.274 HD
ENDBRANCH   8   9
ENDBRANCH   7   8
ENDBRANCH   6   7
ENDBRANCH   5   6
BRANCH   5  13
HETATM   13  N           1       1.421   1.519  -0.644  0.00  0.00    -0.067 N 
HETATM   14  H           1       0.820   1.465  -1.497  0.00  0.00     0.275 HD
HETATM   15  H           1       2.099   0.724  -0.644  0.00  0.00     0.275 HD
HETATM   16  H           1       1.945   2.423  -0.644  0.00  0.00     0.275 HD
ENDBRANCH   5  13
ENDBRANCH   1   5
BRANCH   3  17
HETATM   17  C           1      -0.240  -2.307   0.579  0.00  0.00     0.194 C 
BRANCH  17  18
HETATM   18  C           1       0.749  -3.465   0.579  0.00  0.00     0.138 C 
BRANCH  18  19
HETATM   19  C           1      -0.005  -4.772   0.579  0.00  0.00     0.217 C 
HETATM   20  N           1       0.679  -5.958   0.579  0.00  0.00    -0.370 N 
HETATM   21  H           1       0.173  -6.834   0.579  0.00  0.00     0.159 HD
HETATM   22  H           1       1.691  -5.958   0.579  0.00  0.00     0.159 HD
HETATM   23  O           1      -1.213  -4.772   0.579  0.00  0.00    -0.274 OA
ENDBRANCH  18  19
ENDBRANCH  17  18
BRANCH  17  24
HETATM   24  C           1      -1.108  -2.386   1.811  0.00  0.00     0.197 C 
HETATM   25  O           1      -1.993  -1.525   2.008  0.00  0.00    -0.646 OA
HETATM   26  O           1      -0.942  -3.312   2.634  0.00  0.00    -0.646 OA
ENDBRANCH  17  24
ENDBRANCH   3  17
TORSDOF 10
