REMARK  10 active torsions:
REMARK  status: ('A' for Active; 'I' for Inactive)
REMARK    1  A    between atoms: C_5  and  C_21 
REMARK    2  A    between atoms: C_5  and  C_15 
REMARK    3  A    between atoms: C_5  and  N_16 
REMARK    4  A    between atoms: C_6  and  C_15 
REMARK    5  A    between atoms: C_6  and  C_13 
REMARK    6  A    between atoms: C_10  and  C_23 
REMARK    7  A    between atoms: C_10  and  C_12 
REMARK    8  A    between atoms: C_12  and  C_14 
REMARK    9  A    between atoms: C_12  and  N_19 
REMARK   10  A    between atoms: C_13  and  N_22 
REMARK       I    between atoms: N_19  and  C_21 
ROOT
HETATM    1  C           1      -0.266  -0.665  -1.553  0.00  0.00     0.274 C 
ENDROOT
BRANCH   1   2
HETATM    2  C           1       0.573   0.284  -0.733  0.00  0.00     0.249 C 
HETATM    3  O           1       0.743   1.419  -1.109  0.00  0.00    -0.271 OA
HETATM    4  N           1       1.140  -0.141   0.438  0.00  0.00    -0.344 N 
HETATM    5  H           1       0.998  -1.092   0.753  0.00  0.00     0.163 HD
BRANCH   4   6
HETATM    6  C           1       1.946   0.771   1.226  0.00  0.00     0.189 C 
BRANCH   6   7
HETATM    7  C           1       2.454   0.053   2.470  0.00  0.00     0.014 C 
HETATM    8  C           1       1.947   0.772   3.713  0.00  0.00     0.012 C 
BRANCH   7   9
HETATM    9  C           1       1.946  -1.382   2.470  0.00  0.00     0.002 C 
HETATM   10  C           1       0.423  -1.382   2.470  0.00  0.00     0.005 C 
ENDBRANCH   7   9
ENDBRANCH   6   7
BRANCH   6  11
HETATM   11  C           1       3.118   1.245   0.404  0.00  0.00     0.197 C 
HETATM   12  O           1       4.285   1.021   0.791  0.00  0.00    -0.646 OA
HETATM   13  O           1       2.923   1.862  -0.666  0.00  0.00    -0.646 OA
ENDBRANCH   6  11
ENDBRANCH   4   6
ENDBRANCH   1   2
BRANCH   1  14
HETATM   14  C           1      -0.775   0.052  -2.797  0.00  0.00     0.044 C 
BRANCH  14  15
HETATM   15  C           1      -1.622   1.248  -2.384  0.00  0.00     0.030 C 
BRANCH  15  16
HETATM   16  C           1      -3.032   1.087  -2.935  0.00  0.00     0.230 C 
BRANCH  16  17
HETATM   17  N           1      -3.643  -0.169  -2.390  0.00  0.00    -0.079 N 
HETATM   18  H           1      -3.681  -0.113  -1.347  0.00  0.00     0.274 HD
HETATM   19  H           1      -3.063  -0.990  -2.674  0.00  0.00     0.274 HD
HETATM   20  H           1      -4.611  -0.279  -2.768  0.00  0.00     0.274 HD
ENDBRANCH  16  17
ENDBRANCH  15  16
ENDBRANCH  14  15
ENDBRANCH   1  14
BRANCH   1  21
HETATM   21  N           1      -1.432  -1.136  -0.736  0.00  0.00    -0.067 N 
HETATM   22  H           1      -2.013  -1.793  -1.303  0.00  0.00     0.275 HD
HETATM   23  H           1      -2.012  -0.314  -0.452  0.00  0.00     0.275 HD
HETATM   24  H           1      -1.082  -1.628   0.117  0.00  0.00     0.275 HD
ENDBRANCH   1  21
TORSDOF 10
