REMARK  11 active torsions:
REMARK  status: ('A' for Active; 'I' for Inactive)
REMARK    1  A    between atoms: C_4  and  C_5 
REMARK    2  A    between atoms: C_5  and  C_18 
REMARK    3  A    between atoms: C_5  and  N_13 
REMARK    4  A    between atoms: C_6  and  C_10 
REMARK    5  A    between atoms: C_6  and  C_9 
REMARK    6  A    between atoms: C_9  and  C_20 
REMARK    7  A    between atoms: C_10  and  C_19 
REMARK    8  A    between atoms: C_10  and  N_21 
REMARK       I    between atoms: N_13  and  C_19 
REMARK    9  A    between atoms: C_15  and  C_17 
REMARK   10  A    between atoms: C_15  and  C_18 
REMARK   11  A    between atoms: C_20  and  N_23 
ROOT
HETATM    1  O           1       0.298  -0.383   1.109  0.00  0.00    -0.271 OA
HETATM    2  H           1       1.207   0.949  -1.583  0.00  0.00     0.163 HD
HETATM    3  N           1       1.201   0.279  -0.823  0.00  0.00    -0.345 N 
HETATM    4  C           1       0.305   0.416   0.203  0.00  0.00     0.249 C 
ENDROOT
BRANCH   4   5
HETATM    5  C           1      -0.674   1.565   0.202  0.00  0.00     0.274 C 
BRANCH   5   6
HETATM    6  C           1      -1.550   1.486   1.445  0.00  0.00     0.044 C 
BRANCH   6   7
HETATM    7  C           1      -2.314   0.169   1.446  0.00  0.00     0.030 C 
BRANCH   7   8
HETATM    8  C           1      -3.811   0.449   1.445  0.00  0.00     0.230 C 
BRANCH   8   9
HETATM    9  N           1      -4.174   1.238   2.668  0.00  0.00    -0.079 N 
HETATM   10  H           1      -5.201   1.430   2.667  0.00  0.00     0.274 HD
HETATM   11  H           1      -3.651   2.142   2.667  0.00  0.00     0.274 HD
HETATM   12  H           1      -3.923   0.690   3.522  0.00  0.00     0.274 HD
ENDBRANCH   8   9
ENDBRANCH   7   8
ENDBRANCH   6   7
ENDBRANCH   5   6
BRANCH   5  13
HETATM   13  N           1      -1.536   1.485  -1.023  0.00  0.00    -0.067 N 
HETATM   14  H           1      -2.059   0.581  -1.022  0.00  0.00     0.275 HD
HETATM   15  H           1      -2.214   2.280  -1.025  0.00  0.00     0.275 HD
HETATM   16  H           1      -0.934   1.539  -1.876  0.00  0.00     0.275 HD
ENDBRANCH   5  13
ENDBRANCH   4   5
BRANCH   3  17
HETATM   17  C           1       2.142  -0.824  -0.823  0.00  0.00     0.186 C 
BRANCH  17  18
HETATM   18  C           1       3.008  -0.745   0.410  0.00  0.00     0.196 C 
HETATM   19  O           1       4.248  -0.631   0.296  0.00  0.00    -0.646 OA
HETATM   20  O           1       2.486  -0.792   1.545  0.00  0.00    -0.646 OA
ENDBRANCH  17  18
BRANCH  17  21
HETATM   21  C           1       3.018  -0.745  -2.066  0.00  0.00     0.046 C 
BRANCH  21  22
HETATM   22  C           1       4.007  -1.903  -2.066  0.00  0.00     0.116 C 
BRANCH  22  23
HETATM   23  C           1       3.252  -3.209  -2.066  0.00  0.00     0.172 C 
HETATM   24  O           1       3.877  -4.292  -2.066  0.00  0.00    -0.648 OA
HETATM   25  O           1       2.002  -3.209  -2.066  0.00  0.00    -0.648 OA
ENDBRANCH  22  23
ENDBRANCH  21  22
ENDBRANCH  17  21
ENDBRANCH   3  17
TORSDOF 11
