REMARK  8 active torsions:
REMARK  status: ('A' for Active; 'I' for Inactive)
REMARK    1  A    between atoms: C_3  and  C_9 
REMARK    2  A    between atoms: C_3  and  C_16 
REMARK    3  A    between atoms: N_4  and  C_9 
REMARK    4  A    between atoms: C_9  and  C_19 
REMARK    5  A    between atoms: Se_10  and  C_20 
REMARK    6  A    between atoms: N_12  and  C_13 
REMARK       I    between atoms: N_12  and  C_19 
REMARK    7  A    between atoms: C_13  and  C_20 
REMARK    8  A    between atoms: C_13  and  C_14 
ROOT
HETATM    1  C           1      -0.023  -0.196   0.355  0.00  0.00     0.278 C 
ENDROOT
BRANCH   1   2
HETATM    2  C           1      -1.472   0.257   0.232  0.00  0.00     0.081 C 
BRANCH   2   3
HETATM    3  C           1      -2.382  -0.891   0.536  0.00  0.00    -0.056 A 
HETATM    4  C           1      -3.765  -0.717   0.488  0.00  0.00     0.007 A 
HETATM    5  C           1      -4.613  -1.787   0.772  0.00  0.00     0.001 A 
HETATM    6  C           1      -4.079  -3.031   1.104  0.00  0.00     0.000 A 
HETATM    7  C           1      -2.696  -3.206   1.153  0.00  0.00     0.001 A 
HETATM    8  C           1      -1.847  -2.136   0.869  0.00  0.00     0.007 A 
ENDBRANCH   2   3
ENDBRANCH   1   2
BRANCH   1   9
HETATM    9  N           1       0.450   0.021   1.762  0.00  0.00    -0.066 N 
HETATM   10  H           1      -0.145  -0.533   2.419  0.00  0.00     0.275 HD
HETATM   11  H           1       1.444  -0.291   1.846  0.00  0.00     0.275 HD
HETATM   12  H           1       0.381   1.036   2.000  0.00  0.00     0.275 HD
ENDBRANCH   1   9
BRANCH   1  13
HETATM   13  C           1       0.837   0.604  -0.593  0.00  0.00     0.249 C 
HETATM   14  O           1       0.337   1.450  -1.295  0.00  0.00    -0.271 OA
HETATM   15  N           1       2.185   0.370  -0.658  0.00  0.00    -0.345 N 
HETATM   16  H           1       2.604  -0.340  -0.070  0.00  0.00     0.163 HD
BRANCH  15  17
HETATM   17  C           1       3.011   1.138  -1.568  0.00  0.00     0.185 C 
BRANCH  17  18
HETATM   18  C           1       2.911   2.617  -1.220  0.00  0.00     0.039 C 
BRANCH  18  19
HETATM   19 Se           1       2.211   3.600  -2.751  0.00  0.00     0.000 Se
HETATM   20  H           1       2.255   4.908  -2.078  0.00  0.00     0.000 HD
ENDBRANCH  18  19
ENDBRANCH  17  18
BRANCH  17  21
HETATM   21  C           1       4.446   0.688  -1.445  0.00  0.00     0.196 C 
HETATM   22  O           1       4.752  -0.499  -1.687  0.00  0.00    -0.646 OA
HETATM   23  O           1       5.329   1.503  -1.100  0.00  0.00    -0.646 OA
ENDBRANCH  17  21
ENDBRANCH  15  17
ENDBRANCH   1  13
TORSDOF 8
