REMARK  9 active torsions:
REMARK  status: ('A' for Active; 'I' for Inactive)
REMARK    1  A    between atoms: C_2  and  C_16 
REMARK    2  A    between atoms: C_2  and  C_22 
REMARK    3  A    between atoms: N_8  and  C_19 
REMARK    4  A    between atoms: C_12  and  C_21 
REMARK    5  A    between atoms: N_13  and  C_18 
REMARK       I    between atoms: N_13  and  C_20 
REMARK       I    between atoms: C_16  and  N_23 
REMARK    6  A    between atoms: C_18  and  C_22 
REMARK    7  A    between atoms: C_18  and  C_27 
REMARK    8  A    between atoms: C_19  and  C_20 
REMARK    9  A    between atoms: C_19  and  C_21 
ROOT
HETATM    1  H           1       2.238  -1.035   0.182  0.00  0.00     0.163 HD
HETATM    2  O           1      -0.029   0.755  -1.042  0.00  0.00    -0.271 OA
HETATM    3  N           1       1.819  -0.326  -0.405  0.00  0.00    -0.345 N 
HETATM    4  C           1       0.471  -0.092  -0.341  0.00  0.00     0.249 C 
ENDROOT
BRANCH   4   5
HETATM    5  C           1      -0.389  -0.891   0.607  0.00  0.00     0.278 C 
BRANCH   5   6
HETATM    6  N           1       0.085  -0.674   2.014  0.00  0.00    -0.066 N 
HETATM    7  H           1       1.078  -0.986   2.098  0.00  0.00     0.275 HD
HETATM    8  H           1       0.015   0.341   2.252  0.00  0.00     0.275 HD
HETATM    9  H           1      -0.510  -1.228   2.671  0.00  0.00     0.275 HD
ENDBRANCH   5   6
BRANCH   5  10
HETATM   10  C           1      -1.837  -0.438   0.484  0.00  0.00     0.081 C 
BRANCH  10  11
HETATM   11  C           1      -2.748  -1.586   0.789  0.00  0.00    -0.056 A 
HETATM   12  C           1      -2.213  -2.831   1.121  0.00  0.00     0.007 A 
HETATM   13  C           1      -3.062  -3.901   1.405  0.00  0.00     0.001 A 
HETATM   14  C           1      -4.445  -3.727   1.356  0.00  0.00     0.000 A 
HETATM   15  C           1      -4.979  -2.482   1.024  0.00  0.00     0.001 A 
HETATM   16  C           1      -4.131  -1.412   0.740  0.00  0.00     0.007 A 
ENDBRANCH  10  11
ENDBRANCH   5  10
ENDBRANCH   4   5
BRANCH   3  17
HETATM   17  C           1       2.645   0.443  -1.316  0.00  0.00     0.186 C 
BRANCH  17  18
HETATM   18  C           1       2.546   1.922  -0.968  0.00  0.00     0.045 C 
BRANCH  18  19
HETATM   19  C           1       1.999   2.690  -2.164  0.00  0.00     0.105 C 
BRANCH  19  20
HETATM   20  C           1       1.900   4.156  -1.820  0.00  0.00     0.215 C 
HETATM   21  O           1       1.486   4.942  -2.638  0.00  0.00    -0.274 OA
HETATM   22  N           1       2.279   4.594  -0.580  0.00  0.00    -0.370 N 
HETATM   23  H           1       2.626   3.935   0.106  0.00  0.00     0.159 HD
HETATM   24  H           1       2.213   5.577  -0.348  0.00  0.00     0.159 HD
ENDBRANCH  19  20
ENDBRANCH  18  19
ENDBRANCH  17  18
BRANCH  17  25
HETATM   25  C           1       4.080  -0.007  -1.193  0.00  0.00     0.196 C 
HETATM   26  O           1       4.963   0.808  -0.848  0.00  0.00    -0.646 OA
HETATM   27  O           1       4.387  -1.194  -1.435  0.00  0.00    -0.646 OA
ENDBRANCH  17  25
ENDBRANCH   3  17
TORSDOF 9
