REMARK  6 active torsions:
REMARK  status: ('A' for Active; 'I' for Inactive)
REMARK    1  A    between atoms: C_2  and  C_17 
REMARK       I    between atoms: C_4  and  N_11 
REMARK    2  A    between atoms: C_4  and  C_5 
REMARK    3  A    between atoms: C_5  and  C_13 
REMARK    4  A    between atoms: C_5  and  N_19 
REMARK    5  A    between atoms: N_11  and  C_17 
REMARK    6  A    between atoms: C_13  and  C_16 
ROOT
HETATM    1  C           1       0.330   0.293   0.153  0.00  0.00     0.278 C 
ENDROOT
BRANCH   1   2
HETATM    2  C           1       1.190   1.092  -0.794  0.00  0.00     0.249 C 
HETATM    3  N           1       2.538   0.858  -0.859  0.00  0.00    -0.349 N 
HETATM    4  H           1       2.957   0.149  -0.271  0.00  0.00     0.163 HD
HETATM    5  O           1       0.690   1.939  -1.496  0.00  0.00    -0.271 OA
BRANCH   3   6
HETATM    6  C           1       3.364   1.626  -1.770  0.00  0.00     0.235 C 
BRANCH   6   7
HETATM    7  C           1       4.799   1.177  -1.648  0.00  0.00     0.191 C 
HETATM    8  O           1       5.104   0.269  -0.845  0.00  0.00    -0.647 OA
HETATM    9  O           1       5.684   1.714  -2.350  0.00  0.00    -0.647 OA
ENDBRANCH   6   7
ENDBRANCH   3   6
ENDBRANCH   1   2
BRANCH   1  10
HETATM   10  C           1      -1.119   0.746   0.030  0.00  0.00     0.081 C 
BRANCH  10  11
HETATM   11  C           1      -2.029  -0.402   0.335  0.00  0.00    -0.056 A 
HETATM   12  C           1      -1.494  -1.647   0.668  0.00  0.00     0.007 A 
HETATM   13  C           1      -2.343  -2.717   0.951  0.00  0.00     0.001 A 
HETATM   14  C           1      -3.726  -2.543   0.903  0.00  0.00     0.000 A 
HETATM   15  C           1      -4.260  -1.298   0.570  0.00  0.00     0.001 A 
HETATM   16  C           1      -3.412  -0.228   0.286  0.00  0.00     0.007 A 
ENDBRANCH  10  11
ENDBRANCH   1  10
BRANCH   1  17
HETATM   17  N           1       0.803   0.509   1.560  0.00  0.00    -0.066 N 
HETATM   18  H           1       0.734   1.524   1.798  0.00  0.00     0.275 HD
HETATM   19  H           1       1.797   0.198   1.645  0.00  0.00     0.275 HD
HETATM   20  H           1       0.208  -0.044   2.217  0.00  0.00     0.275 HD
ENDBRANCH   1  17
TORSDOF 6
