REMARK  5 active torsions:
REMARK  status: ('A' for Active; 'I' for Inactive)
REMARK    1  A    between atoms: C_7  and  C_8 
REMARK    2  A    between atoms: C_8  and  C_9 
REMARK    3  A    between atoms: C_9  and  C_10 
REMARK    4  A    between atoms: C_9  and  N_13 
REMARK       I    between atoms: C_10  and  N_14 
REMARK    5  A    between atoms: C_20  and  C_22 
ROOT
HETATM    1  C           1       1.144  -0.703   0.726  0.00  0.00     0.279 C 
ENDROOT
BRANCH   1   2
HETATM    2  C           1      -0.305  -0.249   0.603  0.00  0.00     0.081 C 
BRANCH   2   3
HETATM    3  C           1      -1.216  -1.398   0.908  0.00  0.00    -0.056 A 
HETATM    4  C           1      -0.681  -2.642   1.240  0.00  0.00     0.007 A 
HETATM    5  C           1      -1.529  -3.713   1.524  0.00  0.00     0.001 A 
HETATM    6  C           1      -2.912  -3.538   1.475  0.00  0.00     0.000 A 
HETATM    7  C           1      -3.447  -2.294   1.143  0.00  0.00     0.001 A 
HETATM    8  C           1      -2.599  -1.223   0.859  0.00  0.00     0.007 A 
ENDBRANCH   2   3
ENDBRANCH   1   2
BRANCH   1   9
HETATM    9  C           1       2.004   0.097  -0.222  0.00  0.00     0.251 C 
HETATM   10  N           1       1.437   1.056  -1.017  0.00  0.00    -0.336 N 
HETATM   11  C           1       1.871   1.481  -2.345  0.00  0.00     0.127 C 
HETATM   12  C           1       0.266   1.877  -0.723  0.00  0.00     0.188 C 
HETATM   13  C           1       1.699   2.990  -2.317  0.00  0.00     0.022 C 
HETATM   14  C           1       0.646   3.251  -1.246  0.00  0.00     0.038 C 
HETATM   15  O           1       3.192  -0.110  -0.279  0.00  0.00    -0.271 OA
BRANCH  12  16
HETATM   16  C           1      -0.954   1.349  -1.437  0.00  0.00     0.196 C 
HETATM   17  O           1      -2.055   1.926  -1.303  0.00  0.00    -0.646 OA
HETATM   18  O           1      -0.864   0.335  -2.161  0.00  0.00    -0.646 OA
ENDBRANCH  12  16
ENDBRANCH   1   9
BRANCH   1  19
HETATM   19  N           1       1.617  -0.486   2.133  0.00  0.00    -0.066 N 
HETATM   20  H           1       1.548   0.529   2.371  0.00  0.00     0.275 HD
HETATM   21  H           1       2.611  -0.798   2.217  0.00  0.00     0.275 HD
HETATM   22  H           1       1.022  -1.039   2.790  0.00  0.00     0.275 HD
ENDBRANCH   1  19
TORSDOF 5
