REMARK  8 active torsions:
REMARK  status: ('A' for Active; 'I' for Inactive)
REMARK    1  A    between atoms: C_2  and  C_7 
REMARK    2  A    between atoms: C_7  and  C_11 
REMARK    3  A    between atoms: C_11  and  C_12 
REMARK    4  A    between atoms: C_11  and  N_22 
REMARK    5  A    between atoms: N_16  and  C_17 
REMARK    6  A    between atoms: C_17  and  C_23 
REMARK    7  A    between atoms: C_17  and  C_18 
REMARK    8  A    between atoms: C_18  and  C_19 
REMARK       I    between atoms: N_22  and  C_23 
ROOT
HETATM    1  C           1      -0.427  -0.745   0.983  0.00  0.00     0.260 C 
ENDROOT
BRANCH   1   2
HETATM    2  N           1       0.046  -0.528   2.390  0.00  0.00    -0.067 N 
HETATM    3  H           1      -0.023   0.487   2.628  0.00  0.00     0.275 HD
HETATM    4  H           1       1.040  -0.840   2.475  0.00  0.00     0.275 HD
HETATM    5  H           1      -0.549  -1.081   3.047  0.00  0.00     0.275 HD
ENDBRANCH   1   2
BRANCH   1   6
HETATM    6  C           1       0.433   0.055   0.035  0.00  0.00     0.130 C 
HETATM    7  O           1      -0.068   0.901  -0.666  0.00  0.00    -0.397 OA
HETATM    8  N           1       1.780  -0.179  -0.029  0.00  0.00    -0.359 N 
HETATM    9  H           1       2.199  -0.889   0.559  0.00  0.00     0.162 HD
BRANCH   8  10
HETATM   10  C           1       2.607   0.589  -0.940  0.00  0.00     0.184 C 
BRANCH  10  11
HETATM   11  C           1       2.507   2.068  -0.592  0.00  0.00     0.040 C 
BRANCH  11  12
HETATM   12  C           1       1.960   2.836  -1.788  0.00  0.00    -0.018 C 
HETATM   13  C           1       0.578   2.305  -2.145  0.00  0.00     0.289 C 
HETATM   14  C           1       2.895   2.655  -2.977  0.00  0.00     0.009 C 
ENDBRANCH  11  12
ENDBRANCH  10  11
BRANCH  10  15
HETATM   15  C           1       4.042   0.139  -0.816  0.00  0.00     0.196 C 
HETATM   16  O           1       4.348  -1.048  -1.059  0.00  0.00    -0.646 OA
HETATM   17  O           1       4.924   0.954  -0.472  0.00  0.00    -0.646 OA
ENDBRANCH  10  15
ENDBRANCH   8  10
ENDBRANCH   1   6
BRANCH   1  18
HETATM   18  C           1      -1.876  -0.291   0.860  0.00  0.00     0.079 C 
BRANCH  18  19
HETATM   19  C           1      -2.787  -1.440   1.165  0.00  0.00    -0.056 A 
HETATM   20  C           1      -4.170  -1.266   1.116  0.00  0.00     0.007 A 
HETATM   21  C           1      -5.018  -2.336   1.400  0.00  0.00     0.001 A 
HETATM   22  C           1      -4.483  -3.580   1.733  0.00  0.00     0.000 A 
HETATM   23  C           1      -3.100  -3.755   1.781  0.00  0.00     0.001 A 
HETATM   24  C           1      -2.252  -2.685   1.497  0.00  0.00     0.007 A 
ENDBRANCH  18  19
ENDBRANCH   1  18
TORSDOF 8
