REMARK  8 active torsions:
REMARK  status: ('A' for Active; 'I' for Inactive)
REMARK       I    between atoms: C_1  and  N_2 
REMARK    1  A    between atoms: C_1  and  C_17 
REMARK    2  A    between atoms: N_2  and  C_20 
REMARK    3  A    between atoms: C_3  and  C_31 
REMARK    4  A    between atoms: C_8  and  C_20 
REMARK    5  A    between atoms: N_10  and  C_17 
REMARK    6  A    between atoms: C_17  and  C_31 
REMARK    7  A    between atoms: C_18  and  C_19 
REMARK    8  A    between atoms: C_19  and  C_20 
ROOT
HETATM    1  C           1      -1.572  -1.103   0.713  0.00  0.00     0.249 C 
HETATM    2  N           1      -2.304  -0.435   1.657  0.00  0.00    -0.344 N 
HETATM    3  H           1      -3.309  -0.363   1.560  0.00  0.00     0.163 HD
HETATM    4  O           1      -1.364  -2.287   0.836  0.00  0.00    -0.271 OA
ENDROOT
BRANCH   2   5
HETATM    5  C           1      -1.640   0.170   2.795  0.00  0.00     0.190 C 
BRANCH   5   6
HETATM    6  C           1      -2.665   0.839   3.677  0.00  0.00     0.197 C 
HETATM    7  O           1      -3.586   0.165   4.188  0.00  0.00    -0.646 OA
HETATM    8  O           1      -2.594   2.067   3.898  0.00  0.00    -0.646 OA
ENDBRANCH   5   6
BRANCH   5   9
HETATM    9  C           1      -0.637   1.206   2.305  0.00  0.00     0.077 C 
BRANCH   9  10
HETATM   10  C           1       0.692   0.553   2.090  0.00  0.00    -0.028 A 
HETATM   11  C           1       1.878   1.194   1.636  0.00  0.00    -0.002 A 
HETATM   12  C           1       2.198   2.514   1.267  0.00  0.00     0.014 A 
HETATM   13  C           1       2.875   0.220   1.578  0.00  0.00     0.042 A 
HETATM   14  C           1       3.502   2.813   0.854  0.00  0.00     0.001 A 
HETATM   15  C           1       4.478   1.820   0.806  0.00  0.00     0.002 A 
HETATM   16  C           1       4.184   0.502   1.168  0.00  0.00     0.030 A 
HETATM   17  N           1       2.306  -0.966   1.984  0.00  0.00    -0.365 N 
HETATM   18  H           1       2.811  -1.885   2.046  0.00  0.00     0.165 HD
HETATM   19  C           1       0.986  -0.776   2.296  0.00  0.00     0.096 A 
ENDBRANCH   9  10
ENDBRANCH   5   9
ENDBRANCH   2   5
BRANCH   1  20
HETATM   20  C           1      -1.024  -0.361  -0.482  0.00  0.00     0.278 C 
BRANCH  20  21
HETATM   21  N           1      -0.105   0.728  -0.014  0.00  0.00    -0.066 N 
HETATM   22  H           1       0.275   1.242  -0.841  0.00  0.00     0.275 HD
HETATM   23  H           1      -0.633   1.392   0.595  0.00  0.00     0.275 HD
HETATM   24  H           1       0.684   0.309   0.528  0.00  0.00     0.275 HD
ENDBRANCH  20  21
BRANCH  20  25
HETATM   25  C           1      -0.254  -1.328  -1.371  0.00  0.00     0.081 C 
BRANCH  25  26
HETATM   26  C           1      -0.879  -1.363  -2.731  0.00  0.00    -0.056 A 
HETATM   27  C           1      -0.344  -2.183  -3.724  0.00  0.00     0.007 A 
HETATM   28  C           1      -0.926  -2.215  -4.991  0.00  0.00     0.001 A 
HETATM   29  C           1      -2.045  -1.428  -5.264  0.00  0.00     0.000 A 
HETATM   30  C           1      -2.581  -0.608  -4.271  0.00  0.00     0.001 A 
HETATM   31  C           1      -1.998  -0.576  -3.004  0.00  0.00     0.007 A 
ENDBRANCH  25  26
ENDBRANCH  20  25
ENDBRANCH   1  20
TORSDOF 8
