REMARK  11 active torsions:
REMARK  status: ('A' for Active; 'I' for Inactive)
REMARK    1  A    between atoms: N_3  and  C_9 
REMARK    2  A    between atoms: C_7  and  C_15 
REMARK    3  A    between atoms: C_7  and  C_19 
REMARK    4  A    between atoms: C_7  and  N_27 
REMARK    5  A    between atoms: C_8  and  C_11 
REMARK    6  A    between atoms: C_9  and  C_14 
REMARK    7  A    between atoms: N_10  and  C_11 
REMARK       I    between atoms: N_10  and  C_15 
REMARK    8  A    between atoms: C_11  and  C_12 
REMARK    9  A    between atoms: C_12  and  C_13 
REMARK   10  A    between atoms: C_13  and  C_14 
REMARK   11  A    between atoms: C_18  and  C_19 
ROOT
HETATM    1  H           1       1.688  -1.474  -0.547  0.00  0.00     0.163 HD
HETATM    2  N           1       1.269  -0.764  -1.135  0.00  0.00    -0.345 N 
HETATM    3  C           1      -0.078  -0.530  -1.071  0.00  0.00     0.249 C 
HETATM    4  O           1      -0.579   0.316  -1.772  0.00  0.00    -0.271 OA
ENDROOT
BRANCH   2   5
HETATM    5  C           1       2.095   0.004  -2.046  0.00  0.00     0.185 C 
BRANCH   5   6
HETATM    6  C           1       3.531  -0.446  -1.922  0.00  0.00     0.196 C 
HETATM    7  O           1       3.837  -1.633  -2.165  0.00  0.00    -0.646 OA
HETATM    8  O           1       4.413   0.369  -1.578  0.00  0.00    -0.646 OA
ENDBRANCH   5   6
BRANCH   5   9
HETATM    9  C           1       1.996   1.483  -1.698  0.00  0.00     0.036 C 
BRANCH   9  10
HETATM   10  C           1       2.476   1.703  -0.270  0.00  0.00     0.004 C 
BRANCH  10  11
HETATM   11  C           1       2.376   3.182   0.078  0.00  0.00     0.027 C 
BRANCH  11  12
HETATM   12  C           1       2.857   3.402   1.507  0.00  0.00     0.229 C 
BRANCH  12  13
HETATM   13  N           1       2.759   4.859   1.849  0.00  0.00    -0.079 N 
HETATM   14  H           1       3.088   5.010   2.830  0.00  0.00     0.274 HD
HETATM   15  H           1       3.355   5.412   1.193  0.00  0.00     0.274 HD
HETATM   16  H           1       1.765   5.171   1.765  0.00  0.00     0.274 HD
ENDBRANCH  12  13
ENDBRANCH  11  12
ENDBRANCH  10  11
ENDBRANCH   9  10
ENDBRANCH   5   9
ENDBRANCH   2   5
BRANCH   3  17
HETATM   17  C           1      -0.938  -1.330  -0.123  0.00  0.00     0.278 C 
BRANCH  17  18
HETATM   18  C           1      -2.387  -0.876  -0.246  0.00  0.00     0.081 C 
BRANCH  18  19
HETATM   19  C           1      -3.298  -2.025   0.059  0.00  0.00    -0.056 A 
HETATM   20  C           1      -2.763  -3.270   0.391  0.00  0.00     0.007 A 
HETATM   21  C           1      -3.611  -4.340   0.675  0.00  0.00     0.001 A 
HETATM   22  C           1      -4.994  -4.165   0.627  0.00  0.00     0.000 A 
HETATM   23  C           1      -5.529  -2.921   0.294  0.00  0.00     0.001 A 
HETATM   24  C           1      -4.681  -1.851   0.010  0.00  0.00     0.007 A 
ENDBRANCH  18  19
ENDBRANCH  17  18
BRANCH  17  25
HETATM   25  N           1      -0.465  -1.113   1.284  0.00  0.00    -0.066 N 
HETATM   26  H           1      -1.060  -1.666   1.941  0.00  0.00     0.275 HD
HETATM   27  H           1      -0.534  -0.098   1.522  0.00  0.00     0.275 HD
HETATM   28  H           1       0.529  -1.425   1.369  0.00  0.00     0.275 HD
ENDBRANCH  17  25
ENDBRANCH   3  17
TORSDOF 11
