REMARK  6 active torsions:
REMARK  status: ('A' for Active; 'I' for Inactive)
REMARK    1  A    between atoms: C_1  and  C_2 
REMARK    2  A    between atoms: C_2  and  C_18 
REMARK    3  A    between atoms: C_3  and  C_4 
REMARK    4  A    between atoms: C_4  and  N_11 
REMARK       I    between atoms: C_9  and  N_11 
REMARK    5  A    between atoms: C_9  and  C_18 
REMARK    6  A    between atoms: N_14  and  C_18 
ROOT
HETATM    1  C           1       0.037  -0.034   0.272  0.00  0.00     0.278 C 
ENDROOT
BRANCH   1   2
HETATM    2  C           1      -1.412   0.419   0.149  0.00  0.00     0.081 C 
BRANCH   2   3
HETATM    3  C           1      -2.323  -0.730   0.454  0.00  0.00    -0.056 A 
HETATM    4  C           1      -1.788  -1.974   0.786  0.00  0.00     0.007 A 
HETATM    5  C           1      -2.636  -3.044   1.070  0.00  0.00     0.001 A 
HETATM    6  C           1      -4.019  -2.870   1.021  0.00  0.00     0.000 A 
HETATM    7  C           1      -4.554  -1.625   0.689  0.00  0.00     0.001 A 
HETATM    8  C           1      -3.706  -0.555   0.405  0.00  0.00     0.007 A 
ENDBRANCH   2   3
ENDBRANCH   1   2
BRANCH   1   9
HETATM    9  C           1       0.897   0.765  -0.676  0.00  0.00     0.249 C 
HETATM   10  O           1       0.396   1.612  -1.378  0.00  0.00    -0.271 OA
HETATM   11  N           1       2.244   0.531  -0.741  0.00  0.00    -0.345 N 
HETATM   12  H           1       2.663  -0.178  -0.153  0.00  0.00     0.163 HD
BRANCH  11  13
HETATM   13  C           1       3.070   1.299  -1.651  0.00  0.00     0.181 C 
HETATM   14  C           1       2.971   2.779  -1.303  0.00  0.00     0.043 C 
BRANCH  13  15
HETATM   15  C           1       4.505   0.850  -1.528  0.00  0.00     0.196 C 
HETATM   16  O           1       4.812  -0.338  -1.770  0.00  0.00    -0.646 OA
HETATM   17  O           1       5.388   1.665  -1.183  0.00  0.00    -0.646 OA
ENDBRANCH  13  15
ENDBRANCH  11  13
ENDBRANCH   1   9
BRANCH   1  18
HETATM   18  N           1       0.510   0.182   1.679  0.00  0.00    -0.066 N 
HETATM   19  H           1       1.504  -0.129   1.763  0.00  0.00     0.275 HD
HETATM   20  H           1      -0.085  -0.371   2.336  0.00  0.00     0.275 HD
HETATM   21  H           1       0.440   1.197   1.917  0.00  0.00     0.275 HD
ENDBRANCH   1  18
TORSDOF 6
