REMARK  7 active torsions:
REMARK  status: ('A' for Active; 'I' for Inactive)
REMARK    1  A    between atoms: C_1  and  C_6 
REMARK    2  A    between atoms: C_1  and  C_13 
REMARK    3  A    between atoms: C_1  and  N_2 
REMARK    4  A    between atoms: N_4  and  C_17 
REMARK       I    between atoms: N_4  and  C_6 
REMARK    5  A    between atoms: C_11  and  C_13 
REMARK    6  A    between atoms: C_15  and  C_17 
REMARK    7  A    between atoms: C_17  and  C_19 
ROOT
HETATM    1  C           1      -0.506  -0.595   0.559  0.00  0.00     0.278 C 
ENDROOT
BRANCH   1   2
HETATM    2  C           1       0.354   0.204  -0.389  0.00  0.00     0.249 C 
HETATM    3  N           1       1.701  -0.030  -0.454  0.00  0.00    -0.344 N 
HETATM    4  H           1       2.120  -0.739   0.134  0.00  0.00     0.163 HD
HETATM    5  O           1      -0.146   1.051  -1.091  0.00  0.00    -0.271 OA
BRANCH   3   6
HETATM    6  C           1       2.528   0.738  -1.364  0.00  0.00     0.189 C 
BRANCH   6   7
HETATM    7  C           1       3.963   0.289  -1.241  0.00  0.00     0.197 C 
HETATM    8  O           1       4.388  -0.153  -0.152  0.00  0.00    -0.646 OA
HETATM    9  O           1       4.727   0.358  -2.228  0.00  0.00    -0.646 OA
ENDBRANCH   6   7
BRANCH   6  10
HETATM   10  C           1       2.428   2.218  -1.017  0.00  0.00     0.010 C 
HETATM   11  C           1       1.881   2.986  -2.213  0.00  0.00     0.012 C 
HETATM   12  C           1       3.810   2.749  -0.662  0.00  0.00     0.012 C 
ENDBRANCH   6  10
ENDBRANCH   3   6
ENDBRANCH   1   2
BRANCH   1  13
HETATM   13  C           1      -1.955  -0.142   0.436  0.00  0.00     0.081 C 
BRANCH  13  14
HETATM   14  C           1      -2.865  -1.290   0.740  0.00  0.00    -0.056 A 
HETATM   15  C           1      -2.331  -2.535   1.073  0.00  0.00     0.007 A 
HETATM   16  C           1      -3.179  -3.605   1.357  0.00  0.00     0.001 A 
HETATM   17  C           1      -4.562  -3.431   1.308  0.00  0.00     0.000 A 
HETATM   18  C           1      -5.097  -2.186   0.976  0.00  0.00     0.001 A 
HETATM   19  C           1      -4.248  -1.116   0.692  0.00  0.00     0.007 A 
ENDBRANCH  13  14
ENDBRANCH   1  13
BRANCH   1  20
HETATM   20  N           1      -0.033  -0.379   1.966  0.00  0.00    -0.066 N 
HETATM   21  H           1      -0.628  -0.932   2.623  0.00  0.00     0.275 HD
HETATM   22  H           1       0.961  -0.690   2.050  0.00  0.00     0.275 HD
HETATM   23  H           1      -0.102   0.637   2.204  0.00  0.00     0.275 HD
ENDBRANCH   1  20
TORSDOF 7
