REMARK  8 active torsions:
REMARK  status: ('A' for Active; 'I' for Inactive)
REMARK    1  A    between atoms: N_1  and  C_8 
REMARK       I    between atoms: N_1  and  C_21 
REMARK       I    between atoms: N_4  and  C_5 
REMARK    2  A    between atoms: C_5  and  C_19 
REMARK    3  A    between atoms: C_7  and  C_8 
REMARK    4  A    between atoms: C_8  and  C_19 
REMARK    5  A    between atoms: C_13  and  C_20 
REMARK    6  A    between atoms: C_13  and  C_14 
REMARK    7  A    between atoms: N_15  and  C_20 
REMARK    8  A    between atoms: C_20  and  C_21 
ROOT
HETATM    1  N           1       2.021   0.178  -0.348  0.00  0.00    -0.344 N 
HETATM    2  H           1       2.440  -0.531   0.239  0.00  0.00     0.163 HD
HETATM    3  O           1       0.173   1.258  -0.985  0.00  0.00    -0.271 OA
HETATM    4  C           1       0.674   0.412  -0.284  0.00  0.00     0.249 C 
ENDROOT
BRANCH   4   5
HETATM    5  C           1      -0.186  -0.387   0.664  0.00  0.00     0.278 C 
BRANCH   5   6
HETATM    6  C           1      -1.635   0.066   0.541  0.00  0.00     0.081 C 
BRANCH   6   7
HETATM    7  C           1      -2.546  -1.083   0.846  0.00  0.00    -0.056 A 
HETATM    8  C           1      -3.929  -0.908   0.797  0.00  0.00     0.007 A 
HETATM    9  C           1      -4.777  -1.978   1.081  0.00  0.00     0.001 A 
HETATM   10  C           1      -4.242  -3.223   1.414  0.00  0.00     0.000 A 
HETATM   11  C           1      -2.859  -3.398   1.462  0.00  0.00     0.001 A 
HETATM   12  C           1      -2.011  -2.327   1.178  0.00  0.00     0.007 A 
ENDBRANCH   6   7
ENDBRANCH   5   6
BRANCH   5  13
HETATM   13  N           1       0.287  -0.171   2.071  0.00  0.00    -0.066 N 
HETATM   14  H           1       1.281  -0.483   2.156  0.00  0.00     0.275 HD
HETATM   15  H           1      -0.308  -0.724   2.728  0.00  0.00     0.275 HD
HETATM   16  H           1       0.218   0.844   2.309  0.00  0.00     0.275 HD
ENDBRANCH   5  13
ENDBRANCH   4   5
BRANCH   1  17
HETATM   17  C           1       2.848   0.946  -1.259  0.00  0.00     0.194 C 
BRANCH  17  18
HETATM   18  C           1       4.283   0.497  -1.136  0.00  0.00     0.197 C 
HETATM   19  O           1       5.165   1.312  -0.791  0.00  0.00    -0.646 OA
HETATM   20  O           1       4.589  -0.691  -1.378  0.00  0.00    -0.646 OA
ENDBRANCH  17  18
BRANCH  17  21
HETATM   21  C           1       2.748   2.425  -0.911  0.00  0.00     0.138 C 
BRANCH  21  22
HETATM   22  C           1       2.206   3.186  -2.096  0.00  0.00     0.217 C 
HETATM   23  N           1       1.892   2.521  -3.251  0.00  0.00    -0.370 N 
HETATM   24  H           1       2.023   1.520  -3.310  0.00  0.00     0.159 HD
HETATM   25  H           1       1.528   3.032  -4.046  0.00  0.00     0.159 HD
HETATM   26  O           1       2.050   4.382  -2.026  0.00  0.00    -0.274 OA
ENDBRANCH  21  22
ENDBRANCH  17  21
ENDBRANCH   1  17
TORSDOF 8
