REMARK  8 active torsions:
REMARK  status: ('A' for Active; 'I' for Inactive)
REMARK    1  A    between atoms: N_4  and  C_10 
REMARK       I    between atoms: N_4  and  C_5 
REMARK    2  A    between atoms: C_5  and  C_22 
REMARK    3  A    between atoms: C_9  and  C_10 
REMARK    4  A    between atoms: C_9  and  C_17 
REMARK    5  A    between atoms: C_10  and  C_26 
REMARK    6  A    between atoms: C_13  and  C_22 
REMARK    7  A    between atoms: C_13  and  C_16 
REMARK    8  A    between atoms: N_21  and  C_22 
ROOT
HETATM    1  N           1       2.161   0.397  -1.248  0.00  0.00    -0.344 N 
HETATM    2  C           1       1.528  -0.231  -0.209  0.00  0.00     0.249 C 
HETATM    3  O           1       1.901  -1.320   0.155  0.00  0.00    -0.271 OA
HETATM    4  H           1       2.948   1.007  -1.067  0.00  0.00     0.163 HD
ENDROOT
BRANCH   2   5
HETATM    5  C           1       0.365   0.439   0.481  0.00  0.00     0.278 C 
BRANCH   5   6
HETATM    6  C           1      -0.154  -0.463   1.593  0.00  0.00     0.081 C 
BRANCH   6   7
HETATM    7  C           1      -0.045   0.248   2.906  0.00  0.00    -0.056 A 
HETATM    8  C           1       0.474   1.542   2.957  0.00  0.00     0.007 A 
HETATM    9  C           1       0.576   2.204   4.180  0.00  0.00     0.001 A 
HETATM   10  C           1       0.158   1.573   5.352  0.00  0.00     0.000 A 
HETATM   11  C           1      -0.360   0.280   5.301  0.00  0.00     0.001 A 
HETATM   12  C           1      -0.462  -0.383   4.077  0.00  0.00     0.007 A 
ENDBRANCH   6   7
ENDBRANCH   5   6
BRANCH   5  13
HETATM   13  N           1      -0.730   0.687  -0.513  0.00  0.00    -0.066 N 
HETATM   14  H           1      -0.374   1.306  -1.276  0.00  0.00     0.275 HD
HETATM   15  H           1      -1.536   1.150  -0.036  0.00  0.00     0.275 HD
HETATM   16  H           1      -1.043  -0.223  -0.920  0.00  0.00     0.275 HD
ENDBRANCH   5  13
ENDBRANCH   2   5
BRANCH   1  17
HETATM   17  C           1       1.703   0.188  -2.608  0.00  0.00     0.189 C 
BRANCH  17  18
HETATM   18  C           1       0.255   0.641  -2.731  0.00  0.00     0.074 C 
BRANCH  18  19
HETATM   19  C           1      -0.656  -0.508  -2.427  0.00  0.00    -0.056 A 
HETATM   20  C           1      -0.121  -1.752  -2.094  0.00  0.00     0.007 A 
HETATM   21  C           1      -0.970  -2.822  -1.810  0.00  0.00     0.001 A 
HETATM   22  C           1      -2.353  -2.648  -1.859  0.00  0.00     0.000 A 
HETATM   23  C           1      -2.887  -1.403  -2.191  0.00  0.00     0.001 A 
HETATM   24  C           1      -2.039  -0.333  -2.475  0.00  0.00     0.007 A 
ENDBRANCH  18  19
ENDBRANCH  17  18
BRANCH  17  25
HETATM   25  C           1       2.563   0.987  -3.556  0.00  0.00     0.197 C 
HETATM   26  O           1       3.794   0.773  -3.615  0.00  0.00    -0.646 OA
HETATM   27  O           1       2.046   1.863  -4.282  0.00  0.00    -0.646 OA
ENDBRANCH  17  25
ENDBRANCH   1  17
TORSDOF 8
