REMARK  8 active torsions:
REMARK  status: ('A' for Active; 'I' for Inactive)
REMARK    1  A    between atoms: C_4  and  C_20 
REMARK    2  A    between atoms: C_4  and  C_16 
REMARK    3  A    between atoms: C_4  and  N_14 
REMARK    4  A    between atoms: O_6  and  C_19 
REMARK    5  A    between atoms: C_8  and  C_16 
REMARK    6  A    between atoms: C_9  and  C_13 
REMARK    7  A    between atoms: C_13  and  C_19 
REMARK    8  A    between atoms: C_13  and  N_17 
REMARK       I    between atoms: N_17  and  C_20 
ROOT
HETATM    1  C           1      -0.207  -0.410   0.487  0.00  0.00     0.278 C 
ENDROOT
BRANCH   1   2
HETATM    2  C           1       0.653   0.390  -0.461  0.00  0.00     0.249 C 
HETATM    3  N           1       2.000   0.155  -0.525  0.00  0.00    -0.343 N 
HETATM    4  H           1       2.419  -0.554   0.062  0.00  0.00     0.163 HD
HETATM    5  O           1       0.152   1.236  -1.162  0.00  0.00    -0.271 OA
BRANCH   3   6
HETATM    6  C           1       2.826   0.924  -1.436  0.00  0.00     0.214 C 
BRANCH   6   7
HETATM    7  C           1       4.262   0.474  -1.313  0.00  0.00     0.199 C 
HETATM    8  O           1       4.568  -0.713  -1.555  0.00  0.00    -0.646 OA
HETATM    9  O           1       5.144   1.289  -0.968  0.00  0.00    -0.646 OA
ENDBRANCH   6   7
BRANCH   6  10
HETATM   10  C           1       2.727   2.403  -1.088  0.00  0.00     0.147 C 
HETATM   11  C           1       2.180   3.171  -2.284  0.00  0.00     0.042 C 
BRANCH  10  12
HETATM   12  O           1       1.865   2.568   0.006  0.00  0.00    -0.393 OA
HETATM   13  H           1       2.236   2.081   0.722  0.00  0.00     0.210 HD
ENDBRANCH  10  12
ENDBRANCH   6  10
ENDBRANCH   3   6
ENDBRANCH   1   2
BRANCH   1  14
HETATM   14  C           1      -1.656   0.043   0.364  0.00  0.00     0.081 C 
BRANCH  14  15
HETATM   15  C           1      -2.567  -1.105   0.669  0.00  0.00    -0.056 A 
HETATM   16  C           1      -3.950  -0.931   0.620  0.00  0.00     0.007 A 
HETATM   17  C           1      -4.798  -2.001   0.904  0.00  0.00     0.001 A 
HETATM   18  C           1      -4.263  -3.246   1.237  0.00  0.00     0.000 A 
HETATM   19  C           1      -2.880  -3.420   1.285  0.00  0.00     0.001 A 
HETATM   20  C           1      -2.032  -2.350   1.001  0.00  0.00     0.007 A 
ENDBRANCH  14  15
ENDBRANCH   1  14
BRANCH   1  21
HETATM   21  N           1       0.266  -0.193   1.894  0.00  0.00    -0.066 N 
HETATM   22  H           1       0.196   0.822   2.132  0.00  0.00     0.275 HD
HETATM   23  H           1       1.260  -0.505   1.978  0.00  0.00     0.275 HD
HETATM   24  H           1      -0.329  -0.747   2.551  0.00  0.00     0.275 HD
ENDBRANCH   1  21
TORSDOF 8
