REMARK  8 active torsions:
REMARK  status: ('A' for Active; 'I' for Inactive)
REMARK    1  A    between atoms: N_3  and  C_13 
REMARK       I    between atoms: N_3  and  C_4 
REMARK    2  A    between atoms: C_4  and  C_5 
REMARK    3  A    between atoms: C_5  and  C_7 
REMARK    4  A    between atoms: C_5  and  N_25 
REMARK    5  A    between atoms: C_7  and  C_22 
REMARK    6  A    between atoms: C_13  and  C_16 
REMARK    7  A    between atoms: C_13  and  C_21 
REMARK    8  A    between atoms: C_15  and  C_21 
ROOT
HETATM    1  N           1       1.557   0.589   0.311  0.00  0.00    -0.344 N 
HETATM    2  C           1       0.209   0.823   0.376  0.00  0.00     0.249 C 
HETATM    3  H           1       1.976  -0.120   0.899  0.00  0.00     0.163 HD
HETATM    4  O           1      -0.291   1.669  -0.326  0.00  0.00    -0.271 OA
ENDROOT
BRANCH   1   5
HETATM    5  C           1       2.383   1.357  -0.600  0.00  0.00     0.191 C 
BRANCH   5   6
HETATM    6  C           1       2.284   2.823  -0.255  0.00  0.00     0.197 C 
HETATM    7  O           1       1.856   3.636  -1.101  0.00  0.00    -0.646 OA
HETATM    8  O           1       2.632   3.223   0.877  0.00  0.00    -0.646 OA
ENDBRANCH   5   6
BRANCH   5   9
HETATM    9  C           1       1.902   1.139  -2.028  0.00  0.00     0.094 C 
BRANCH   9  10
HETATM   10  C           1       3.009   0.549  -2.844  0.00  0.00     0.028 A 
HETATM   11  N           1       4.260   0.256  -2.364  0.00  0.00    -0.354 N 
HETATM   12  C           1       4.917  -0.237  -3.389  0.00  0.00     0.180 A 
ATOM     13  HN          1       4.606   0.392  -1.414  1.00  0.00     0.166 HD
HETATM   14  N           1       4.139  -0.275  -4.511  0.00  0.00    -0.360 N 
HETATM   15  C           1       2.912   0.227  -4.177  0.00  0.00     0.114 A 
HETATM   16  H           1       4.431  -0.625  -5.457  0.00  0.00     0.166 HD
ENDBRANCH   9  10
ENDBRANCH   5   9
ENDBRANCH   1   5
BRANCH   2  17
HETATM   17  C           1      -0.651   0.024   1.324  0.00  0.00     0.278 C 
BRANCH  17  18
HETATM   18  C           1      -2.099   0.477   1.201  0.00  0.00     0.081 C 
BRANCH  18  19
HETATM   19  C           1      -3.010  -0.672   1.505  0.00  0.00    -0.056 A 
HETATM   20  C           1      -2.475  -1.916   1.838  0.00  0.00     0.007 A 
HETATM   21  C           1      -3.324  -2.987   2.122  0.00  0.00     0.001 A 
HETATM   22  C           1      -4.707  -2.812   2.073  0.00  0.00     0.000 A 
HETATM   23  C           1      -5.241  -1.568   1.741  0.00  0.00     0.001 A 
HETATM   24  C           1      -4.393  -0.497   1.457  0.00  0.00     0.007 A 
ENDBRANCH  18  19
ENDBRANCH  17  18
BRANCH  17  25
HETATM   25  N           1      -0.177   0.240   2.731  0.00  0.00    -0.066 N 
HETATM   26  H           1      -0.247   1.255   2.969  0.00  0.00     0.275 HD
HETATM   27  H           1      -0.772  -0.313   3.388  0.00  0.00     0.275 HD
HETATM   28  H           1       0.816  -0.072   2.815  0.00  0.00     0.275 HD
ENDBRANCH  17  25
ENDBRANCH   2  17
TORSDOF 8
