REMARK  10 active torsions:
REMARK  status: ('A' for Active; 'I' for Inactive)
REMARK    1  A    between atoms: C_2  and  C_27 
REMARK    2  A    between atoms: C_2  and  C_21 
REMARK    3  A    between atoms: C_6  and  C_7 
REMARK    4  A    between atoms: C_7  and  C_8 
REMARK    5  A    between atoms: C_8  and  C_9 
REMARK    6  A    between atoms: C_8  and  N_12 
REMARK       I    between atoms: C_9  and  N_13 
REMARK    7  A    between atoms: N_13  and  C_20 
REMARK       I    between atoms: N_14  and  C_29 
REMARK    8  A    between atoms: C_20  and  C_21 
REMARK    9  A    between atoms: C_20  and  C_30 
REMARK       I    between atoms: N_22  and  C_29 
REMARK   10  A    between atoms: N_22  and  C_27 
ROOT
HETATM    1  H           1       1.561  -1.742  -0.679  0.00  0.00     0.163 HD
HETATM    2  C           1      -0.205  -0.799  -1.202  0.00  0.00     0.249 C 
HETATM    3  O           1      -0.706   0.048  -1.904  0.00  0.00    -0.271 OA
HETATM    4  N           1       1.142  -1.033  -1.267  0.00  0.00    -0.345 N 
ENDROOT
BRANCH   4   5
HETATM    5  C           1       1.968  -0.265  -2.178  0.00  0.00     0.185 C 
BRANCH   5   6
HETATM    6  C           1       1.869   1.214  -1.830  0.00  0.00     0.038 C 
BRANCH   6   7
HETATM    7  C           1       2.349   1.434  -0.401  0.00  0.00     0.023 C 
BRANCH   7   8
HETATM    8  C           1       2.249   2.914  -0.054  0.00  0.00     0.138 C 
BRANCH   8   9
HETATM    9  N           1       2.713   3.126   1.325  0.00  0.00    -0.227 N 
HETATM   10  H           1       3.043   2.311   1.899  0.00  0.00     0.177 HD
HETATM   11  C           1       2.714   4.291   1.820  0.00  0.00     0.665 C 
HETATM   12  N           1       3.124   4.478   3.040  0.00  0.00    -0.235 N 
HETATM   13  N           1       2.316   5.273   1.128  0.00  0.00    -0.235 N 
HETATM   14  H           1       3.453   3.667   3.611  0.00  0.00     0.174 HD
HETATM   15  H           1       3.125   5.440   3.449  0.00  0.00     0.174 HD
HETATM   16  H           1       2.317   6.240   1.539  0.00  0.00     0.174 HD
HETATM   17  H           1       1.985   5.122   0.144  0.00  0.00     0.174 HD
ENDBRANCH   8   9
ENDBRANCH   7   8
ENDBRANCH   6   7
ENDBRANCH   5   6
BRANCH   5  18
HETATM   18  C           1       3.403  -0.714  -2.054  0.00  0.00     0.196 C 
HETATM   19  O           1       3.710  -1.902  -2.297  0.00  0.00    -0.646 OA
HETATM   20  O           1       4.286   0.101  -1.710  0.00  0.00    -0.646 OA
ENDBRANCH   5  18
ENDBRANCH   4   5
BRANCH   2  21
HETATM   21  C           1      -1.066  -1.598  -0.255  0.00  0.00     0.278 C 
BRANCH  21  22
HETATM   22  C           1      -2.514  -1.145  -0.378  0.00  0.00     0.081 C 
BRANCH  22  23
HETATM   23  C           1      -3.425  -2.294  -0.073  0.00  0.00    -0.056 A 
HETATM   24  C           1      -2.890  -3.538   0.260  0.00  0.00     0.007 A 
HETATM   25  C           1      -3.738  -4.609   0.543  0.00  0.00     0.001 A 
HETATM   26  C           1      -5.121  -4.434   0.495  0.00  0.00     0.000 A 
HETATM   27  C           1      -5.656  -3.189   0.162  0.00  0.00     0.001 A 
HETATM   28  C           1      -4.808  -2.119  -0.122  0.00  0.00     0.007 A 
ENDBRANCH  22  23
ENDBRANCH  21  22
BRANCH  21  29
HETATM   29  N           1      -0.592  -1.382   1.152  0.00  0.00    -0.066 N 
HETATM   30  H           1      -1.187  -1.935   1.809  0.00  0.00     0.275 HD
HETATM   31  H           1       0.402  -1.693   1.237  0.00  0.00     0.275 HD
HETATM   32  H           1      -0.662  -0.367   1.390  0.00  0.00     0.275 HD
ENDBRANCH  21  29
ENDBRANCH   2  21
TORSDOF 10
