REMARK  11 active torsions:
REMARK  status: ('A' for Active; 'I' for Inactive)
REMARK    1  A    between atoms: O_2  and  P_32 
REMARK    2  A    between atoms: C_3  and  C_6 
REMARK       I    between atoms: C_4  and  N_5 
REMARK    3  A    between atoms: C_4  and  C_18 
REMARK    4  A    between atoms: N_5  and  C_7 
REMARK    5  A    between atoms: C_6  and  C_7 
REMARK    6  A    between atoms: C_7  and  C_13 
REMARK    7  A    between atoms: C_9  and  O_16 
REMARK    8  A    between atoms: O_16  and  P_32 
REMARK    9  A    between atoms: C_18  and  C_24 
REMARK   10  A    between atoms: C_18  and  N_19 
REMARK   11  A    between atoms: C_23  and  C_24 
ROOT
HETATM    1  C           1       2.262   0.531  -2.403  0.00  0.00     0.189 C 
ENDROOT
BRANCH   1   2
HETATM    2  N           1       2.720   0.740  -1.043  0.00  0.00    -0.344 N 
HETATM    3  C           1       2.087   0.113  -0.004  0.00  0.00     0.249 C 
HETATM    4  O           1       2.460  -0.977   0.361  0.00  0.00    -0.271 OA
HETATM    5  H           1       3.507   1.350  -0.862  0.00  0.00     0.163 HD
BRANCH   3   6
HETATM    6  C           1       0.924   0.782   0.687  0.00  0.00     0.278 C 
BRANCH   6   7
HETATM    7  C           1       0.405  -0.120   1.798  0.00  0.00     0.081 C 
BRANCH   7   8
HETATM    8  C           1       0.514   0.591   3.111  0.00  0.00    -0.056 A 
HETATM    9  C           1       0.097  -0.040   4.283  0.00  0.00     0.007 A 
HETATM   10  C           1       0.199   0.623   5.506  0.00  0.00     0.001 A 
HETATM   11  C           1       0.718   1.917   5.557  0.00  0.00     0.000 A 
HETATM   12  C           1       1.135   2.548   4.386  0.00  0.00     0.001 A 
HETATM   13  C           1       1.033   1.885   3.162  0.00  0.00     0.007 A 
ENDBRANCH   7   8
ENDBRANCH   6   7
BRANCH   6  14
HETATM   14  N           1      -0.171   1.030  -0.308  0.00  0.00    -0.066 N 
HETATM   15  H           1      -0.484   0.120  -0.715  0.00  0.00     0.275 HD
HETATM   16  H           1      -0.977   1.494   0.169  0.00  0.00     0.275 HD
HETATM   17  H           1       0.185   1.650  -1.070  0.00  0.00     0.275 HD
ENDBRANCH   6  14
ENDBRANCH   3   6
ENDBRANCH   1   2
BRANCH   1  18
HETATM   18  C           1       0.814   0.984  -2.526  0.00  0.00     0.074 C 
BRANCH  18  19
HETATM   19  C           1      -0.097  -0.164  -2.221  0.00  0.00    -0.056 A 
HETATM   20  C           1       0.438  -1.409  -1.889  0.00  0.00     0.010 A 
HETATM   21  C           1      -0.411  -2.479  -1.605  0.00  0.00     0.038 A 
HETATM   22  C           1      -1.794  -2.305  -1.653  0.00  0.00     0.081 A 
HETATM   23  C           1      -2.328  -1.060  -1.986  0.00  0.00     0.038 A 
HETATM   24  C           1      -1.480   0.010  -2.270  0.00  0.00     0.010 A 
BRANCH  22  25
HETATM   25  O           1      -2.618  -3.344  -1.378  0.00  0.00    -0.247 OA
BRANCH  25  26
HETATM   26  P           1      -4.211  -3.088  -1.448  0.00  0.00     0.411 P 
HETATM   27  O           1      -4.927  -4.340  -1.116  0.00  0.00    -0.624 OA
HETATM   28  O           1      -4.585  -2.034  -0.479  0.00  0.00    -0.624 OA
BRANCH  26  29
HETATM   29  O           1      -4.614  -2.616  -2.939  0.00  0.00    -0.300 OA
HETATM   30  H           1      -5.546  -2.486  -2.910  0.00  0.00     0.223 HD
ENDBRANCH  26  29
ENDBRANCH  25  26
ENDBRANCH  22  25
ENDBRANCH  18  19
ENDBRANCH   1  18
BRANCH   1  31
HETATM   31  C           1       3.122   1.330  -3.351  0.00  0.00     0.197 C 
HETATM   32  O           1       4.353   1.117  -3.410  0.00  0.00    -0.646 OA
HETATM   33  O           1       2.605   2.206  -4.077  0.00  0.00    -0.646 OA
ENDBRANCH   1  31
TORSDOF 11
