REMARK  9 active torsions:
REMARK  status: ('A' for Active; 'I' for Inactive)
REMARK       I    between atoms: C_2  and  N_10 
REMARK    1  A    between atoms: C_2  and  C_26 
REMARK    2  A    between atoms: C_8  and  C_11 
REMARK    3  A    between atoms: C_8  and  C_13 
REMARK    4  A    between atoms: N_10  and  C_13 
REMARK    5  A    between atoms: C_13  and  C_14 
REMARK    6  A    between atoms: O_19  and  C_20 
REMARK    7  A    between atoms: N_24  and  C_26 
REMARK    8  A    between atoms: C_26  and  C_27 
REMARK    9  A    between atoms: C_27  and  C_28 
ROOT
HETATM    1  C           1      -0.776  -0.088  -0.253  0.00  0.00     0.249 C 
HETATM    2  N           1       0.504  -0.553  -0.387  0.00  0.00    -0.344 N 
HETATM    3  O           1      -1.522  -0.090  -1.203  0.00  0.00    -0.271 OA
HETATM    4  H           1       1.129  -0.551   0.409  0.00  0.00     0.163 HD
ENDROOT
BRANCH   2   5
HETATM    5  C           1       0.966  -1.048  -1.669  0.00  0.00     0.189 C 
BRANCH   5   6
HETATM    6  C           1       2.414  -1.501  -1.546  0.00  0.00     0.074 C 
BRANCH   6   7
HETATM    7  C           1       3.325  -0.352  -1.851  0.00  0.00    -0.056 A 
HETATM    8  C           1       4.708  -0.527  -1.802  0.00  0.00     0.010 A 
HETATM    9  C           1       5.556   0.543  -2.086  0.00  0.00     0.037 A 
HETATM   10  C           1       5.022   1.788  -2.419  0.00  0.00     0.065 A 
HETATM   11  C           1       3.639   1.962  -2.467  0.00  0.00     0.037 A 
HETATM   12  C           1       2.790   0.892  -2.183  0.00  0.00     0.010 A 
BRANCH  10  13
HETATM   13  O           1       5.846   2.828  -2.694  0.00  0.00    -0.361 OA
HETATM   14  H           1       5.295   3.601  -2.901  0.00  0.00     0.217 HD
ENDBRANCH  10  13
ENDBRANCH   6   7
ENDBRANCH   5   6
BRANCH   5  15
HETATM   15  C           1       0.108  -2.213  -2.096  0.00  0.00     0.197 C 
HETATM   16  O           1      -1.122  -2.058  -2.257  0.00  0.00    -0.646 OA
HETATM   17  O           1       0.627  -3.334  -2.288  0.00  0.00    -0.646 OA
ENDBRANCH   5  15
ENDBRANCH   2   5
BRANCH   1  18
HETATM   18  C           1      -1.257   0.427   1.082  0.00  0.00     0.278 C 
BRANCH  18  19
HETATM   19  N           1      -0.404   1.586   1.506  0.00  0.00    -0.066 N 
HETATM   20  H           1      -0.473   2.348   0.793  0.00  0.00     0.275 HD
HETATM   21  H           1       0.590   1.275   1.589  0.00  0.00     0.275 HD
HETATM   22  H           1      -0.736   1.944   2.430  0.00  0.00     0.275 HD
ENDBRANCH  18  19
BRANCH  18  23
HETATM   23  C           1      -2.705   0.881   0.960  0.00  0.00     0.081 C 
BRANCH  23  24
HETATM   24  C           1      -3.558   0.087   1.900  0.00  0.00    -0.056 A 
HETATM   25  C           1      -4.931   0.326   1.967  0.00  0.00     0.007 A 
HETATM   26  C           1      -5.725  -0.414   2.843  0.00  0.00     0.001 A 
HETATM   27  C           1      -5.147  -1.392   3.652  0.00  0.00     0.000 A 
HETATM   28  C           1      -3.774  -1.631   3.585  0.00  0.00     0.001 A 
HETATM   29  C           1      -2.980  -0.892   2.709  0.00  0.00     0.007 A 
ENDBRANCH  23  24
ENDBRANCH  18  23
ENDBRANCH   1  18
TORSDOF 9
