REMARK  9 active torsions:
REMARK  status: ('A' for Active; 'I' for Inactive)
REMARK       I    between atoms: C_1  and  N_7 
REMARK    1  A    between atoms: C_1  and  C_12 
REMARK    2  A    between atoms: C_2  and  C_24 
REMARK    3  A    between atoms: N_7  and  C_24 
REMARK    4  A    between atoms: C_8  and  Se_9 
REMARK    5  A    between atoms: C_8  and  C_17 
REMARK    6  A    between atoms: C_12  and  C_13 
REMARK    7  A    between atoms: C_12  and  N_23 
REMARK    8  A    between atoms: C_13  and  C_14 
REMARK    9  A    between atoms: C_17  and  C_24 
ROOT
HETATM    1  C           1       0.581  -0.145  -0.059  0.00  0.00     0.249 C 
HETATM    2  O           1       0.080   0.702  -0.761  0.00  0.00    -0.271 OA
HETATM    3  N           1       1.928  -0.379  -0.124  0.00  0.00    -0.345 N 
HETATM    4  H           1       2.347  -1.088   0.464  0.00  0.00     0.163 HD
ENDROOT
BRANCH   1   5
HETATM    5  C           1      -0.279  -0.944   0.889  0.00  0.00     0.278 C 
BRANCH   5   6
HETATM    6  C           1      -1.728  -0.491   0.766  0.00  0.00     0.081 C 
BRANCH   6   7
HETATM    7  C           1      -2.639  -1.640   1.070  0.00  0.00    -0.056 A 
HETATM    8  C           1      -2.104  -2.884   1.403  0.00  0.00     0.007 A 
HETATM    9  C           1      -2.952  -3.954   1.687  0.00  0.00     0.001 A 
HETATM   10  C           1      -4.335  -3.780   1.638  0.00  0.00     0.000 A 
HETATM   11  C           1      -4.870  -2.535   1.306  0.00  0.00     0.001 A 
HETATM   12  C           1      -4.022  -1.465   1.022  0.00  0.00     0.007 A 
ENDBRANCH   6   7
ENDBRANCH   5   6
BRANCH   5  13
HETATM   13  N           1       0.194  -0.728   2.295  0.00  0.00    -0.066 N 
HETATM   14  H           1       0.125   0.287   2.534  0.00  0.00     0.275 HD
HETATM   15  H           1       1.188  -1.039   2.380  0.00  0.00     0.275 HD
HETATM   16  H           1      -0.401  -1.281   2.953  0.00  0.00     0.275 HD
ENDBRANCH   5  13
ENDBRANCH   1   5
BRANCH   3  17
HETATM   17  C           1       2.755   0.389  -1.035  0.00  0.00     0.185 C 
BRANCH  17  18
HETATM   18  C           1       4.190  -0.060  -0.911  0.00  0.00     0.196 C 
HETATM   19  O           1       4.496  -1.248  -1.154  0.00  0.00    -0.646 OA
HETATM   20  O           1       5.072   0.755  -0.566  0.00  0.00    -0.646 OA
ENDBRANCH  17  18
BRANCH  17  21
HETATM   21  C           1       2.655   1.869  -0.687  0.00  0.00     0.036 C 
BRANCH  21  22
HETATM   22  C           1       2.108   2.637  -1.883  0.00  0.00     0.003 C 
BRANCH  22  23
HETATM   23 Se           1       1.980   4.530  -1.438  0.00  0.00     0.000 Se
HETATM   24  C           1       1.275   5.059  -3.176  0.00  0.00     0.000 C 
ENDBRANCH  22  23
ENDBRANCH  21  22
ENDBRANCH  17  21
ENDBRANCH   3  17
TORSDOF 9
