REMARK  10 active torsions:
REMARK  status: ('A' for Active; 'I' for Inactive)
REMARK    1  A    between atoms: C_1  and  C_6 
REMARK    2  A    between atoms: C_1  and  C_2 
REMARK    3  A    between atoms: C_1  and  N_19 
REMARK    4  A    between atoms: C_2  and  C_17 
REMARK       I    between atoms: C_6  and  N_8 
REMARK    5  A    between atoms: N_8  and  C_25 
REMARK    6  A    between atoms: C_11  and  C_25 
REMARK    7  A    between atoms: P_20  and  O_27 
REMARK    8  A    between atoms: P_20  and  O_22 
REMARK    9  A    between atoms: C_25  and  C_26 
REMARK   10  A    between atoms: C_26  and  O_27 
ROOT
HETATM    1  C           1       1.060   0.602   0.163  0.00  0.00     0.249 C 
HETATM    2  O           1       0.560   1.449  -0.539  0.00  0.00    -0.271 OA
HETATM    3  N           1       2.408   0.368   0.098  0.00  0.00    -0.343 N 
HETATM    4  H           1       2.827  -0.341   0.686  0.00  0.00     0.163 HD
ENDROOT
BRANCH   1   5
HETATM    5  C           1       0.200  -0.197   1.110  0.00  0.00     0.278 C 
BRANCH   5   6
HETATM    6  C           1      -1.249   0.256   0.988  0.00  0.00     0.081 C 
BRANCH   6   7
HETATM    7  C           1      -2.159  -0.893   1.292  0.00  0.00    -0.056 A 
HETATM    8  C           1      -3.542  -0.718   1.244  0.00  0.00     0.007 A 
HETATM    9  C           1      -4.390  -1.788   1.528  0.00  0.00     0.001 A 
HETATM   10  C           1      -3.856  -3.033   1.860  0.00  0.00     0.000 A 
HETATM   11  C           1      -2.473  -3.207   1.909  0.00  0.00     0.001 A 
HETATM   12  C           1      -1.624  -2.137   1.625  0.00  0.00     0.007 A 
ENDBRANCH   6   7
ENDBRANCH   5   6
BRANCH   5  13
HETATM   13  N           1       0.673   0.019   2.517  0.00  0.00    -0.066 N 
HETATM   14  H           1       0.604   1.034   2.756  0.00  0.00     0.275 HD
HETATM   15  H           1       0.078  -0.534   3.175  0.00  0.00     0.275 HD
HETATM   16  H           1       1.667  -0.292   2.602  0.00  0.00     0.275 HD
ENDBRANCH   5  13
ENDBRANCH   1   5
BRANCH   3  17
HETATM   17  C           1       3.234   1.136  -0.813  0.00  0.00     0.210 C 
BRANCH  17  18
HETATM   18  C           1       3.135   2.602  -0.468  0.00  0.00     0.198 C 
HETATM   19  O           1       3.482   3.003   0.664  0.00  0.00    -0.646 OA
HETATM   20  O           1       2.706   3.416  -1.314  0.00  0.00    -0.646 OA
ENDBRANCH  17  18
BRANCH  17  21
HETATM   21  C           1       2.752   0.918  -2.241  0.00  0.00     0.217 C 
BRANCH  21  22
HETATM   22  O           1       1.419   1.336  -2.354  0.00  0.00    -0.287 OA
BRANCH  22  23
HETATM   23  P           1       0.748   1.173  -3.814  0.00  0.00     0.406 P 
HETATM   24  O           1       0.766  -0.253  -4.210  0.00  0.00    -0.624 OA
HETATM   25  O           1       1.513   1.968  -4.800  0.00  0.00    -0.624 OA
BRANCH  23  26
HETATM   26  O           1      -0.779   1.698  -3.765  0.00  0.00    -0.300 OA
HETATM   27  H           1      -1.107   1.575  -4.640  0.00  0.00     0.223 HD
ENDBRANCH  23  26
ENDBRANCH  22  23
ENDBRANCH  21  22
ENDBRANCH  17  21
ENDBRANCH   3  17
TORSDOF 10
