REMARK  9 active torsions:
REMARK  status: ('A' for Active; 'I' for Inactive)
REMARK    1  A    between atoms: C_2  and  C_17 
REMARK    2  A    between atoms: C_2  and  C_9 
REMARK    3  A    between atoms: C_2  and  N_7 
REMARK    4  A    between atoms: C_9  and  C_12 
REMARK    5  A    between atoms: C_10  and  S_13 
REMARK    6  A    between atoms: C_10  and  C_14 
REMARK    7  A    between atoms: C_14  and  C_15 
REMARK    8  A    between atoms: C_15  and  C_21 
REMARK    9  A    between atoms: C_15  and  N_24 
REMARK       I    between atoms: C_17  and  N_24 
ROOT
HETATM    1  C           1      -0.285  -0.930   0.879  0.00  0.00     0.278 C 
ENDROOT
BRANCH   1   2
HETATM    2  C           1       0.575  -0.130  -0.069  0.00  0.00     0.249 C 
HETATM    3  O           1       0.075   0.716  -0.771  0.00  0.00    -0.271 OA
HETATM    4  N           1       1.922  -0.364  -0.134  0.00  0.00    -0.345 N 
HETATM    5  H           1       2.341  -1.073   0.454  0.00  0.00     0.163 HD
BRANCH   4   6
HETATM    6  C           1       2.749   0.404  -1.045  0.00  0.00     0.186 C 
BRANCH   6   7
HETATM    7  C           1       2.649   1.883  -0.697  0.00  0.00     0.046 C 
BRANCH   7   8
HETATM    8  C           1       2.102   2.651  -1.893  0.00  0.00     0.076 C 
BRANCH   8   9
HETATM    9  S           1       1.983   4.414  -1.478  0.00  0.00    -0.173 SA
HETATM   10  C           1       1.325   4.952  -3.082  0.00  0.00     0.089 C 
ENDBRANCH   8   9
ENDBRANCH   7   8
ENDBRANCH   6   7
BRANCH   6  11
HETATM   11  C           1       4.184  -0.045  -0.921  0.00  0.00     0.196 C 
HETATM   12  O           1       4.490  -1.233  -1.163  0.00  0.00    -0.646 OA
HETATM   13  O           1       5.067   0.770  -0.576  0.00  0.00    -0.646 OA
ENDBRANCH   6  11
ENDBRANCH   4   6
ENDBRANCH   1   2
BRANCH   1  14
HETATM   14  C           1      -1.734  -0.476   0.756  0.00  0.00     0.081 C 
BRANCH  14  15
HETATM   15  C           1      -2.644  -1.625   1.060  0.00  0.00    -0.056 A 
HETATM   16  C           1      -2.110  -2.869   1.393  0.00  0.00     0.007 A 
HETATM   17  C           1      -2.958  -3.940   1.677  0.00  0.00     0.001 A 
HETATM   18  C           1      -4.341  -3.765   1.628  0.00  0.00     0.000 A 
HETATM   19  C           1      -4.876  -2.521   1.296  0.00  0.00     0.001 A 
HETATM   20  C           1      -4.027  -1.450   1.012  0.00  0.00     0.007 A 
ENDBRANCH  14  15
ENDBRANCH   1  14
BRANCH   1  21
HETATM   21  N           1       0.188  -0.713   2.286  0.00  0.00    -0.066 N 
HETATM   22  H           1      -0.407  -1.266   2.943  0.00  0.00     0.275 HD
HETATM   23  H           1       1.182  -1.025   2.370  0.00  0.00     0.275 HD
HETATM   24  H           1       0.119   0.302   2.524  0.00  0.00     0.275 HD
ENDBRANCH   1  21
TORSDOF 9
