REMARK  9 active torsions:
REMARK  status: ('A' for Active; 'I' for Inactive)
REMARK    1  A    between atoms: C_1  and  C_9 
REMARK    2  A    between atoms: C_1  and  C_18 
REMARK    3  A    between atoms: C_1  and  N_10 
REMARK    4  A    between atoms: C_3  and  C_8 
REMARK    5  A    between atoms: C_6  and  C_7 
REMARK    6  A    between atoms: C_6  and  C_8 
REMARK    7  A    between atoms: C_7  and  C_21 
REMARK    8  A    between atoms: C_8  and  N_12 
REMARK       I    between atoms: C_9  and  N_12 
REMARK    9  A    between atoms: C_18  and  C_25 
ROOT
HETATM    1  C           1       0.600   0.159  -0.344  0.00  0.00     0.249 C 
HETATM    2  N           1       1.947  -0.075  -0.408  0.00  0.00    -0.345 N 
HETATM    3  O           1       0.100   1.006  -1.045  0.00  0.00    -0.271 OA
HETATM    4  H           1       2.367  -0.784   0.180  0.00  0.00     0.163 HD
ENDROOT
BRANCH   1   5
HETATM    5  C           1      -0.260  -0.640   0.604  0.00  0.00     0.278 C 
BRANCH   5   6
HETATM    6  C           1      -1.709  -0.187   0.481  0.00  0.00     0.081 C 
BRANCH   6   7
HETATM    7  C           1      -2.619  -1.336   0.786  0.00  0.00    -0.056 A 
HETATM    8  C           1      -4.002  -1.161   0.737  0.00  0.00     0.007 A 
HETATM    9  C           1      -4.851  -2.231   1.021  0.00  0.00     0.001 A 
HETATM   10  C           1      -4.316  -3.476   1.354  0.00  0.00     0.000 A 
HETATM   11  C           1      -2.933  -3.650   1.402  0.00  0.00     0.001 A 
HETATM   12  C           1      -2.085  -2.580   1.118  0.00  0.00     0.007 A 
ENDBRANCH   6   7
ENDBRANCH   5   6
BRANCH   5  13
HETATM   13  N           1       0.213  -0.424   2.011  0.00  0.00    -0.066 N 
HETATM   14  H           1       1.207  -0.735   2.096  0.00  0.00     0.275 HD
HETATM   15  H           1      -0.382  -0.977   2.668  0.00  0.00     0.275 HD
HETATM   16  H           1       0.144   0.591   2.249  0.00  0.00     0.275 HD
ENDBRANCH   5  13
ENDBRANCH   1   5
BRANCH   2  17
HETATM   17  C           1       2.774   0.693  -1.319  0.00  0.00     0.186 C 
BRANCH  17  18
HETATM   18  C           1       4.209   0.244  -1.195  0.00  0.00     0.196 C 
HETATM   19  O           1       4.515  -0.944  -1.438  0.00  0.00    -0.646 OA
HETATM   20  O           1       5.092   1.059  -0.851  0.00  0.00    -0.646 OA
ENDBRANCH  17  18
BRANCH  17  21
HETATM   21  C           1       2.674   2.172  -0.971  0.00  0.00     0.046 C 
BRANCH  21  22
HETATM   22  C           1       2.127   2.940  -2.167  0.00  0.00     0.116 C 
BRANCH  22  23
HETATM   23  C           1       2.028   4.406  -1.822  0.00  0.00     0.172 C 
HETATM   24  O           1       2.375   4.807  -0.690  0.00  0.00    -0.648 OA
HETATM   25  O           1       1.600   5.220  -2.669  0.00  0.00    -0.648 OA
ENDBRANCH  22  23
ENDBRANCH  21  22
ENDBRANCH  17  21
ENDBRANCH   2  17
TORSDOF 9
