REMARK  8 active torsions:
REMARK  status: ('A' for Active; 'I' for Inactive)
REMARK    1  A    between atoms: C_2  and  S_23 
REMARK    2  A    between atoms: C_2  and  C_12 
REMARK    3  A    between atoms: C_3  and  C_12 
REMARK    4  A    between atoms: N_4  and  C_12 
REMARK       I    between atoms: N_4  and  C_5 
REMARK    5  A    between atoms: C_5  and  C_11 
REMARK    6  A    between atoms: C_11  and  C_22 
REMARK    7  A    between atoms: C_11  and  N_16 
REMARK    8  A    between atoms: C_21  and  C_22 
ROOT
HETATM    1  C           1      -0.025  -0.189   0.351  0.00  0.00     0.278 C 
ENDROOT
BRANCH   1   2
HETATM    2  C           1       0.835   0.610  -0.597  0.00  0.00     0.249 C 
HETATM    3  N           1       2.182   0.376  -0.661  0.00  0.00    -0.344 N 
HETATM    4  H           1       2.601  -0.333  -0.074  0.00  0.00     0.163 HD
HETATM    5  O           1       0.335   1.457  -1.298  0.00  0.00    -0.271 OA
BRANCH   3   6
HETATM    6  C           1       3.009   1.145  -1.572  0.00  0.00     0.194 C 
BRANCH   6   7
HETATM    7  C           1       2.909   2.624  -1.224  0.00  0.00     0.106 C 
BRANCH   7   8
HETATM    8  S           1       2.257   3.539  -2.650  0.00  0.00    -0.180 SA
HETATM    9  H           1       2.284   4.749  -2.064  0.00  0.00     0.101 HD
ENDBRANCH   7   8
ENDBRANCH   6   7
BRANCH   6  10
HETATM   10  C           1       4.444   0.695  -1.448  0.00  0.00     0.197 C 
HETATM   11  O           1       4.750  -0.492  -1.691  0.00  0.00    -0.646 OA
HETATM   12  O           1       5.327   1.510  -1.104  0.00  0.00    -0.646 OA
ENDBRANCH   6  10
ENDBRANCH   3   6
ENDBRANCH   1   2
BRANCH   1  13
HETATM   13  C           1      -1.474   0.264   0.228  0.00  0.00     0.081 C 
BRANCH  13  14
HETATM   14  C           1      -2.384  -0.884   0.533  0.00  0.00    -0.056 A 
HETATM   15  C           1      -3.767  -0.710   0.484  0.00  0.00     0.007 A 
HETATM   16  C           1      -4.616  -1.780   0.768  0.00  0.00     0.001 A 
HETATM   17  C           1      -4.081  -3.025   1.101  0.00  0.00     0.000 A 
HETATM   18  C           1      -2.698  -3.199   1.149  0.00  0.00     0.001 A 
HETATM   19  C           1      -1.850  -2.129   0.865  0.00  0.00     0.007 A 
ENDBRANCH  13  14
ENDBRANCH   1  13
BRANCH   1  20
HETATM   20  N           1       0.448   0.028   1.758  0.00  0.00    -0.066 N 
HETATM   21  H           1       0.379   1.043   1.996  0.00  0.00     0.275 HD
HETATM   22  H           1      -0.147  -0.526   2.415  0.00  0.00     0.275 HD
HETATM   23  H           1       1.442  -0.284   1.843  0.00  0.00     0.275 HD
ENDBRANCH   1  20
TORSDOF 8
