REMARK  8 active torsions:
REMARK  status: ('A' for Active; 'I' for Inactive)
REMARK    1  A    between atoms: C_3  and  C_21 
REMARK    2  A    between atoms: N_4  and  C_22 
REMARK    3  A    between atoms: N_6  and  C_23 
REMARK       I    between atoms: N_6  and  C_19 
REMARK    4  A    between atoms: C_12  and  C_16 
REMARK    5  A    between atoms: C_16  and  C_22 
REMARK    6  A    between atoms: C_19  and  C_22 
REMARK    7  A    between atoms: C_21  and  C_23 
REMARK    8  A    between atoms: C_23  and  C_24 
ROOT
HETATM    1  O           1      -0.157   0.772  -0.970  0.00  0.00    -0.271 OA
HETATM    2  N           1       1.691  -0.309  -0.333  0.00  0.00    -0.344 N 
HETATM    3  H           1       2.110  -1.018   0.255  0.00  0.00     0.163 HD
HETATM    4  C           1       0.343  -0.075  -0.268  0.00  0.00     0.249 C 
ENDROOT
BRANCH   4   5
HETATM    5  C           1      -0.517  -0.874   0.680  0.00  0.00     0.278 C 
BRANCH   5   6
HETATM    6  N           1      -0.044  -0.658   2.086  0.00  0.00    -0.066 N 
HETATM    7  H           1      -0.113   0.357   2.325  0.00  0.00     0.275 HD
HETATM    8  H           1      -0.639  -1.211   2.744  0.00  0.00     0.275 HD
HETATM    9  H           1       0.950  -0.969   2.171  0.00  0.00     0.275 HD
ENDBRANCH   5   6
BRANCH   5  10
HETATM   10  C           1      -1.966  -0.421   0.557  0.00  0.00     0.081 C 
BRANCH  10  11
HETATM   11  C           1      -2.876  -1.570   0.861  0.00  0.00    -0.056 A 
HETATM   12  C           1      -4.259  -1.395   0.813  0.00  0.00     0.007 A 
HETATM   13  C           1      -5.108  -2.465   1.097  0.00  0.00     0.001 A 
HETATM   14  C           1      -4.573  -3.710   1.429  0.00  0.00     0.000 A 
HETATM   15  C           1      -3.190  -3.884   1.478  0.00  0.00     0.001 A 
HETATM   16  C           1      -2.341  -2.814   1.194  0.00  0.00     0.007 A 
ENDBRANCH  10  11
ENDBRANCH   5  10
ENDBRANCH   4   5
BRANCH   2  17
HETATM   17  C           1       2.517   0.459  -1.244  0.00  0.00     0.189 C 
BRANCH  17  18
HETATM   18  C           1       2.417   1.939  -0.896  0.00  0.00     0.014 C 
HETATM   19  C           1       3.800   2.470  -0.541  0.00  0.00     0.012 C 
BRANCH  18  20
HETATM   20  C           1       1.870   2.707  -2.092  0.00  0.00     0.002 C 
HETATM   21  C           1       0.571   3.398  -1.701  0.00  0.00     0.005 C 
ENDBRANCH  18  20
ENDBRANCH  17  18
BRANCH  17  22
HETATM   22  C           1       3.952   0.010  -1.120  0.00  0.00     0.197 C 
HETATM   23  O           1       4.716   0.079  -2.107  0.00  0.00    -0.646 OA
HETATM   24  O           1       4.377  -0.432  -0.031  0.00  0.00    -0.646 OA
ENDBRANCH  17  22
ENDBRANCH   2  17
TORSDOF 8
