REMARK  12 active torsions:
REMARK  status: ('A' for Active; 'I' for Inactive)
REMARK    1  A    between atoms: N_2  and  C_15 
REMARK    2  A    between atoms: O_7  and  P_8 
REMARK    3  A    between atoms: P_8  and  O_9 
REMARK    4  A    between atoms: O_9  and  C_10 
REMARK    5  A    between atoms: C_13  and  C_14 
REMARK    6  A    between atoms: C_14  and  C_15 
REMARK    7  A    between atoms: C_15  and  C_16 
REMARK       I    between atoms: C_16  and  N_17 
REMARK    8  A    between atoms: N_17  and  C_21 
REMARK    9  A    between atoms: C_20  and  C_21 
REMARK   10  A    between atoms: C_21  and  C_22 
REMARK   11  A    between atoms: C_22  and  C_23 
REMARK   12  A    between atoms: C_23  and  S_24 
ROOT
HETATM    1  C           1       0.532  -0.439   0.710  0.00  0.00     0.278 C 
ENDROOT
BRANCH   1   2
HETATM    2  N           1       1.005  -0.223   2.117  0.00  0.00    -0.066 N 
HETATM    3  H           1       0.410  -0.776   2.775  0.00  0.00     0.275 HD
HETATM    4  H           1       1.999  -0.534   2.202  0.00  0.00     0.275 HD
HETATM    5  H           1       0.936   0.792   2.356  0.00  0.00     0.275 HD
ENDBRANCH   1   2
BRANCH   1   6
HETATM    6  C           1      -0.917   0.014   0.587  0.00  0.00     0.081 C 
BRANCH   6   7
HETATM    7  C           1      -1.827  -1.134   0.892  0.00  0.00    -0.056 A 
HETATM    8  C           1      -3.210  -0.960   0.844  0.00  0.00     0.010 A 
HETATM    9  C           1      -4.058  -2.030   1.128  0.00  0.00     0.038 A 
HETATM   10  C           1      -3.524  -3.275   1.460  0.00  0.00     0.081 A 
HETATM   11  C           1      -2.141  -3.449   1.509  0.00  0.00     0.038 A 
HETATM   12  C           1      -1.292  -2.379   1.225  0.00  0.00     0.010 A 
BRANCH  10  13
HETATM   13  O           1      -4.348  -4.314   1.736  0.00  0.00    -0.247 OA
BRANCH  13  14
HETATM   14  P           1      -5.941  -4.059   1.665  0.00  0.00     0.411 P 
HETATM   15  O           1      -6.314  -3.004   2.634  0.00  0.00    -0.624 OA
HETATM   16  O           1      -6.656  -5.311   1.997  0.00  0.00    -0.624 OA
BRANCH  14  17
HETATM   17  O           1      -6.346  -3.587   0.174  0.00  0.00    -0.300 OA
HETATM   18  H           1      -7.278  -3.457   0.205  0.00  0.00     0.223 HD
ENDBRANCH  14  17
ENDBRANCH  13  14
ENDBRANCH  10  13
ENDBRANCH   6   7
ENDBRANCH   1   6
BRANCH   1  19
HETATM   19  C           1       1.392   0.360  -0.237  0.00  0.00     0.249 C 
HETATM   20  O           1       0.892   1.207  -0.939  0.00  0.00    -0.271 OA
HETATM   21  N           1       2.740   0.126  -0.302  0.00  0.00    -0.345 N 
HETATM   22  H           1       3.159  -0.583   0.286  0.00  0.00     0.163 HD
BRANCH  21  23
HETATM   23  C           1       3.566   0.894  -1.213  0.00  0.00     0.186 C 
BRANCH  23  24
HETATM   24  C           1       5.001   0.445  -1.089  0.00  0.00     0.196 C 
HETATM   25  O           1       5.884   1.260  -0.744  0.00  0.00    -0.646 OA
HETATM   26  O           1       5.307  -0.743  -1.332  0.00  0.00    -0.646 OA
ENDBRANCH  23  24
BRANCH  23  27
HETATM   27  C           1       3.466   2.374  -0.865  0.00  0.00     0.046 C 
BRANCH  27  28
HETATM   28  C           1       2.919   3.142  -2.061  0.00  0.00     0.076 C 
BRANCH  28  29
HETATM   29  S           1       2.801   4.905  -1.646  0.00  0.00    -0.173 SA
HETATM   30  C           1       2.142   5.442  -3.250  0.00  0.00     0.089 C 
ENDBRANCH  28  29
ENDBRANCH  27  28
ENDBRANCH  23  27
ENDBRANCH  21  23
ENDBRANCH   1  19
TORSDOF 12
