REMARK  11 active torsions:
REMARK  status: ('A' for Active; 'I' for Inactive)
REMARK       I    between atoms: C_1  and  N_2 
REMARK    1  A    between atoms: C_1  and  C_30 
REMARK    2  A    between atoms: N_2  and  C_6 
REMARK    3  A    between atoms: C_5  and  C_6 
REMARK    4  A    between atoms: C_6  and  C_8 
REMARK    5  A    between atoms: C_8  and  C_9 
REMARK    6  A    between atoms: O_11  and  P_23 
REMARK    7  A    between atoms: N_16  and  C_30 
REMARK    8  A    between atoms: P_23  and  O_24 
REMARK    9  A    between atoms: O_24  and  C_25 
REMARK   10  A    between atoms: C_28  and  C_29 
REMARK   11  A    between atoms: C_29  and  C_30 
ROOT
HETATM    1  C           1       0.290  -0.411   0.540  0.00  0.00     0.278 C 
ENDROOT
BRANCH   1   2
HETATM    2  C           1       1.150   0.389  -0.408  0.00  0.00     0.249 C 
HETATM    3  N           1       2.498   0.155  -0.473  0.00  0.00    -0.344 N 
HETATM    4  H           1       2.917  -0.554   0.115  0.00  0.00     0.163 HD
HETATM    5  O           1       0.650   1.235  -1.110  0.00  0.00    -0.271 OA
BRANCH   3   6
HETATM    6  C           1       3.324   0.923  -1.383  0.00  0.00     0.189 C 
BRANCH   6   7
HETATM    7  C           1       4.759   0.473  -1.260  0.00  0.00     0.197 C 
HETATM    8  O           1       5.184   0.032  -0.171  0.00  0.00    -0.646 OA
HETATM    9  O           1       5.523   0.543  -2.247  0.00  0.00    -0.646 OA
ENDBRANCH   6   7
BRANCH   6  10
HETATM   10  C           1       3.224   2.402  -1.036  0.00  0.00     0.014 C 
HETATM   11  C           1       4.607   2.934  -0.681  0.00  0.00     0.012 C 
BRANCH  10  12
HETATM   12  C           1       2.678   3.170  -2.232  0.00  0.00     0.002 C 
HETATM   13  C           1       1.378   3.862  -1.841  0.00  0.00     0.005 C 
ENDBRANCH  10  12
ENDBRANCH   6  10
ENDBRANCH   3   6
ENDBRANCH   1   2
BRANCH   1  14
HETATM   14  N           1       0.763  -0.194   1.947  0.00  0.00    -0.066 N 
HETATM   15  H           1       0.168  -0.747   2.604  0.00  0.00     0.275 HD
HETATM   16  H           1       1.757  -0.506   2.031  0.00  0.00     0.275 HD
HETATM   17  H           1       0.694   0.821   2.185  0.00  0.00     0.275 HD
ENDBRANCH   1  14
BRANCH   1  18
HETATM   18  C           1      -1.158   0.043   0.417  0.00  0.00     0.081 C 
BRANCH  18  19
HETATM   19  C           1      -2.069  -1.106   0.721  0.00  0.00    -0.056 A 
HETATM   20  C           1      -3.452  -0.931   0.673  0.00  0.00     0.010 A 
HETATM   21  C           1      -4.300  -2.002   0.957  0.00  0.00     0.038 A 
HETATM   22  C           1      -3.766  -3.246   1.289  0.00  0.00     0.081 A 
HETATM   23  C           1      -2.383  -3.421   1.338  0.00  0.00     0.038 A 
HETATM   24  C           1      -1.534  -2.351   1.054  0.00  0.00     0.010 A 
BRANCH  22  25
HETATM   25  O           1      -4.590  -4.286   1.565  0.00  0.00    -0.247 OA
BRANCH  25  26
HETATM   26  P           1      -6.183  -4.030   1.494  0.00  0.00     0.411 P 
HETATM   27  O           1      -6.898  -5.282   1.826  0.00  0.00    -0.624 OA
HETATM   28  O           1      -6.556  -2.976   2.463  0.00  0.00    -0.624 OA
BRANCH  26  29
HETATM   29  O           1      -6.588  -3.558   0.004  0.00  0.00    -0.300 OA
HETATM   30  H           1      -7.520  -3.428   0.034  0.00  0.00     0.223 HD
ENDBRANCH  26  29
ENDBRANCH  25  26
ENDBRANCH  22  25
ENDBRANCH  18  19
ENDBRANCH   1  18
TORSDOF 11
