REMARK  13 active torsions:
REMARK  status: ('A' for Active; 'I' for Inactive)
REMARK    1  A    between atoms: N_1  and  C_2 
REMARK    2  A    between atoms: C_2  and  C_3 
REMARK    3  A    between atoms: C_3  and  C_4 
REMARK    4  A    between atoms: C_4  and  C_5 
REMARK    5  A    between atoms: C_5  and  C_6 
REMARK    6  A    between atoms: C_5  and  N_9 
REMARK       I    between atoms: N_9  and  C_10 
REMARK    7  A    between atoms: C_10  and  C_11 
REMARK    8  A    between atoms: C_11  and  C_12 
REMARK    9  A    between atoms: C_11  and  N_24 
REMARK   10  A    between atoms: C_12  and  C_13 
REMARK   11  A    between atoms: C_16  and  O_17 
REMARK   12  A    between atoms: O_17  and  P_18 
REMARK   13  A    between atoms: P_18  and  O_19 
ROOT
HETATM    1  C           1       0.392  -0.639   0.727  0.00  0.00     0.278 C 
ENDROOT
BRANCH   1   2
HETATM    2  C           1       1.253   0.160  -0.221  0.00  0.00     0.249 C 
HETATM    3  N           1       2.600  -0.074  -0.286  0.00  0.00    -0.345 N 
HETATM    4  H           1       3.019  -0.783   0.302  0.00  0.00     0.163 HD
HETATM    5  O           1       0.752   1.006  -0.923  0.00  0.00    -0.271 OA
BRANCH   3   6
HETATM    6  C           1       3.426   0.694  -1.196  0.00  0.00     0.185 C 
BRANCH   6   7
HETATM    7  C           1       3.327   2.173  -0.848  0.00  0.00     0.038 C 
BRANCH   7   8
HETATM    8  C           1       2.780   2.941  -2.045  0.00  0.00     0.030 C 
BRANCH   8   9
HETATM    9  C           1       2.680   4.421  -1.697  0.00  0.00     0.230 C 
BRANCH   9  10
HETATM   10  N           1       2.141   5.177  -2.875  0.00  0.00    -0.079 N 
HETATM   11  H           1       2.073   6.192  -2.636  0.00  0.00     0.274 HD
HETATM   12  H           1       2.783   5.054  -3.690  0.00  0.00     0.274 HD
HETATM   13  H           1       1.193   4.812  -3.119  0.00  0.00     0.274 HD
ENDBRANCH   9  10
ENDBRANCH   8   9
ENDBRANCH   7   8
ENDBRANCH   6   7
BRANCH   6  14
HETATM   14  C           1       4.861   0.245  -1.073  0.00  0.00     0.196 C 
HETATM   15  O           1       5.168  -0.943  -1.315  0.00  0.00    -0.646 OA
HETATM   16  O           1       5.744   1.060  -0.728  0.00  0.00    -0.646 OA
ENDBRANCH   6  14
ENDBRANCH   3   6
ENDBRANCH   1   2
BRANCH   1  17
HETATM   17  C           1      -1.056  -0.186   0.604  0.00  0.00     0.081 C 
BRANCH  17  18
HETATM   18  C           1      -1.967  -1.335   0.909  0.00  0.00    -0.056 A 
HETATM   19  C           1      -1.432  -2.579   1.241  0.00  0.00     0.010 A 
HETATM   20  C           1      -2.281  -3.650   1.525  0.00  0.00     0.038 A 
HETATM   21  C           1      -3.664  -3.475   1.476  0.00  0.00     0.081 A 
HETATM   22  C           1      -4.198  -2.230   1.144  0.00  0.00     0.038 A 
HETATM   23  C           1      -3.350  -1.160   0.860  0.00  0.00     0.010 A 
BRANCH  21  24
HETATM   24  O           1      -4.488  -4.515   1.752  0.00  0.00    -0.247 OA
BRANCH  24  25
HETATM   25  P           1      -6.081  -4.259   1.681  0.00  0.00     0.411 P 
HETATM   26  O           1      -6.796  -5.511   2.013  0.00  0.00    -0.624 OA
HETATM   27  O           1      -6.454  -3.205   2.651  0.00  0.00    -0.624 OA
BRANCH  25  28
HETATM   28  O           1      -6.485  -3.787   0.191  0.00  0.00    -0.300 OA
HETATM   29  H           1      -7.418  -3.657   0.221  0.00  0.00     0.223 HD
ENDBRANCH  25  28
ENDBRANCH  24  25
ENDBRANCH  21  24
ENDBRANCH  17  18
ENDBRANCH   1  17
BRANCH   1  30
HETATM   30  N           1       0.866  -0.423   2.134  0.00  0.00    -0.066 N 
HETATM   31  H           1       0.271  -0.976   2.791  0.00  0.00     0.275 HD
HETATM   32  H           1       1.859  -0.735   2.218  0.00  0.00     0.275 HD
HETATM   33  H           1       0.796   0.592   2.372  0.00  0.00     0.275 HD
ENDBRANCH   1  30
TORSDOF 13
