REMARK  10 active torsions:
REMARK  status: ('A' for Active; 'I' for Inactive)
REMARK    1  A    between atoms: N_7  and  C_14 
REMARK    2  A    between atoms: O_10  and  P_11 
REMARK    3  A    between atoms: P_11  and  O_12 
REMARK    4  A    between atoms: O_12  and  C_13 
REMARK    5  A    between atoms: C_13  and  C_14 
REMARK    6  A    between atoms: C_14  and  C_15 
REMARK       I    between atoms: C_15  and  N_16 
REMARK    7  A    between atoms: N_16  and  C_20 
REMARK    8  A    between atoms: C_19  and  C_20 
REMARK    9  A    between atoms: C_20  and  C_21 
REMARK   10  A    between atoms: C_21  and  C_23 
ROOT
HETATM    1  C           1       0.862   1.354   0.270  0.00  0.00     0.298 C 
ENDROOT
BRANCH   1   2
HETATM    2  N           1       1.725   1.433  -0.955  0.00  0.00    -0.064 N 
HETATM    3  H           1       1.123   1.379  -1.808  0.00  0.00     0.275 HD
HETATM    4  H           1       2.403   0.638  -0.954  0.00  0.00     0.275 HD
HETATM    5  H           1       2.248   2.337  -0.955  0.00  0.00     0.275 HD
ENDBRANCH   1   2
BRANCH   1   6
HETATM    6  C           1      -0.125   2.513   0.270  0.00  0.00     0.224 C 
BRANCH   6   7
HETATM    7  O           1      -0.931   2.441  -0.875  0.00  0.00    -0.287 OA
BRANCH   7   8
HETATM    8  P           1      -2.042   3.603  -1.033  0.00  0.00     0.406 P 
HETATM    9  O           1      -2.965   3.564   0.123  0.00  0.00    -0.624 OA
HETATM   10  O           1      -2.804   3.389  -2.283  0.00  0.00    -0.624 OA
BRANCH   8  11
HETATM   11  O           1      -1.312   5.043  -1.089  0.00  0.00    -0.300 OA
HETATM   12  H           1      -2.011   5.667  -1.181  0.00  0.00     0.223 HD
ENDBRANCH   8  11
ENDBRANCH   7   8
ENDBRANCH   6   7
ENDBRANCH   1   6
BRANCH   1  13
HETATM   13  C           1       0.107   0.048   0.270  0.00  0.00     0.251 C 
HETATM   14  O           1      -1.101   0.049   0.269  0.00  0.00    -0.271 OA
HETATM   15  N           1       0.790  -1.138   0.269  0.00  0.00    -0.344 N 
HETATM   16  H           1       1.802  -1.139   0.270  0.00  0.00     0.163 HD
BRANCH  15  17
HETATM   17  C           1       0.064  -2.393   0.268  0.00  0.00     0.195 C 
BRANCH  17  18
HETATM   18  C           1      -0.804  -2.472   1.500  0.00  0.00     0.197 C 
HETATM   19  O           1      -0.638  -3.398   2.324  0.00  0.00    -0.646 OA
HETATM   20  O           1      -1.689  -1.612   1.698  0.00  0.00    -0.646 OA
ENDBRANCH  17  18
BRANCH  17  21
HETATM   21  C           1       1.053  -3.551   0.268  0.00  0.00     0.149 C 
BRANCH  21  22
HETATM   22  C           1       0.298  -4.858   0.268  0.00  0.00     0.175 C 
HETATM   23  O           1       0.923  -5.941   0.268  0.00  0.00    -0.648 OA
HETATM   24  O           1      -0.952  -4.858   0.268  0.00  0.00    -0.648 OA
ENDBRANCH  21  22
ENDBRANCH  17  21
ENDBRANCH  15  17
ENDBRANCH   1  13
TORSDOF 10
