REMARK  9 active torsions:
REMARK  status: ('A' for Active; 'I' for Inactive)
REMARK    1  A    between atoms: N_9  and  C_20 
REMARK    2  A    between atoms: O_14  and  P_15 
REMARK    3  A    between atoms: P_15  and  O_16 
REMARK    4  A    between atoms: O_16  and  C_17 
REMARK    5  A    between atoms: C_18  and  C_19 
REMARK    6  A    between atoms: C_19  and  C_20 
REMARK    7  A    between atoms: C_20  and  C_21 
REMARK       I    between atoms: C_21  and  N_22 
REMARK    8  A    between atoms: N_22  and  C_23 
REMARK    9  A    between atoms: C_23  and  C_25 
ROOT
HETATM    1  C           1      -0.156   1.202  -0.082  0.00  0.00     0.081 C 
ENDROOT
BRANCH   1   2
HETATM    2  C           1      -1.066   0.053   0.222  0.00  0.00    -0.056 A 
HETATM    3  C           1      -0.531  -1.191   0.555  0.00  0.00     0.010 A 
HETATM    4  C           1      -1.380  -2.261   0.839  0.00  0.00     0.038 A 
HETATM    5  C           1      -2.763  -2.087   0.790  0.00  0.00     0.081 A 
HETATM    6  C           1      -3.298  -0.842   0.458  0.00  0.00     0.038 A 
HETATM    7  C           1      -2.449   0.228   0.174  0.00  0.00     0.010 A 
BRANCH   5   8
HETATM    8  O           1      -3.587  -3.127   1.066  0.00  0.00    -0.247 OA
BRANCH   8   9
HETATM    9  P           1      -5.180  -2.871   0.995  0.00  0.00     0.411 P 
HETATM   10  O           1      -5.554  -1.816   1.964  0.00  0.00    -0.624 OA
HETATM   11  O           1      -5.895  -4.123   1.327  0.00  0.00    -0.624 OA
BRANCH   9  12
HETATM   12  O           1      -5.585  -2.399  -0.495  0.00  0.00    -0.300 OA
HETATM   13  H           1      -6.517  -2.269  -0.465  0.00  0.00     0.223 HD
ENDBRANCH   9  12
ENDBRANCH   8   9
ENDBRANCH   5   8
ENDBRANCH   1   2
BRANCH   1  14
HETATM   14  C           1       1.293   0.749   0.041  0.00  0.00     0.278 C 
BRANCH  14  15
HETATM   15  N           1       1.766   0.965   1.448  0.00  0.00    -0.066 N 
HETATM   16  H           1       1.697   1.980   1.686  0.00  0.00     0.275 HD
HETATM   17  H           1       2.760   0.654   1.532  0.00  0.00     0.275 HD
HETATM   18  H           1       1.171   0.412   2.105  0.00  0.00     0.275 HD
ENDBRANCH  14  15
BRANCH  14  19
HETATM   19  C           1       2.153   1.548  -0.907  0.00  0.00     0.249 C 
HETATM   20  O           1       1.653   2.395  -1.609  0.00  0.00    -0.271 OA
HETATM   21  N           1       3.500   1.314  -0.972  0.00  0.00    -0.349 N 
HETATM   22  H           1       3.920   0.605  -0.384  0.00  0.00     0.163 HD
BRANCH  21  23
HETATM   23  C           1       4.327   2.082  -1.882  0.00  0.00     0.235 C 
BRANCH  23  24
HETATM   24  C           1       5.762   1.633  -1.761  0.00  0.00     0.191 C 
HETATM   25  O           1       6.067   0.725  -0.958  0.00  0.00    -0.647 OA
HETATM   26  O           1       6.647   2.170  -2.462  0.00  0.00    -0.647 OA
ENDBRANCH  23  24
ENDBRANCH  21  23
ENDBRANCH  14  19
ENDBRANCH   1  14
TORSDOF 9
