REMARK  9 active torsions:
REMARK  status: ('A' for Active; 'I' for Inactive)
REMARK    1  A    between atoms: C_2  and  C_3 
REMARK    2  A    between atoms: C_2  and  N_6 
REMARK       I    between atoms: N_6  and  C_7 
REMARK    3  A    between atoms: C_7  and  C_8 
REMARK    4  A    between atoms: C_8  and  C_9 
REMARK    5  A    between atoms: C_8  and  N_21 
REMARK    6  A    between atoms: C_9  and  C_10 
REMARK    7  A    between atoms: C_13  and  O_14 
REMARK    8  A    between atoms: O_14  and  P_15 
REMARK    9  A    between atoms: P_15  and  O_16 
ROOT
HETATM    1  C           1       0.962   0.429   0.153  0.00  0.00     0.278 C 
ENDROOT
BRANCH   1   2
HETATM    2  C           1       1.822   1.228  -0.795  0.00  0.00     0.249 C 
HETATM    3  N           1       3.169   0.994  -0.860  0.00  0.00    -0.345 N 
HETATM    4  H           1       3.589   0.285  -0.272  0.00  0.00     0.163 HD
HETATM    5  O           1       1.322   2.075  -1.497  0.00  0.00    -0.271 OA
BRANCH   3   6
HETATM    6  C           1       3.996   1.762  -1.771  0.00  0.00     0.181 C 
HETATM    7  C           1       3.896   3.241  -1.423  0.00  0.00     0.043 C 
BRANCH   6   8
HETATM    8  C           1       5.431   1.313  -1.647  0.00  0.00     0.196 C 
HETATM    9  O           1       5.737   0.125  -1.889  0.00  0.00    -0.646 OA
HETATM   10  O           1       6.314   2.128  -1.302  0.00  0.00    -0.646 OA
ENDBRANCH   6   8
ENDBRANCH   3   6
ENDBRANCH   1   2
BRANCH   1  11
HETATM   11  C           1      -0.487   0.882   0.030  0.00  0.00     0.081 C 
BRANCH  11  12
HETATM   12  C           1      -1.397  -0.267   0.334  0.00  0.00    -0.056 A 
HETATM   13  C           1      -0.863  -1.511   0.667  0.00  0.00     0.010 A 
HETATM   14  C           1      -1.711  -2.582   0.951  0.00  0.00     0.038 A 
HETATM   15  C           1      -3.094  -2.407   0.902  0.00  0.00     0.081 A 
HETATM   16  C           1      -3.629  -1.162   0.570  0.00  0.00     0.038 A 
HETATM   17  C           1      -2.780  -0.092   0.286  0.00  0.00     0.010 A 
BRANCH  15  18
HETATM   18  O           1      -3.918  -3.447   1.178  0.00  0.00    -0.247 OA
BRANCH  18  19
HETATM   19  P           1      -5.511  -3.191   1.107  0.00  0.00     0.411 P 
HETATM   20  O           1      -6.226  -4.443   1.439  0.00  0.00    -0.624 OA
HETATM   21  O           1      -5.885  -2.136   2.076  0.00  0.00    -0.624 OA
BRANCH  19  22
HETATM   22  O           1      -5.916  -2.719  -0.384  0.00  0.00    -0.300 OA
HETATM   23  H           1      -6.848  -2.589  -0.353  0.00  0.00     0.223 HD
ENDBRANCH  19  22
ENDBRANCH  18  19
ENDBRANCH  15  18
ENDBRANCH  11  12
ENDBRANCH   1  11
BRANCH   1  24
HETATM   24  N           1       1.435   0.645   1.559  0.00  0.00    -0.066 N 
HETATM   25  H           1       0.840   0.092   2.217  0.00  0.00     0.275 HD
HETATM   26  H           1       2.429   0.334   1.644  0.00  0.00     0.275 HD
HETATM   27  H           1       1.366   1.660   1.798  0.00  0.00     0.275 HD
ENDBRANCH   1  24
TORSDOF 9
