REMARK  11 active torsions:
REMARK  status: ('A' for Active; 'I' for Inactive)
REMARK    1  A    between atoms: O_3  and  P_4 
REMARK    2  A    between atoms: P_4  and  O_5 
REMARK    3  A    between atoms: O_5  and  C_6 
REMARK    4  A    between atoms: C_9  and  C_10 
REMARK    5  A    between atoms: C_10  and  C_11 
REMARK    6  A    between atoms: C_11  and  C_12 
REMARK    7  A    between atoms: C_11  and  N_24 
REMARK       I    between atoms: C_12  and  N_13 
REMARK    8  A    between atoms: N_13  and  C_17 
REMARK    9  A    between atoms: C_16  and  C_17 
REMARK   10  A    between atoms: C_17  and  C_18 
REMARK   11  A    between atoms: C_18  and  O_19 
ROOT
HETATM    1  C           1       0.879   0.300   0.217  0.00  0.00     0.278 C 
ENDROOT
BRANCH   1   2
HETATM    2  C           1      -0.570   0.754   0.094  0.00  0.00     0.081 C 
BRANCH   2   3
HETATM    3  C           1      -1.480  -0.395   0.398  0.00  0.00    -0.056 A 
HETATM    4  C           1      -0.946  -1.640   0.731  0.00  0.00     0.010 A 
HETATM    5  C           1      -1.794  -2.710   1.015  0.00  0.00     0.038 A 
HETATM    6  C           1      -3.177  -2.535   0.966  0.00  0.00     0.081 A 
HETATM    7  C           1      -3.712  -1.291   0.634  0.00  0.00     0.038 A 
HETATM    8  C           1      -2.863  -0.220   0.350  0.00  0.00     0.010 A 
BRANCH   6   9
HETATM    9  O           1      -4.001  -3.575   1.242  0.00  0.00    -0.247 OA
BRANCH   9  10
HETATM   10  P           1      -5.594  -3.319   1.171  0.00  0.00     0.411 P 
HETATM   11  O           1      -6.310  -4.571   1.503  0.00  0.00    -0.624 OA
HETATM   12  O           1      -5.968  -2.265   2.140  0.00  0.00    -0.624 OA
BRANCH  10  13
HETATM   13  O           1      -5.999  -2.847  -0.320  0.00  0.00    -0.300 OA
HETATM   14  H           1      -6.931  -2.717  -0.289  0.00  0.00     0.223 HD
ENDBRANCH  10  13
ENDBRANCH   9  10
ENDBRANCH   6   9
ENDBRANCH   2   3
ENDBRANCH   1   2
BRANCH   1  15
HETATM   15  C           1       1.739   1.100  -0.731  0.00  0.00     0.249 C 
HETATM   16  N           1       3.086   0.866  -0.796  0.00  0.00    -0.343 N 
HETATM   17  H           1       3.505   0.157  -0.208  0.00  0.00     0.163 HD
HETATM   18  O           1       1.239   1.946  -1.433  0.00  0.00    -0.271 OA
BRANCH  16  19
HETATM   19  C           1       3.913   1.634  -1.707  0.00  0.00     0.209 C 
BRANCH  19  20
HETATM   20  C           1       5.348   1.184  -1.583  0.00  0.00     0.198 C 
HETATM   21  O           1       6.231   2.000  -1.238  0.00  0.00    -0.646 OA
HETATM   22  O           1       5.654  -0.003  -1.825  0.00  0.00    -0.646 OA
ENDBRANCH  19  20
BRANCH  19  23
HETATM   23  C           1       3.813   3.113  -1.359  0.00  0.00     0.200 C 
BRANCH  23  24
HETATM   24  O           1       3.310   3.820  -2.460  0.00  0.00    -0.398 OA
HETATM   25  H           1       3.263   4.726  -2.206  0.00  0.00     0.209 HD
ENDBRANCH  23  24
ENDBRANCH  19  23
ENDBRANCH  16  19
ENDBRANCH   1  15
BRANCH   1  26
HETATM   26  N           1       1.352   0.517   1.623  0.00  0.00    -0.066 N 
HETATM   27  H           1       0.757  -0.036   2.281  0.00  0.00     0.275 HD
HETATM   28  H           1       2.346   0.205   1.708  0.00  0.00     0.275 HD
HETATM   29  H           1       1.283   1.532   1.862  0.00  0.00     0.275 HD
ENDBRANCH   1  26
TORSDOF 11
