REMARK  11 active torsions:
REMARK  status: ('A' for Active; 'I' for Inactive)
REMARK    1  A    between atoms: S_2  and  C_3 
REMARK    2  A    between atoms: C_3  and  C_4 
REMARK    3  A    between atoms: C_4  and  C_5 
REMARK    4  A    between atoms: C_5  and  C_6 
REMARK    5  A    between atoms: C_5  and  N_9 
REMARK       I    between atoms: N_9  and  C_10 
REMARK    6  A    between atoms: C_10  and  C_11 
REMARK    7  A    between atoms: C_11  and  C_12 
REMARK    8  A    between atoms: C_11  and  N_18 
REMARK    9  A    between atoms: C_12  and  O_13 
REMARK   10  A    between atoms: O_13  and  P_14 
REMARK   11  A    between atoms: P_14  and  O_15 
ROOT
HETATM    1  N           1      -0.581  -0.072   0.311  0.00  0.00    -0.345 N 
HETATM    2  C           1       0.166  -0.781  -0.590  0.00  0.00     0.251 C 
HETATM    3  O           1       1.347  -0.944  -0.400  0.00  0.00    -0.271 OA
HETATM    4  H           1      -1.571   0.065   0.152  0.00  0.00     0.163 HD
ENDROOT
BRANCH   2   5
HETATM    5  C           1      -0.488  -1.360  -1.821  0.00  0.00     0.298 C 
BRANCH   5   6
HETATM    6  C           1       0.555  -2.097  -2.652  0.00  0.00     0.224 C 
BRANCH   6   7
HETATM    7  O           1       1.565  -1.203  -3.036  0.00  0.00    -0.287 OA
BRANCH   7   8
HETATM    8  P           1       2.759  -1.824  -3.928  0.00  0.00     0.406 P 
HETATM    9  O           1       3.738  -0.761  -4.249  0.00  0.00    -0.624 OA
HETATM   10  O           1       2.201  -2.377  -5.182  0.00  0.00    -0.624 OA
BRANCH   8  11
HETATM   11  O           1       3.494  -3.001  -3.101  0.00  0.00    -0.300 OA
HETATM   12  H           1       4.172  -3.315  -3.675  0.00  0.00     0.223 HD
ENDBRANCH   8  11
ENDBRANCH   7   8
ENDBRANCH   6   7
ENDBRANCH   5   6
BRANCH   5  13
HETATM   13  N           1      -1.084  -0.252  -2.638  0.00  0.00    -0.064 N 
HETATM   14  H           1      -1.537  -0.652  -3.491  0.00  0.00     0.275 HD
HETATM   15  H           1      -1.800   0.253  -2.068  0.00  0.00     0.275 HD
HETATM   16  H           1      -0.332   0.414  -2.923  0.00  0.00     0.275 HD
ENDBRANCH   5  13
ENDBRANCH   2   5
BRANCH   1  17
HETATM   17  C           1       0.046   0.485   1.494  0.00  0.00     0.186 C 
BRANCH  17  18
HETATM   18  C           1      -0.998   1.221   2.323  0.00  0.00     0.046 C 
BRANCH  18  19
HETATM   19  C           1      -0.340   1.805   3.566  0.00  0.00     0.076 C 
BRANCH  19  20
HETATM   20  S           1      -0.539   3.609   3.566  0.00  0.00    -0.173 SA
HETATM   21  C           1      -2.354   3.609   3.566  0.00  0.00     0.089 C 
ENDBRANCH  19  20
ENDBRANCH  18  19
ENDBRANCH  17  18
BRANCH  17  22
HETATM   22  C           1       0.647  -0.630   2.315  0.00  0.00     0.196 C 
HETATM   23  O           1       1.531  -1.363   1.821  0.00  0.00    -0.646 OA
HETATM   24  O           1       0.262  -0.819   3.489  0.00  0.00    -0.646 OA
ENDBRANCH  17  22
ENDBRANCH   1  17
TORSDOF 11
