REMARK  8 active torsions:
REMARK  status: ('A' for Active; 'I' for Inactive)
REMARK    1  A    between atoms: C_2  and  C_3 
REMARK    2  A    between atoms: C_2  and  N_6 
REMARK       I    between atoms: N_6  and  C_7 
REMARK    3  A    between atoms: C_7  and  C_8 
REMARK    4  A    between atoms: C_8  and  C_9 
REMARK    5  A    between atoms: C_8  and  N_15 
REMARK    6  A    between atoms: C_9  and  O_10 
REMARK    7  A    between atoms: O_10  and  P_11 
REMARK    8  A    between atoms: P_11  and  O_12 
ROOT
HETATM    1  C           1       0.172  -0.469   1.294  0.00  0.00     0.298 C 
ENDROOT
BRANCH   1   2
HETATM    2  C           1      -0.330   0.242   0.061  0.00  0.00     0.251 C 
HETATM    3  N           1      -1.676   0.367  -0.156  0.00  0.00    -0.345 N 
HETATM    4  H           1      -2.334  -0.017   0.510  0.00  0.00     0.163 HD
HETATM    5  O           1       0.455   0.700  -0.734  0.00  0.00    -0.271 OA
BRANCH   3   6
HETATM    6  C           1      -2.159   1.050  -1.341  0.00  0.00     0.181 C 
HETATM    7  C           1      -3.682   1.050  -1.341  0.00  0.00     0.043 C 
BRANCH   6   8
HETATM    8  C           1      -1.655   2.472  -1.341  0.00  0.00     0.196 C 
HETATM    9  O           1      -0.426   2.700  -1.341  0.00  0.00    -0.646 OA
HETATM   10  O           1      -2.467   3.423  -1.341  0.00  0.00    -0.646 OA
ENDBRANCH   6   8
ENDBRANCH   3   6
ENDBRANCH   1   2
BRANCH   1  11
HETATM   11  C           1       1.695  -0.470   1.295  0.00  0.00     0.224 C 
BRANCH  11  12
HETATM   12  O           1       2.164  -1.131   0.152  0.00  0.00    -0.287 OA
BRANCH  12  13
HETATM   13  P           1       3.768  -1.224  -0.005  0.00  0.00     0.406 P 
HETATM   14  O           1       4.101  -1.945  -1.254  0.00  0.00    -0.624 OA
HETATM   15  O           1       4.336  -1.951   1.152  0.00  0.00    -0.624 OA
BRANCH  13  16
HETATM   16  O           1       4.391   0.265  -0.063  0.00  0.00    -0.300 OA
HETATM   17  H           1       5.320   0.138  -0.154  0.00  0.00     0.223 HD
ENDBRANCH  13  16
ENDBRANCH  12  13
ENDBRANCH  11  12
ENDBRANCH   1  11
BRANCH   1  18
HETATM   18  N           1      -0.328  -1.883   1.294  0.00  0.00    -0.064 N 
HETATM   19  H           1       0.019  -2.376   2.147  0.00  0.00     0.275 HD
HETATM   20  H           1      -1.373  -1.883   1.293  0.00  0.00     0.275 HD
HETATM   21  H           1       0.021  -2.376   0.441  0.00  0.00     0.275 HD
ENDBRANCH   1  18
TORSDOF 8
