REMARK  10 active torsions:
REMARK  status: ('A' for Active; 'I' for Inactive)
REMARK    1  A    between atoms: N_2  and  C_9 
REMARK    2  A    between atoms: O_5  and  P_6 
REMARK    3  A    between atoms: P_6  and  O_7 
REMARK    4  A    between atoms: O_7  and  C_8 
REMARK    5  A    between atoms: C_8  and  C_9 
REMARK    6  A    between atoms: C_9  and  C_10 
REMARK       I    between atoms: C_10  and  N_11 
REMARK    7  A    between atoms: N_11  and  C_15 
REMARK    8  A    between atoms: C_14  and  C_15 
REMARK    9  A    between atoms: C_15  and  C_17 
REMARK   10  A    between atoms: C_17  and  C_18 
ROOT
HETATM    1  C           1      -0.664  -0.784  -1.606  0.00  0.00     0.298 C 
ENDROOT
BRANCH   1   2
HETATM    2  N           1      -1.830  -1.255  -0.789  0.00  0.00    -0.064 N 
HETATM    3  H           1      -2.412  -1.912  -1.356  0.00  0.00     0.275 HD
HETATM    4  H           1      -1.481  -1.747   0.065  0.00  0.00     0.275 HD
HETATM    5  H           1      -2.411  -0.433  -0.505  0.00  0.00     0.275 HD
ENDBRANCH   1   2
BRANCH   1   6
HETATM    6  C           1      -1.173  -0.067  -2.850  0.00  0.00     0.224 C 
BRANCH   6   7
HETATM    7  O           1      -1.953   1.034  -2.469  0.00  0.00    -0.287 OA
BRANCH   7   8
HETATM    8  P           1      -2.576   1.911  -3.674  0.00  0.00     0.406 P 
HETATM    9  O           1      -1.479   2.452  -4.508  0.00  0.00    -0.624 OA
HETATM   10  O           1      -3.367   3.028  -3.112  0.00  0.00    -0.624 OA
BRANCH   8  11
HETATM   11  O           1      -3.532   0.978  -4.582  0.00  0.00    -0.300 OA
HETATM   12  H           1      -3.857   1.547  -5.258  0.00  0.00     0.223 HD
ENDBRANCH   8  11
ENDBRANCH   7   8
ENDBRANCH   6   7
ENDBRANCH   1   6
BRANCH   1  13
HETATM   13  C           1       0.174   0.165  -0.786  0.00  0.00     0.251 C 
HETATM   14  O           1       0.344   1.300  -1.162  0.00  0.00    -0.271 OA
HETATM   15  N           1       0.742  -0.260   0.385  0.00  0.00    -0.344 N 
HETATM   16  H           1       0.599  -1.211   0.701  0.00  0.00     0.163 HD
BRANCH  15  17
HETATM   17  C           1       1.547   0.652   1.174  0.00  0.00     0.189 C 
BRANCH  17  18
HETATM   18  C           1       2.720   1.126   0.351  0.00  0.00     0.197 C 
HETATM   19  O           1       3.887   0.902   0.739  0.00  0.00    -0.646 OA
HETATM   20  O           1       2.524   1.743  -0.718  0.00  0.00    -0.646 OA
ENDBRANCH  17  18
BRANCH  17  21
HETATM   21  C           1       2.056  -0.066   2.417  0.00  0.00     0.014 C 
HETATM   22  C           1       1.549   0.653   3.660  0.00  0.00     0.012 C 
BRANCH  21  23
HETATM   23  C           1       1.547  -1.501   2.417  0.00  0.00     0.002 C 
HETATM   24  C           1       0.024  -1.501   2.417  0.00  0.00     0.005 C 
ENDBRANCH  21  23
ENDBRANCH  17  21
ENDBRANCH  15  17
ENDBRANCH   1  13
TORSDOF 10
