REMARK  12 active torsions:
REMARK  status: ('A' for Active; 'I' for Inactive)
REMARK       I    between atoms: N_1  and  C_2 
REMARK       I    between atoms: C_2  and  N_3 
REMARK    1  A    between atoms: N_4  and  C_5 
REMARK    2  A    between atoms: C_5  and  C_6 
REMARK    3  A    between atoms: C_6  and  C_7 
REMARK    4  A    between atoms: C_7  and  C_8 
REMARK    5  A    between atoms: C_8  and  C_9 
REMARK    6  A    between atoms: C_8  and  N_12 
REMARK       I    between atoms: N_12  and  C_13 
REMARK    7  A    between atoms: C_13  and  C_14 
REMARK    8  A    between atoms: C_14  and  C_15 
REMARK    9  A    between atoms: C_14  and  N_21 
REMARK   10  A    between atoms: C_15  and  O_16 
REMARK   11  A    between atoms: O_16  and  P_17 
REMARK   12  A    between atoms: P_17  and  O_18 
ROOT
HETATM    1  C           1       1.862   0.269   0.463  0.00  0.00     0.185 C 
ENDROOT
BRANCH   1   2
HETATM    2  C           1       2.707  -0.928   0.878  0.00  0.00     0.038 C 
BRANCH   2   3
HETATM    3  C           1       1.861  -1.885   1.708  0.00  0.00     0.023 C 
BRANCH   3   4
HETATM    4  C           1       1.353  -1.167   2.951  0.00  0.00     0.138 C 
BRANCH   4   5
HETATM    5  N           1      -0.117  -1.167   2.951  0.00  0.00    -0.227 N 
HETATM    6  C           1      -0.750  -2.263   2.951  0.00  0.00     0.665 C 
HETATM    7  N           1      -2.050  -2.263   2.951  0.00  0.00    -0.235 N 
HETATM    8  N           1      -0.117  -3.360   2.951  0.00  0.00    -0.235 N 
HETATM    9  H           1      -2.573  -1.358   2.951  0.00  0.00     0.174 HD
HETATM   10  H           1      -2.573  -3.168   2.951  0.00  0.00     0.174 HD
HETATM   11  H           1       0.933  -3.360   2.951  0.00  0.00     0.174 HD
HETATM   12  H           1      -0.642  -4.269   2.951  0.00  0.00     0.174 HD
HETATM   13  H           1      -0.642  -0.258   2.951  0.00  0.00     0.177 HD
ENDBRANCH   4   5
ENDBRANCH   3   4
ENDBRANCH   2   3
ENDBRANCH   1   2
BRANCH   1  14
HETATM   14  C           1       2.744   1.485   0.325  0.00  0.00     0.196 C 
HETATM   15  O           1       2.248   2.583  -0.010  0.00  0.00    -0.646 OA
HETATM   16  O           1       3.971   1.396   0.547  0.00  0.00    -0.646 OA
ENDBRANCH   1  14
BRANCH   1  17
HETATM   17  N           1       1.223  -0.010  -0.809  0.00  0.00    -0.345 N 
HETATM   18  C           1       0.408   0.927  -1.385  0.00  0.00     0.251 C 
HETATM   19  O           1       0.221   1.986  -0.834  0.00  0.00    -0.271 OA
HETATM   20  H           1       1.379  -0.897  -1.270  0.00  0.00     0.163 HD
BRANCH  18  21
HETATM   21  C           1      -0.257   0.637  -2.708  0.00  0.00     0.298 C 
BRANCH  21  22
HETATM   22  C           1      -1.103   1.833  -3.125  0.00  0.00     0.224 C 
BRANCH  22  23
HETATM   23  O           1      -2.084   2.074  -2.153  0.00  0.00    -0.287 OA
BRANCH  23  24
HETATM   24  P           1      -3.075   3.317  -2.440  0.00  0.00     0.406 P 
HETATM   25  O           1      -4.045   3.440  -1.329  0.00  0.00    -0.624 OA
HETATM   26  O           1      -3.802   3.085  -3.708  0.00  0.00    -0.624 OA
BRANCH  24  27
HETATM   27  O           1      -2.213   4.678  -2.554  0.00  0.00    -0.300 OA
HETATM   28  H           1      -2.847   5.354  -2.720  0.00  0.00     0.223 HD
ENDBRANCH  24  27
ENDBRANCH  23  24
ENDBRANCH  22  23
ENDBRANCH  21  22
BRANCH  21  29
HETATM   29  N           1      -1.135  -0.572  -2.571  0.00  0.00    -0.064 N 
HETATM   30  H           1      -1.596  -0.774  -3.487  0.00  0.00     0.275 HD
HETATM   31  H           1      -0.554  -1.393  -2.286  0.00  0.00     0.275 HD
HETATM   32  H           1      -1.865  -0.392  -1.846  0.00  0.00     0.275 HD
ENDBRANCH  21  29
ENDBRANCH  18  21
ENDBRANCH   1  17
TORSDOF 12
