REMARK  14 active torsions:
REMARK  status: ('A' for Active; 'I' for Inactive)
REMARK    1  A    between atoms: N_5  and  C_18 
REMARK    2  A    between atoms: O_10  and  P_11 
REMARK    3  A    between atoms: P_11  and  O_12 
REMARK    4  A    between atoms: O_12  and  C_13 
REMARK    5  A    between atoms: C_16  and  C_17 
REMARK    6  A    between atoms: C_17  and  C_18 
REMARK    7  A    between atoms: C_18  and  C_19 
REMARK       I    between atoms: C_19  and  N_20 
REMARK    8  A    between atoms: N_20  and  C_24 
REMARK    9  A    between atoms: C_23  and  C_24 
REMARK   10  A    between atoms: C_24  and  C_25 
REMARK   11  A    between atoms: C_25  and  C_26 
REMARK   12  A    between atoms: C_26  and  C_27 
REMARK   13  A    between atoms: C_27  and  C_28 
REMARK   14  A    between atoms: C_28  and  N_29 
ROOT
HETATM    1  C           1      -0.138  -0.848  -0.174  0.00  0.00     0.278 C 
ENDROOT
BRANCH   1   2
HETATM    2  N           1       0.336  -0.632   1.233  0.00  0.00    -0.066 N 
HETATM    3  H           1      -0.259  -1.185   1.890  0.00  0.00     0.275 HD
HETATM    4  H           1       1.329  -0.943   1.317  0.00  0.00     0.275 HD
HETATM    5  H           1       0.266   0.383   1.471  0.00  0.00     0.275 HD
ENDBRANCH   1   2
BRANCH   1   6
HETATM    6  C           1      -1.586  -0.395  -0.297  0.00  0.00     0.081 C 
BRANCH   6   7
HETATM    7  C           1      -2.497  -1.544   0.008  0.00  0.00    -0.056 A 
HETATM    8  C           1      -3.880  -1.369  -0.041  0.00  0.00     0.010 A 
HETATM    9  C           1      -4.728  -2.439   0.243  0.00  0.00     0.038 A 
HETATM   10  C           1      -4.194  -3.684   0.575  0.00  0.00     0.081 A 
HETATM   11  C           1      -2.811  -3.859   0.624  0.00  0.00     0.038 A 
HETATM   12  C           1      -1.962  -2.788   0.340  0.00  0.00     0.010 A 
BRANCH  10  13
HETATM   13  O           1      -5.018  -4.724   0.851  0.00  0.00    -0.247 OA
BRANCH  13  14
HETATM   14  P           1      -6.611  -4.468   0.780  0.00  0.00     0.411 P 
HETATM   15  O           1      -6.984  -3.413   1.750  0.00  0.00    -0.624 OA
HETATM   16  O           1      -7.326  -5.720   1.112  0.00  0.00    -0.624 OA
BRANCH  14  17
HETATM   17  O           1      -7.015  -3.996  -0.710  0.00  0.00    -0.300 OA
HETATM   18  H           1      -7.948  -3.866  -0.680  0.00  0.00     0.223 HD
ENDBRANCH  14  17
ENDBRANCH  13  14
ENDBRANCH  10  13
ENDBRANCH   6   7
ENDBRANCH   1   6
BRANCH   1  19
HETATM   19  C           1       0.723  -0.049  -1.122  0.00  0.00     0.249 C 
HETATM   20  O           1       0.222   0.798  -1.824  0.00  0.00    -0.271 OA
HETATM   21  N           1       2.070  -0.283  -1.187  0.00  0.00    -0.345 N 
HETATM   22  H           1       2.489  -0.992  -0.599  0.00  0.00     0.163 HD
BRANCH  21  23
HETATM   23  C           1       2.896   0.485  -2.097  0.00  0.00     0.185 C 
BRANCH  23  24
HETATM   24  C           1       4.331   0.036  -1.974  0.00  0.00     0.196 C 
HETATM   25  O           1       5.214   0.851  -1.629  0.00  0.00    -0.646 OA
HETATM   26  O           1       4.638  -1.152  -2.216  0.00  0.00    -0.646 OA
ENDBRANCH  23  24
BRANCH  23  27
HETATM   27  C           1       2.797   1.964  -1.749  0.00  0.00     0.036 C 
BRANCH  27  28
HETATM   28  C           1       3.277   2.184  -0.321  0.00  0.00     0.004 C 
BRANCH  28  29
HETATM   29  C           1       3.177   3.664   0.027  0.00  0.00     0.027 C 
BRANCH  29  30
HETATM   30  C           1       3.658   3.883   1.456  0.00  0.00     0.229 C 
BRANCH  30  31
HETATM   31  N           1       3.560   5.340   1.798  0.00  0.00    -0.079 N 
HETATM   32  H           1       2.566   5.652   1.713  0.00  0.00     0.274 HD
HETATM   33  H           1       4.156   5.893   1.142  0.00  0.00     0.274 HD
HETATM   34  H           1       3.889   5.491   2.778  0.00  0.00     0.274 HD
ENDBRANCH  30  31
ENDBRANCH  29  30
ENDBRANCH  28  29
ENDBRANCH  27  28
ENDBRANCH  23  27
ENDBRANCH  21  23
ENDBRANCH   1  19
TORSDOF 14
