REMARK  7 active torsions:
REMARK  status: ('A' for Active; 'I' for Inactive)
REMARK    1  A    between atoms: C_10  and  C_12 
REMARK       I    between atoms: N_13  and  C_14 
REMARK    2  A    between atoms: C_14  and  C_15 
REMARK    3  A    between atoms: C_15  and  C_16 
REMARK    4  A    between atoms: C_15  and  N_22 
REMARK    5  A    between atoms: C_16  and  O_17 
REMARK    6  A    between atoms: O_17  and  P_18 
REMARK    7  A    between atoms: P_18  and  O_20 
ROOT
HETATM    1  C           1       1.436  -0.027   0.181  0.00  0.00     0.298 C 
ENDROOT
BRANCH   1   2
HETATM    2  C           1      -0.008   0.218   0.544  0.00  0.00     0.253 C 
HETATM    3  O           1      -0.364   1.317   0.898  0.00  0.00    -0.271 OA
HETATM    4  N           1      -0.915  -0.805   0.471  0.00  0.00    -0.336 N 
HETATM    5  C           1      -0.668  -2.186   0.067  0.00  0.00     0.127 C 
HETATM    6  C           1      -2.341  -0.753   0.781  0.00  0.00     0.188 C 
HETATM    7  C           1      -1.880  -2.540  -0.777  0.00  0.00     0.022 C 
HETATM    8  C           1      -2.980  -1.594  -0.310  0.00  0.00     0.038 C 
BRANCH   6   9
HETATM    9  C           1      -2.617  -1.341   2.143  0.00  0.00     0.196 C 
HETATM   10  O           1      -3.787  -1.382   2.581  0.00  0.00    -0.646 OA
HETATM   11  O           1      -1.675  -1.787   2.834  0.00  0.00    -0.646 OA
ENDBRANCH   6   9
ENDBRANCH   1   2
BRANCH   1  12
HETATM   12  C           1       2.227   1.264   0.345  0.00  0.00     0.224 C 
BRANCH  12  13
HETATM   13  O           1       1.695   2.250  -0.497  0.00  0.00    -0.287 OA
BRANCH  13  14
HETATM   14  P           1       2.422   3.691  -0.447  0.00  0.00     0.406 P 
HETATM   15  O           1       3.842   3.542  -0.836  0.00  0.00    -0.624 OA
HETATM   16  O           1       2.341   4.237   0.926  0.00  0.00    -0.624 OA
BRANCH  14  17
HETATM   17  O           1       1.687   4.700  -1.472  0.00  0.00    -0.300 OA
HETATM   18  H           1       2.157   5.513  -1.393  0.00  0.00     0.223 HD
ENDBRANCH  14  17
ENDBRANCH  13  14
ENDBRANCH  12  13
ENDBRANCH   1  12
BRANCH   1  19
HETATM   19  N           1       1.521  -0.486  -1.245  0.00  0.00    -0.064 N 
HETATM   20  H           1       2.521  -0.656  -1.497  0.00  0.00     0.275 HD
HETATM   21  H           1       0.979  -1.372  -1.358  0.00  0.00     0.275 HD
HETATM   22  H           1       1.124   0.249  -1.872  0.00  0.00     0.275 HD
ENDBRANCH   1  19
TORSDOF 7
