REMARK  10 active torsions:
REMARK  status: ('A' for Active; 'I' for Inactive)
REMARK    1  A    between atoms: C_1  and  C_2 
REMARK    2  A    between atoms: C_1  and  C_23 
REMARK    3  A    between atoms: C_1  and  N_20 
REMARK    4  A    between atoms: C_2  and  S_3 
REMARK    5  A    between atoms: N_11  and  C_18 
REMARK    6  A    between atoms: O_14  and  P_15 
REMARK    7  A    between atoms: P_15  and  O_16 
REMARK    8  A    between atoms: O_16  and  C_17 
REMARK    9  A    between atoms: C_17  and  C_18 
REMARK   10  A    between atoms: C_18  and  C_19 
REMARK       I    between atoms: C_19  and  N_20 
ROOT
HETATM    1  C           1       1.447  -0.116   0.280  0.00  0.00     0.298 C 
ENDROOT
BRANCH   1   2
HETATM    2  N           1       1.946  -0.824  -0.945  0.00  0.00    -0.064 N 
HETATM    3  H           1       1.598  -0.330  -1.798  0.00  0.00     0.275 HD
HETATM    4  H           1       1.597  -1.809  -0.945  0.00  0.00     0.275 HD
HETATM    5  H           1       2.991  -0.825  -0.946  0.00  0.00     0.275 HD
ENDBRANCH   1   2
BRANCH   1   6
HETATM    6  C           1       1.957   1.319   0.280  0.00  0.00     0.224 C 
BRANCH   6   7
HETATM    7  O           1       1.491   1.981  -0.865  0.00  0.00    -0.287 OA
BRANCH   7   8
HETATM    8  P           1       1.942   3.523  -1.024  0.00  0.00     0.406 P 
HETATM    9  O           1       1.446   4.303   0.132  0.00  0.00    -0.624 OA
HETATM   10  O           1       1.375   4.076  -2.274  0.00  0.00    -0.624 OA
BRANCH   8  11
HETATM   11  O           1       3.554   3.611  -1.080  0.00  0.00    -0.300 OA
HETATM   12  H           1       3.745   4.528  -1.172  0.00  0.00     0.223 HD
ENDBRANCH   8  11
ENDBRANCH   7   8
ENDBRANCH   6   7
ENDBRANCH   1   6
BRANCH   1  13
HETATM   13  C           1      -0.062  -0.115   0.279  0.00  0.00     0.251 C 
HETATM   14  O           1      -0.665   0.932   0.278  0.00  0.00    -0.271 OA
HETATM   15  N           1      -0.748  -1.300   0.279  0.00  0.00    -0.344 N 
HETATM   16  H           1      -0.243  -2.177   0.279  0.00  0.00     0.163 HD
BRANCH  15  17
HETATM   17  C           1      -2.198  -1.298   0.278  0.00  0.00     0.194 C 
BRANCH  17  18
HETATM   18  C           1      -2.706  -2.734   0.278  0.00  0.00     0.106 C 
BRANCH  18  19
HETATM   19  S           1      -4.521  -2.734   0.278  0.00  0.00    -0.180 SA
HETATM   20  H           1      -4.662  -4.072   0.278  0.00  0.00     0.101 HD
ENDBRANCH  18  19
ENDBRANCH  17  18
BRANCH  17  21
HETATM   21  C           1      -2.700  -0.586   1.510  0.00  0.00     0.197 C 
HETATM   22  O           1      -3.419  -1.193   2.333  0.00  0.00    -0.646 OA
HETATM   23  O           1      -2.397   0.610   1.707  0.00  0.00    -0.646 OA
ENDBRANCH  17  21
ENDBRANCH  15  17
ENDBRANCH   1  13
TORSDOF 10
