REMARK  11 active torsions:
REMARK  status: ('A' for Active; 'I' for Inactive)
REMARK    1  A    between atoms: C_5  and  O_6 
REMARK    2  A    between atoms: C_5  and  C_7 
REMARK    3  A    between atoms: C_7  and  C_8 
REMARK    4  A    between atoms: C_7  and  N_11 
REMARK       I    between atoms: N_11  and  C_12 
REMARK    5  A    between atoms: C_12  and  C_13 
REMARK    6  A    between atoms: C_13  and  C_14 
REMARK    7  A    between atoms: C_13  and  N_26 
REMARK    8  A    between atoms: C_14  and  C_15 
REMARK    9  A    between atoms: C_18  and  O_19 
REMARK   10  A    between atoms: O_19  and  P_20 
REMARK   11  A    between atoms: P_20  and  O_21 
ROOT
HETATM    1  C           1       0.659   0.054   0.354  0.00  0.00     0.278 C 
ENDROOT
BRANCH   1   2
HETATM    2  C           1       1.519   0.853  -0.594  0.00  0.00     0.249 C 
HETATM    3  N           1       2.866   0.619  -0.659  0.00  0.00    -0.343 N 
HETATM    4  H           1       3.285  -0.090  -0.071  0.00  0.00     0.163 HD
HETATM    5  O           1       1.019   1.700  -1.296  0.00  0.00    -0.271 OA
BRANCH   3   6
HETATM    6  C           1       3.693   1.387  -1.570  0.00  0.00     0.214 C 
BRANCH   6   7
HETATM    7  C           1       3.593   2.866  -1.222  0.00  0.00     0.147 C 
HETATM    8  C           1       3.046   3.634  -2.418  0.00  0.00     0.042 C 
BRANCH   7   9
HETATM    9  O           1       2.732   3.032  -0.128  0.00  0.00    -0.393 OA
HETATM   10  H           1       3.102   2.544   0.588  0.00  0.00     0.210 HD
ENDBRANCH   7   9
ENDBRANCH   6   7
BRANCH   6  11
HETATM   11  C           1       5.128   0.938  -1.446  0.00  0.00     0.199 C 
HETATM   12  O           1       5.434  -0.250  -1.688  0.00  0.00    -0.646 OA
HETATM   13  O           1       6.011   1.753  -1.101  0.00  0.00    -0.646 OA
ENDBRANCH   6  11
ENDBRANCH   3   6
ENDBRANCH   1   2
BRANCH   1  14
HETATM   14  C           1      -0.790   0.507   0.231  0.00  0.00     0.081 C 
BRANCH  14  15
HETATM   15  C           1      -1.700  -0.642   0.535  0.00  0.00    -0.056 A 
HETATM   16  C           1      -1.166  -1.886   0.868  0.00  0.00     0.010 A 
HETATM   17  C           1      -2.014  -2.957   1.152  0.00  0.00     0.038 A 
HETATM   18  C           1      -3.397  -2.782   1.103  0.00  0.00     0.081 A 
HETATM   19  C           1      -3.932  -1.537   0.771  0.00  0.00     0.038 A 
HETATM   20  C           1      -3.083  -0.467   0.487  0.00  0.00     0.010 A 
BRANCH  18  21
HETATM   21  O           1      -4.221  -3.822   1.379  0.00  0.00    -0.247 OA
BRANCH  21  22
HETATM   22  P           1      -5.814  -3.566   1.308  0.00  0.00     0.411 P 
HETATM   23  O           1      -6.529  -4.818   1.640  0.00  0.00    -0.624 OA
HETATM   24  O           1      -6.188  -2.511   2.277  0.00  0.00    -0.624 OA
BRANCH  22  25
HETATM   25  O           1      -6.219  -3.094  -0.183  0.00  0.00    -0.300 OA
HETATM   26  H           1      -7.151  -2.964  -0.152  0.00  0.00     0.223 HD
ENDBRANCH  22  25
ENDBRANCH  21  22
ENDBRANCH  18  21
ENDBRANCH  14  15
ENDBRANCH   1  14
BRANCH   1  27
HETATM   27  N           1       1.132   0.270   1.760  0.00  0.00    -0.066 N 
HETATM   28  H           1       1.063   1.285   1.999  0.00  0.00     0.275 HD
HETATM   29  H           1       2.126  -0.041   1.845  0.00  0.00     0.275 HD
HETATM   30  H           1       0.537  -0.283   2.418  0.00  0.00     0.275 HD
ENDBRANCH   1  27
TORSDOF 11
