REMARK  13 active torsions:
REMARK  status: ('A' for Active; 'I' for Inactive)
REMARK    1  A    between atoms: N_6  and  C_7 
REMARK    2  A    between atoms: C_7  and  C_8 
REMARK    3  A    between atoms: C_8  and  C_9 
REMARK    4  A    between atoms: C_9  and  C_10 
REMARK    5  A    between atoms: C_10  and  C_11 
REMARK    6  A    between atoms: C_11  and  C_12 
REMARK    7  A    between atoms: C_11  and  N_15 
REMARK       I    between atoms: N_15  and  C_16 
REMARK    8  A    between atoms: C_16  and  C_17 
REMARK    9  A    between atoms: C_17  and  C_18 
REMARK   10  A    between atoms: C_17  and  N_24 
REMARK   11  A    between atoms: C_18  and  O_19 
REMARK   12  A    between atoms: O_19  and  P_20 
REMARK   13  A    between atoms: P_20  and  O_21 
ROOT
HETATM    1  O           1      -0.396   2.082   0.109  0.00  0.00    -0.271 OA
HETATM    2  N           1      -0.315  -0.150   0.109  0.00  0.00    -0.345 N 
HETATM    3  C           1      -1.000   1.035   0.109  0.00  0.00     0.251 C 
HETATM    4  H           1      -0.821  -1.027   0.109  0.00  0.00     0.163 HD
ENDROOT
BRANCH   2   5
HETATM    5  C           1       1.135  -0.150   0.109  0.00  0.00     0.185 C 
BRANCH   5   6
HETATM    6  C           1       1.642  -1.586   0.109  0.00  0.00     0.036 C 
BRANCH   6   7
HETATM    7  C           1       3.165  -1.588   0.108  0.00  0.00     0.004 C 
BRANCH   7   8
HETATM    8  C           1       3.672  -2.307  -1.135  0.00  0.00     0.027 C 
BRANCH   8   9
HETATM    9  C           1       3.163  -3.742  -1.135  0.00  0.00     0.229 C 
BRANCH   9  10
HETATM   10  N           1       1.663  -3.742  -1.135  0.00  0.00    -0.079 N 
HETATM   11  H           1       1.315  -4.727  -1.135  0.00  0.00     0.274 HD
HETATM   12  H           1       1.316  -3.250  -0.281  0.00  0.00     0.274 HD
HETATM   13  H           1       1.315  -3.250  -1.988  0.00  0.00     0.274 HD
ENDBRANCH   9  10
ENDBRANCH   8   9
ENDBRANCH   7   8
ENDBRANCH   6   7
ENDBRANCH   5   6
BRANCH   5  14
HETATM   14  C           1       1.637   0.561  -1.123  0.00  0.00     0.196 C 
HETATM   15  O           1       1.335   1.758  -1.321  0.00  0.00    -0.646 OA
HETATM   16  O           1       2.355  -0.047  -1.947  0.00  0.00    -0.646 OA
ENDBRANCH   5  14
ENDBRANCH   2   5
BRANCH   3  17
HETATM   17  C           1      -2.509   1.035   0.109  0.00  0.00     0.298 C 
BRANCH  17  18
HETATM   18  C           1      -3.017   2.471   0.108  0.00  0.00     0.224 C 
BRANCH  18  19
HETATM   19  O           1      -2.550   3.133   1.253  0.00  0.00    -0.287 OA
BRANCH  19  20
HETATM   20  P           1      -3.000   4.676   1.411  0.00  0.00     0.406 P 
HETATM   21  O           1      -2.431   5.229   2.660  0.00  0.00    -0.624 OA
HETATM   22  O           1      -2.504   5.455   0.254  0.00  0.00    -0.624 OA
BRANCH  20  23
HETATM   23  O           1      -4.611   4.765   1.468  0.00  0.00    -0.300 OA
HETATM   24  H           1      -4.802   5.683   1.560  0.00  0.00     0.223 HD
ENDBRANCH  20  23
ENDBRANCH  19  20
ENDBRANCH  18  19
ENDBRANCH  17  18
BRANCH  17  25
HETATM   25  N           1      -3.008   0.329   1.334  0.00  0.00    -0.064 N 
HETATM   26  H           1      -2.659  -0.656   1.334  0.00  0.00     0.275 HD
HETATM   27  H           1      -2.659   0.823   2.187  0.00  0.00     0.275 HD
HETATM   28  H           1      -4.053   0.329   1.335  0.00  0.00     0.275 HD
ENDBRANCH  17  25
ENDBRANCH   3  17
TORSDOF 13
