REMARK  11 active torsions:
REMARK  status: ('A' for Active; 'I' for Inactive)
REMARK    1  A    between atoms: S_1  and  C_2 
REMARK    2  A    between atoms: C_2  and  C_3 
REMARK    3  A    between atoms: C_3  and  C_4 
REMARK    4  A    between atoms: C_3  and  N_7 
REMARK       I    between atoms: N_7  and  C_8 
REMARK    5  A    between atoms: C_8  and  C_9 
REMARK    6  A    between atoms: C_9  and  C_10 
REMARK    7  A    between atoms: C_9  and  N_22 
REMARK    8  A    between atoms: C_10  and  C_11 
REMARK    9  A    between atoms: C_14  and  O_15 
REMARK   10  A    between atoms: O_15  and  P_16 
REMARK   11  A    between atoms: P_16  and  O_17 
ROOT
HETATM    1  C           1       0.885   0.282   0.225  0.00  0.00     0.278 C 
ENDROOT
BRANCH   1   2
HETATM    2  C           1       1.745   1.081  -0.723  0.00  0.00     0.249 C 
HETATM    3  N           1       3.092   0.847  -0.788  0.00  0.00    -0.344 N 
HETATM    4  H           1       3.511   0.138  -0.200  0.00  0.00     0.163 HD
HETATM    5  O           1       1.244   1.928  -1.425  0.00  0.00    -0.271 OA
BRANCH   3   6
HETATM    6  C           1       3.918   1.615  -1.698  0.00  0.00     0.194 C 
BRANCH   6   7
HETATM    7  C           1       3.819   3.095  -1.351  0.00  0.00     0.106 C 
BRANCH   7   8
HETATM    8  S           1       3.167   4.010  -2.776  0.00  0.00    -0.180 SA
HETATM    9  H           1       3.194   5.220  -2.190  0.00  0.00     0.101 HD
ENDBRANCH   7   8
ENDBRANCH   6   7
BRANCH   6  10
HETATM   10  C           1       5.354   1.166  -1.575  0.00  0.00     0.197 C 
HETATM   11  O           1       5.660  -0.022  -1.817  0.00  0.00    -0.646 OA
HETATM   12  O           1       6.236   1.981  -1.230  0.00  0.00    -0.646 OA
ENDBRANCH   6  10
ENDBRANCH   3   6
ENDBRANCH   1   2
BRANCH   1  13
HETATM   13  C           1      -0.564   0.735   0.102  0.00  0.00     0.081 C 
BRANCH  13  14
HETATM   14  C           1      -1.475  -0.413   0.406  0.00  0.00    -0.056 A 
HETATM   15  C           1      -0.940  -1.658   0.739  0.00  0.00     0.010 A 
HETATM   16  C           1      -1.788  -2.728   1.023  0.00  0.00     0.038 A 
HETATM   17  C           1      -3.171  -2.554   0.974  0.00  0.00     0.081 A 
HETATM   18  C           1      -3.706  -1.309   0.642  0.00  0.00     0.038 A 
HETATM   19  C           1      -2.858  -0.239   0.358  0.00  0.00     0.010 A 
BRANCH  17  20
HETATM   20  O           1      -3.996  -3.593   1.250  0.00  0.00    -0.247 OA
BRANCH  20  21
HETATM   21  P           1      -5.589  -3.337   1.179  0.00  0.00     0.411 P 
HETATM   22  O           1      -6.304  -4.590   1.511  0.00  0.00    -0.624 OA
HETATM   23  O           1      -5.962  -2.283   2.148  0.00  0.00    -0.624 OA
BRANCH  21  24
HETATM   24  O           1      -5.993  -2.866  -0.311  0.00  0.00    -0.300 OA
HETATM   25  H           1      -6.926  -2.736  -0.281  0.00  0.00     0.223 HD
ENDBRANCH  21  24
ENDBRANCH  20  21
ENDBRANCH  17  20
ENDBRANCH  13  14
ENDBRANCH   1  13
BRANCH   1  26
HETATM   26  N           1       1.358   0.498   1.632  0.00  0.00    -0.066 N 
HETATM   27  H           1       0.763  -0.055   2.289  0.00  0.00     0.275 HD
HETATM   28  H           1       2.352   0.187   1.716  0.00  0.00     0.275 HD
HETATM   29  H           1       1.289   1.513   1.870  0.00  0.00     0.275 HD
ENDBRANCH   1  26
TORSDOF 11
