REMARK  12 active torsions:
REMARK  status: ('A' for Active; 'I' for Inactive)
REMARK    1  A    between atoms: C_2  and  C_4 
REMARK    2  A    between atoms: C_4  and  C_5 
REMARK    3  A    between atoms: C_4  and  N_11 
REMARK    4  A    between atoms: C_5  and  O_6 
REMARK    5  A    between atoms: O_6  and  P_7 
REMARK    6  A    between atoms: P_7  and  O_9 
REMARK       I    between atoms: N_11  and  C_12 
REMARK    7  A    between atoms: C_12  and  C_13 
REMARK    8  A    between atoms: C_13  and  C_14 
REMARK    9  A    between atoms: C_13  and  N_20 
REMARK   10  A    between atoms: C_14  and  O_15 
REMARK   11  A    between atoms: O_15  and  P_16 
REMARK   12  A    between atoms: P_16  and  O_17 
ROOT
HETATM    1  N           1       0.153  -1.797   0.526  0.00  0.00    -0.343 N 
HETATM    2  C           1       0.935  -0.694   0.309  0.00  0.00     0.251 C 
HETATM    3  O           1       0.931   0.216   1.104  0.00  0.00    -0.271 OA
HETATM    4  H           1       0.157  -2.559  -0.140  0.00  0.00     0.163 HD
ENDROOT
BRANCH   2   5
HETATM    5  C           1       1.801  -0.614  -0.924  0.00  0.00     0.298 C 
BRANCH   5   6
HETATM    6  C           1       2.564   0.704  -0.925  0.00  0.00     0.224 C 
BRANCH   6   7
HETATM    7  O           1       1.654   1.771  -0.925  0.00  0.00    -0.287 OA
BRANCH   7   8
HETATM    8  P           1       2.298   3.252  -0.926  0.00  0.00     0.406 P 
HETATM    9  O           1       1.215   4.260  -0.924  0.00  0.00    -0.624 OA
HETATM   10  O           1       3.134   3.425  -2.135  0.00  0.00    -0.624 OA
BRANCH   8  11
HETATM   11  O           1       3.213   3.443   0.391  0.00  0.00    -0.300 OA
HETATM   12  H           1       3.554   4.318   0.327  0.00  0.00     0.223 HD
ENDBRANCH   8  11
ENDBRANCH   7   8
ENDBRANCH   6   7
ENDBRANCH   5   6
BRANCH   5  13
HETATM   13  N           1       0.937  -0.693  -2.147  0.00  0.00    -0.064 N 
HETATM   14  H           1       1.537  -0.638  -3.002  0.00  0.00     0.275 HD
HETATM   15  H           1       0.415  -1.598  -2.147  0.00  0.00     0.275 HD
HETATM   16  H           1       0.259   0.102  -2.146  0.00  0.00     0.275 HD
ENDBRANCH   5  13
ENDBRANCH   2   5
BRANCH   1  17
HETATM   17  C           1      -0.679  -1.873   1.711  0.00  0.00     0.210 C 
BRANCH  17  18
HETATM   18  C           1      -1.434  -3.180   1.711  0.00  0.00     0.198 C 
HETATM   19  O           1      -2.684  -3.180   1.711  0.00  0.00    -0.646 OA
HETATM   20  O           1      -0.809  -4.263   1.711  0.00  0.00    -0.646 OA
ENDBRANCH  17  18
BRANCH  17  21
HETATM   21  C           1      -1.668  -0.715   1.711  0.00  0.00     0.217 C 
BRANCH  21  22
HETATM   22  O           1      -2.475  -0.788   0.566  0.00  0.00    -0.287 OA
BRANCH  22  23
HETATM   23  P           1      -3.587   0.372   0.408  0.00  0.00     0.406 P 
HETATM   24  O           1      -2.919   1.692   0.356  0.00  0.00    -0.624 OA
HETATM   25  O           1      -4.509   0.332   1.564  0.00  0.00    -0.624 OA
BRANCH  23  26
HETATM   26  O           1      -4.419   0.137  -0.956  0.00  0.00    -0.300 OA
HETATM   27  H           1      -5.044   0.842  -0.985  0.00  0.00     0.223 HD
ENDBRANCH  23  26
ENDBRANCH  22  23
ENDBRANCH  21  22
ENDBRANCH  17  21
ENDBRANCH   1  17
TORSDOF 12
