REMARK  11 active torsions:
REMARK  status: ('A' for Active; 'I' for Inactive)
REMARK    1  A    between atoms: N_5  and  C_18 
REMARK    2  A    between atoms: O_10  and  P_11 
REMARK    3  A    between atoms: P_11  and  O_12 
REMARK    4  A    between atoms: O_12  and  C_13 
REMARK    5  A    between atoms: C_16  and  C_17 
REMARK    6  A    between atoms: C_17  and  C_18 
REMARK    7  A    between atoms: C_18  and  C_19 
REMARK       I    between atoms: C_19  and  N_20 
REMARK    8  A    between atoms: N_20  and  C_24 
REMARK    9  A    between atoms: C_23  and  C_24 
REMARK   10  A    between atoms: C_24  and  C_25 
REMARK   11  A    between atoms: C_25  and  C_27 
REMARK       I    between atoms: N_26  and  C_27 
ROOT
HETATM    1  C           1       0.678   0.073   0.509  0.00  0.00     0.278 C 
ENDROOT
BRANCH   1   2
HETATM    2  N           1       1.151   0.290   1.916  0.00  0.00    -0.066 N 
HETATM    3  H           1       0.556  -0.263   2.574  0.00  0.00     0.275 HD
HETATM    4  H           1       2.145  -0.022   2.001  0.00  0.00     0.275 HD
HETATM    5  H           1       1.082   1.305   2.155  0.00  0.00     0.275 HD
ENDBRANCH   1   2
BRANCH   1   6
HETATM    6  C           1      -0.771   0.527   0.386  0.00  0.00     0.081 C 
BRANCH   6   7
HETATM    7  C           1      -1.682  -0.622   0.691  0.00  0.00    -0.056 A 
HETATM    8  C           1      -3.065  -0.447   0.643  0.00  0.00     0.010 A 
HETATM    9  C           1      -3.913  -1.518   0.927  0.00  0.00     0.038 A 
HETATM   10  C           1      -3.378  -2.762   1.259  0.00  0.00     0.081 A 
HETATM   11  C           1      -1.995  -2.937   1.308  0.00  0.00     0.038 A 
HETATM   12  C           1      -1.147  -1.867   1.024  0.00  0.00     0.010 A 
BRANCH  10  13
HETATM   13  O           1      -4.202  -3.802   1.535  0.00  0.00    -0.247 OA
BRANCH  13  14
HETATM   14  P           1      -5.796  -3.546   1.464  0.00  0.00     0.411 P 
HETATM   15  O           1      -6.169  -2.492   2.433  0.00  0.00    -0.624 OA
HETATM   16  O           1      -6.511  -4.798   1.796  0.00  0.00    -0.624 OA
BRANCH  14  17
HETATM   17  O           1      -6.200  -3.074  -0.027  0.00  0.00    -0.300 OA
HETATM   18  H           1      -7.133  -2.944   0.004  0.00  0.00     0.223 HD
ENDBRANCH  14  17
ENDBRANCH  13  14
ENDBRANCH  10  13
ENDBRANCH   6   7
ENDBRANCH   1   6
BRANCH   1  19
HETATM   19  C           1       1.538   0.873  -0.438  0.00  0.00     0.249 C 
HETATM   20  O           1       1.037   1.719  -1.140  0.00  0.00    -0.271 OA
HETATM   21  N           1       2.885   0.639  -0.503  0.00  0.00    -0.344 N 
HETATM   22  H           1       3.304  -0.070   0.085  0.00  0.00     0.163 HD
BRANCH  21  23
HETATM   23  C           1       3.711   1.407  -1.414  0.00  0.00     0.194 C 
BRANCH  23  24
HETATM   24  C           1       5.147   0.957  -1.290  0.00  0.00     0.197 C 
HETATM   25  O           1       6.029   1.773  -0.945  0.00  0.00    -0.646 OA
HETATM   26  O           1       5.453  -0.230  -1.533  0.00  0.00    -0.646 OA
ENDBRANCH  23  24
BRANCH  23  27
HETATM   27  C           1       3.612   2.886  -1.066  0.00  0.00     0.138 C 
BRANCH  27  28
HETATM   28  C           1       3.070   3.647  -2.251  0.00  0.00     0.217 C 
HETATM   29  N           1       2.756   2.982  -3.406  0.00  0.00    -0.370 N 
HETATM   30  H           1       2.392   3.492  -4.200  0.00  0.00     0.159 HD
HETATM   31  H           1       2.887   1.980  -3.464  0.00  0.00     0.159 HD
HETATM   32  O           1       2.913   4.843  -2.181  0.00  0.00    -0.274 OA
ENDBRANCH  27  28
ENDBRANCH  23  27
ENDBRANCH  21  23
ENDBRANCH   1  19
TORSDOF 11
