REMARK  11 active torsions:
REMARK  status: ('A' for Active; 'I' for Inactive)
REMARK    1  A    between atoms: C_2  and  O_3 
REMARK    2  A    between atoms: N_11  and  C_18 
REMARK    3  A    between atoms: O_14  and  P_15 
REMARK    4  A    between atoms: P_15  and  O_16 
REMARK    5  A    between atoms: O_16  and  C_17 
REMARK    6  A    between atoms: C_17  and  C_18 
REMARK    7  A    between atoms: C_18  and  C_19 
REMARK       I    between atoms: C_19  and  N_20 
REMARK    8  A    between atoms: N_20  and  C_24 
REMARK    9  A    between atoms: C_23  and  C_24 
REMARK   10  A    between atoms: C_24  and  C_25 
REMARK   11  A    between atoms: C_25  and  C_28 
ROOT
HETATM    1  H           1       0.582  -1.095   1.251  0.00  0.00     0.163 HD
HETATM    2  O           1      -2.069  -0.634  -0.362  0.00  0.00    -0.271 OA
HETATM    3  C           1      -1.323  -0.632   0.588  0.00  0.00     0.251 C 
HETATM    4  N           1      -0.042  -1.097   0.454  0.00  0.00    -0.344 N 
ENDROOT
BRANCH   4   5
HETATM    5  C           1       0.419  -1.592  -0.828  0.00  0.00     0.189 C 
BRANCH   5   6
HETATM    6  C           1      -0.439  -2.757  -1.255  0.00  0.00     0.197 C 
HETATM    7  O           1       0.080  -3.878  -1.447  0.00  0.00    -0.646 OA
HETATM    8  O           1      -1.669  -2.602  -1.416  0.00  0.00    -0.646 OA
ENDBRANCH   5   6
BRANCH   5   9
HETATM    9  C           1       1.868  -2.045  -0.705  0.00  0.00     0.074 C 
BRANCH   9  10
HETATM   10  C           1       2.778  -0.896  -1.010  0.00  0.00    -0.056 A 
HETATM   11  C           1       2.244   0.348  -1.342  0.00  0.00     0.010 A 
HETATM   12  C           1       3.092   1.419  -1.626  0.00  0.00     0.037 A 
HETATM   13  C           1       4.475   1.244  -1.577  0.00  0.00     0.065 A 
HETATM   14  C           1       5.010  -0.001  -1.245  0.00  0.00     0.037 A 
HETATM   15  C           1       4.161  -1.071  -0.961  0.00  0.00     0.010 A 
BRANCH  13  16
HETATM   16  O           1       5.299   2.284  -1.853  0.00  0.00    -0.361 OA
HETATM   17  H           1       4.748   3.057  -2.060  0.00  0.00     0.217 HD
ENDBRANCH  13  16
ENDBRANCH   9  10
ENDBRANCH   5   9
ENDBRANCH   4   5
BRANCH   3  18
HETATM   18  C           1      -1.803  -0.117   1.923  0.00  0.00     0.298 C 
BRANCH  18  19
HETATM   19  N           1      -0.951   1.042   2.347  0.00  0.00    -0.064 N 
HETATM   20  H           1      -1.019   1.804   1.634  0.00  0.00     0.275 HD
HETATM   21  H           1       0.043   0.731   2.431  0.00  0.00     0.275 HD
HETATM   22  H           1      -1.283   1.400   3.271  0.00  0.00     0.275 HD
ENDBRANCH  18  19
BRANCH  18  23
HETATM   23  C           1      -3.252   0.337   1.801  0.00  0.00     0.224 C 
BRANCH  23  24
HETATM   24  O           1      -3.344   1.359   0.846  0.00  0.00    -0.287 OA
BRANCH  24  25
HETATM   25  P           1      -4.821   1.959   0.591  0.00  0.00     0.406 P 
HETATM   26  O           1      -5.347   2.527   1.853  0.00  0.00    -0.624 OA
HETATM   27  O           1      -4.751   3.021  -0.437  0.00  0.00    -0.624 OA
BRANCH  25  28
HETATM   28  O           1      -5.801   0.781   0.082  0.00  0.00    -0.300 OA
HETATM   29  H           1      -6.637   1.197  -0.046  0.00  0.00     0.223 HD
ENDBRANCH  25  28
ENDBRANCH  24  25
ENDBRANCH  23  24
ENDBRANCH  18  23
ENDBRANCH   3  18
TORSDOF 11
