REMARK  9 active torsions:
REMARK  status: ('A' for Active; 'I' for Inactive)
REMARK    1  A    between atoms: C_2  and  C_4 
REMARK    2  A    between atoms: C_4  and  C_5 
REMARK    3  A    between atoms: C_4  and  N_8 
REMARK       I    between atoms: N_8  and  C_9 
REMARK    4  A    between atoms: C_9  and  C_10 
REMARK    5  A    between atoms: C_10  and  C_11 
REMARK    6  A    between atoms: C_10  and  N_17 
REMARK    7  A    between atoms: C_11  and  O_12 
REMARK    8  A    between atoms: O_12  and  P_13 
REMARK    9  A    between atoms: P_13  and  O_14 
ROOT
HETATM    1  C           1       1.334   0.764   1.049  0.00  0.00     0.298 C 
ENDROOT
BRANCH   1   2
HETATM    2  C           1       0.496  -0.185   0.228  0.00  0.00     0.251 C 
HETATM    3  N           1      -0.071   0.240  -0.943  0.00  0.00    -0.344 N 
HETATM    4  H           1       0.073   1.190  -1.259  0.00  0.00     0.163 HD
HETATM    5  O           1       0.324  -1.320   0.606  0.00  0.00    -0.271 OA
BRANCH   3   6
HETATM    6  C           1      -0.877  -0.672  -1.731  0.00  0.00     0.189 C 
BRANCH   6   7
HETATM    7  C           1      -1.384   0.045  -2.976  0.00  0.00     0.010 C 
HETATM    8  C           1      -2.907   0.045  -2.976  0.00  0.00     0.012 C 
HETATM    9  C           1      -0.875   1.481  -2.976  0.00  0.00     0.012 C 
ENDBRANCH   6   7
BRANCH   6  10
HETATM   10  C           1      -0.038  -1.859  -2.140  0.00  0.00     0.197 C 
HETATM   11  O           1       0.478  -2.589  -1.268  0.00  0.00    -0.646 OA
HETATM   12  O           1       0.139  -2.110  -3.352  0.00  0.00    -0.646 OA
ENDBRANCH   6  10
ENDBRANCH   3   6
ENDBRANCH   1   2
BRANCH   1  13
HETATM   13  C           1       1.842   0.048   2.293  0.00  0.00     0.224 C 
BRANCH  13  14
HETATM   14  O           1       0.752  -0.391   3.058  0.00  0.00    -0.287 OA
BRANCH  14  15
HETATM   15  P           1       1.115  -1.176   4.422  0.00  0.00     0.406 P 
HETATM   16  O           1      -0.135  -1.572   5.109  0.00  0.00    -0.624 OA
HETATM   17  O           1       1.905  -0.290   5.305  0.00  0.00    -0.624 OA
BRANCH  15  18
HETATM   18  O           1       1.977  -2.496   4.072  0.00  0.00    -0.300 OA
HETATM   19  H           1       2.152  -2.901   4.904  0.00  0.00     0.223 HD
ENDBRANCH  15  18
ENDBRANCH  14  15
ENDBRANCH  13  14
ENDBRANCH   1  13
BRANCH   1  20
HETATM   20  N           1       0.501   1.943   1.456  0.00  0.00    -0.064 N 
HETATM   21  H           1       1.081   2.601   2.024  0.00  0.00     0.275 HD
HETATM   22  H           1       0.153   2.434   0.602  0.00  0.00     0.275 HD
HETATM   23  H           1      -0.312   1.614   2.025  0.00  0.00     0.275 HD
ENDBRANCH   1  20
TORSDOF 9
