REMARK  10 active torsions:
REMARK  status: ('A' for Active; 'I' for Inactive)
REMARK    1  A    between atoms: O_1  and  C_2 
REMARK    2  A    between atoms: C_2  and  C_3 
REMARK    3  A    between atoms: C_3  and  C_4 
REMARK    4  A    between atoms: C_3  and  N_18 
REMARK    5  A    between atoms: N_9  and  C_16 
REMARK    6  A    between atoms: O_12  and  P_13 
REMARK    7  A    between atoms: P_13  and  O_14 
REMARK    8  A    between atoms: O_14  and  C_15 
REMARK    9  A    between atoms: C_15  and  C_16 
REMARK   10  A    between atoms: C_16  and  C_17 
REMARK       I    between atoms: C_17  and  N_18 
ROOT
HETATM    1  C           1       1.423  -0.131   0.280  0.00  0.00     0.298 C 
ENDROOT
BRANCH   1   2
HETATM    2  N           1       1.922  -0.839  -0.945  0.00  0.00    -0.064 N 
HETATM    3  H           1       2.967  -0.840  -0.946  0.00  0.00     0.275 HD
HETATM    4  H           1       1.573  -1.824  -0.945  0.00  0.00     0.275 HD
HETATM    5  H           1       1.575  -0.345  -1.798  0.00  0.00     0.275 HD
ENDBRANCH   1   2
BRANCH   1   6
HETATM    6  C           1       1.933   1.304   0.280  0.00  0.00     0.224 C 
BRANCH   6   7
HETATM    7  O           1       1.467   1.966  -0.865  0.00  0.00    -0.287 OA
BRANCH   7   8
HETATM    8  P           1       1.919   3.508  -1.024  0.00  0.00     0.406 P 
HETATM    9  O           1       1.422   4.288   0.132  0.00  0.00    -0.624 OA
HETATM   10  O           1       1.351   4.061  -2.274  0.00  0.00    -0.624 OA
BRANCH   8  11
HETATM   11  O           1       3.530   3.596  -1.080  0.00  0.00    -0.300 OA
HETATM   12  H           1       3.722   4.513  -1.172  0.00  0.00     0.223 HD
ENDBRANCH   8  11
ENDBRANCH   7   8
ENDBRANCH   6   7
ENDBRANCH   1   6
BRANCH   1  13
HETATM   13  C           1      -0.086  -0.130   0.279  0.00  0.00     0.251 C 
HETATM   14  O           1      -0.689   0.917   0.278  0.00  0.00    -0.271 OA
HETATM   15  N           1      -0.772  -1.315   0.279  0.00  0.00    -0.343 N 
HETATM   16  H           1      -0.267  -2.192   0.279  0.00  0.00     0.163 HD
BRANCH  15  17
HETATM   17  C           1      -2.222  -1.313   0.278  0.00  0.00     0.209 C 
BRANCH  17  18
HETATM   18  C           1      -2.730  -2.749   0.278  0.00  0.00     0.200 C 
BRANCH  18  19
HETATM   19  O           1      -4.132  -2.749   0.278  0.00  0.00    -0.398 OA
HETATM   20  H           1      -4.406  -3.650   0.278  0.00  0.00     0.209 HD
ENDBRANCH  18  19
ENDBRANCH  17  18
BRANCH  17  21
HETATM   21  C           1      -2.724  -0.601   1.510  0.00  0.00     0.198 C 
HETATM   22  O           1      -2.421   0.595   1.707  0.00  0.00    -0.646 OA
HETATM   23  O           1      -3.443  -1.208   2.333  0.00  0.00    -0.646 OA
ENDBRANCH  17  21
ENDBRANCH  15  17
ENDBRANCH   1  13
TORSDOF 10
