REMARK  10 active torsions:
REMARK  status: ('A' for Active; 'I' for Inactive)
REMARK    1  A    between atoms: P_1  and  O_2 
REMARK    2  A    between atoms: P_1  and  O_28 
REMARK    3  A    between atoms: O_2  and  C_3 
REMARK    4  A    between atoms: C_3  and  C_4 
REMARK    5  A    between atoms: C_4  and  C_5 
REMARK    6  A    between atoms: C_4  and  N_25 
REMARK       I    between atoms: C_5  and  N_6 
REMARK    7  A    between atoms: N_6  and  C_14 
REMARK    8  A    between atoms: C_12  and  C_13 
REMARK    9  A    between atoms: C_13  and  C_14 
REMARK   10  A    between atoms: C_14  and  C_16 
ROOT
HETATM    1  C           1       1.319   0.891   0.421  0.00  0.00     0.251 C 
HETATM    2  N           1       1.459   1.877  -0.519  0.00  0.00    -0.344 N 
HETATM    3  H           1       1.983   2.714  -0.299  0.00  0.00     0.163 HD
HETATM    4  O           1       2.131  -0.000   0.487  0.00  0.00    -0.271 OA
ENDROOT
BRANCH   1   5
HETATM    5  C           1       0.148   0.917   1.373  0.00  0.00     0.298 C 
BRANCH   5   6
HETATM    6  C           1       0.227  -0.282   2.308  0.00  0.00     0.224 C 
BRANCH   6   7
HETATM    7  O           1       0.190  -1.465   1.556  0.00  0.00    -0.287 OA
BRANCH   7   8
HETATM    8  P           1       0.264  -2.841   2.397  0.00  0.00     0.406 P 
HETATM    9  O           1       0.215  -3.991   1.466  0.00  0.00    -0.624 OA
HETATM   10  O           1      -0.883  -2.911   3.330  0.00  0.00    -0.624 OA
BRANCH   8  11
HETATM   11  O           1       1.643  -2.887   3.236  0.00  0.00    -0.300 OA
HETATM   12  H           1       1.620  -3.708   3.698  0.00  0.00     0.223 HD
ENDBRANCH   8  11
ENDBRANCH   7   8
ENDBRANCH   6   7
ENDBRANCH   5   6
BRANCH   5  13
HETATM   13  N           1      -1.132   0.860   0.593  0.00  0.00    -0.064 N 
HETATM   14  H           1      -1.158  -0.022   0.032  0.00  0.00     0.275 HD
HETATM   15  H           1      -1.186   1.683  -0.048  0.00  0.00     0.275 HD
HETATM   16  H           1      -1.943   0.878   1.252  0.00  0.00     0.275 HD
ENDBRANCH   5  13
ENDBRANCH   1   5
BRANCH   2  17
HETATM   17  C           1       0.857   1.722  -1.829  0.00  0.00     0.191 C 
BRANCH  17  18
HETATM   18  C           1      -0.651   1.568  -1.678  0.00  0.00     0.094 C 
BRANCH  18  19
HETATM   19  C           1      -0.994   0.118  -1.534  0.00  0.00     0.028 A 
HETATM   20  N           1      -2.265  -0.370  -1.379  0.00  0.00    -0.354 N 
HETATM   21  C           1      -2.128  -1.673  -1.291  0.00  0.00     0.180 A 
ATOM     22  HN          1      -3.133   0.165  -1.340  1.00  0.00     0.166 HD
HETATM   23  N           1      -0.816  -2.045  -1.382  0.00  0.00    -0.360 N 
HETATM   24  C           1      -0.076  -0.906  -1.538  0.00  0.00     0.114 A 
HETATM   25  H           1      -0.445  -3.026  -1.339  0.00  0.00     0.166 HD
ENDBRANCH  18  19
ENDBRANCH  17  18
BRANCH  17  26
HETATM   26  C           1       1.158   2.939  -2.667  0.00  0.00     0.197 C 
HETATM   27  O           1       0.223   3.637  -3.115  0.00  0.00    -0.646 OA
HETATM   28  O           1       2.343   3.250  -2.915  0.00  0.00    -0.646 OA
ENDBRANCH  17  26
ENDBRANCH   2  17
TORSDOF 10
