REMARK  11 active torsions:
REMARK  status: ('A' for Active; 'I' for Inactive)
REMARK    1  A    between atoms: Se_2  and  C_3 
REMARK    2  A    between atoms: C_3  and  C_4 
REMARK    3  A    between atoms: C_4  and  C_5 
REMARK    4  A    between atoms: C_5  and  C_6 
REMARK    5  A    between atoms: C_5  and  N_9 
REMARK       I    between atoms: N_9  and  C_10 
REMARK    6  A    between atoms: C_10  and  C_11 
REMARK    7  A    between atoms: C_11  and  C_12 
REMARK    8  A    between atoms: C_11  and  N_18 
REMARK    9  A    between atoms: C_12  and  O_13 
REMARK   10  A    between atoms: O_13  and  P_14 
REMARK   11  A    between atoms: P_14  and  O_15 
ROOT
HETATM    1  N           1      -0.566  -0.069   0.311  0.00  0.00    -0.345 N 
HETATM    2  C           1       0.162  -0.798  -0.590  0.00  0.00     0.251 C 
HETATM    3  O           1       1.339  -0.992  -0.400  0.00  0.00    -0.271 OA
HETATM    4  H           1      -1.552   0.093   0.152  0.00  0.00     0.163 HD
ENDROOT
BRANCH   2   5
HETATM    5  C           1      -0.506  -1.360  -1.821  0.00  0.00     0.298 C 
BRANCH   5   6
HETATM    6  C           1       0.517  -2.124  -2.652  0.00  0.00     0.224 C 
BRANCH   6   7
HETATM    7  O           1       1.550  -1.256  -3.036  0.00  0.00    -0.287 OA
BRANCH   7   8
HETATM    8  P           1       2.727  -1.908  -3.928  0.00  0.00     0.406 P 
HETATM    9  O           1       3.734  -0.872  -4.249  0.00  0.00    -0.624 OA
HETATM   10  O           1       2.155  -2.446  -5.182  0.00  0.00    -0.624 OA
BRANCH   8  11
HETATM   11  O           1       3.431  -3.104  -3.101  0.00  0.00    -0.300 OA
HETATM   12  H           1       4.100  -3.436  -3.675  0.00  0.00     0.223 HD
ENDBRANCH   8  11
ENDBRANCH   7   8
ENDBRANCH   6   7
ENDBRANCH   5   6
BRANCH   5  13
HETATM   13  N           1      -1.073  -0.237  -2.638  0.00  0.00    -0.064 N 
HETATM   14  H           1      -1.536  -0.625  -3.491  0.00  0.00     0.275 HD
HETATM   15  H           1      -1.776   0.287  -2.068  0.00  0.00     0.275 HD
HETATM   16  H           1      -0.304   0.410  -2.923  0.00  0.00     0.275 HD
ENDBRANCH   5  13
ENDBRANCH   2   5
BRANCH   1  17
HETATM   17  C           1       0.076   0.470   1.494  0.00  0.00     0.185 C 
BRANCH  17  18
HETATM   18  C           1      -0.948   1.234   2.323  0.00  0.00     0.036 C 
BRANCH  18  19
HETATM   19  C           1      -0.275   1.800   3.566  0.00  0.00     0.003 C 
BRANCH  19  20
HETATM   20 Se           1      -0.439   3.743   3.566  0.00  0.00     0.000 Se
HETATM   21  C           1      -2.388   3.743   3.566  0.00  0.00     0.000 C 
ENDBRANCH  19  20
ENDBRANCH  18  19
ENDBRANCH  17  18
BRANCH  17  22
HETATM   22  C           1       0.648  -0.659   2.315  0.00  0.00     0.196 C 
HETATM   23  O           1       1.512  -1.416   1.821  0.00  0.00    -0.646 OA
HETATM   24  O           1       0.257  -0.839   3.489  0.00  0.00    -0.646 OA
ENDBRANCH  17  22
ENDBRANCH   1  17
TORSDOF 11
