REMARK  8 active torsions:
REMARK  status: ('A' for Active; 'I' for Inactive)
REMARK    1  A    between atoms: C_2  and  C_4 
REMARK       I    between atoms: N_5  and  C_6 
REMARK    2  A    between atoms: C_6  and  C_7 
REMARK    3  A    between atoms: C_7  and  C_8 
REMARK    4  A    between atoms: C_7  and  N_20 
REMARK    5  A    between atoms: C_8  and  C_9 
REMARK    6  A    between atoms: C_12  and  O_13 
REMARK    7  A    between atoms: O_13  and  P_14 
REMARK    8  A    between atoms: P_14  and  O_16 
ROOT
HETATM    1  C           1       0.078   1.837   0.518  0.00  0.00     0.279 C 
ENDROOT
BRANCH   1   2
HETATM    2  C           1      -1.041   2.557  -0.193  0.00  0.00     0.251 C 
HETATM    3  N           1      -2.090   1.847  -0.713  0.00  0.00    -0.336 N 
HETATM    4  C           1      -3.391   1.602  -0.097  0.00  0.00     0.188 C 
HETATM    5  C           1      -2.151   1.169  -2.005  0.00  0.00     0.127 C 
HETATM    6  C           1      -4.370   1.753  -1.249  0.00  0.00     0.038 C 
HETATM    7  C           1      -3.555   1.463  -2.504  0.00  0.00     0.022 C 
HETATM    8  O           1      -1.012   3.759  -0.303  0.00  0.00    -0.271 OA
BRANCH   4   9
HETATM    9  C           1      -3.456   0.211   0.485  0.00  0.00     0.196 C 
HETATM   10  O           1      -4.498  -0.179   1.055  0.00  0.00    -0.646 OA
HETATM   11  O           1      -2.469  -0.551   0.396  0.00  0.00    -0.646 OA
ENDBRANCH   4   9
ENDBRANCH   1   2
BRANCH   1  12
HETATM   12  C           1      -0.200   0.339   0.518  0.00  0.00     0.081 C 
BRANCH  12  13
HETATM   13  C           1       1.097  -0.409   0.518  0.00  0.00    -0.056 A 
HETATM   14  C           1       2.416   0.352   0.518  0.00  0.00     0.010 A 
HETATM   15  C           1       3.735  -0.409   0.518  0.00  0.00     0.038 A 
HETATM   16  C           1       3.735  -1.932   0.518  0.00  0.00     0.081 A 
HETATM   17  C           1       2.416  -2.694   0.518  0.00  0.00     0.038 A 
HETATM   18  C           1       1.097  -1.932   0.518  0.00  0.00     0.010 A 
BRANCH  16  19
HETATM   19  O           1       4.908  -2.610   0.518  0.00  0.00    -0.247 OA
BRANCH  19  20
HETATM   20  P           1       4.852  -4.224   0.518  0.00  0.00     0.411 P 
HETATM   21  O           1       4.138  -4.693   1.727  0.00  0.00    -0.624 OA
HETATM   22  O           1       6.229  -4.765   0.518  0.00  0.00    -0.624 OA
BRANCH  20  23
HETATM   23  O           1       4.071  -4.734  -0.800  0.00  0.00    -0.300 OA
HETATM   24  H           1       4.075  -5.674  -0.737  0.00  0.00     0.223 HD
ENDBRANCH  20  23
ENDBRANCH  19  20
ENDBRANCH  16  19
ENDBRANCH  12  13
ENDBRANCH   1  12
BRANCH   1  25
HETATM   25  N           1       0.168   2.328   1.933  0.00  0.00    -0.066 N 
HETATM   26  H           1       0.943   1.830   2.426  0.00  0.00     0.275 HD
HETATM   27  H           1       0.359   3.355   1.933  0.00  0.00     0.275 HD
HETATM   28  H           1      -0.735   2.141   2.425  0.00  0.00     0.275 HD
ENDBRANCH   1  25
TORSDOF 8
