REMARK  11 active torsions:
REMARK  status: ('A' for Active; 'I' for Inactive)
REMARK    1  A    between atoms: C_4  and  C_6 
REMARK    2  A    between atoms: C_6  and  C_7 
REMARK    3  A    between atoms: C_6  and  N_14 
REMARK    4  A    between atoms: C_7  and  C_8 
REMARK       I    between atoms: N_14  and  C_15 
REMARK    5  A    between atoms: C_15  and  C_16 
REMARK    6  A    between atoms: C_16  and  C_17 
REMARK    7  A    between atoms: C_16  and  N_27 
REMARK    8  A    between atoms: C_17  and  C_18 
REMARK    9  A    between atoms: C_21  and  O_22 
REMARK   10  A    between atoms: O_22  and  P_23 
REMARK   11  A    between atoms: P_23  and  O_24 
ROOT
HETATM    1  C           1       0.275  -0.018  -0.185  0.00  0.00     0.278 C 
ENDROOT
BRANCH   1   2
HETATM    2  C           1       1.438  -0.688  -0.876  0.00  0.00     0.249 C 
HETATM    3  N           1       2.071  -0.060  -1.915  0.00  0.00    -0.344 N 
HETATM    4  H           1       2.858   0.550  -1.734  0.00  0.00     0.163 HD
HETATM    5  O           1       1.811  -1.778  -0.511  0.00  0.00    -0.271 OA
BRANCH   3   6
HETATM    6  C           1       1.613  -0.269  -3.275  0.00  0.00     0.189 C 
BRANCH   6   7
HETATM    7  C           1       2.474   0.530  -4.223  0.00  0.00     0.197 C 
HETATM    8  O           1       3.704   0.316  -4.282  0.00  0.00    -0.646 OA
HETATM    9  O           1       1.956   1.406  -4.949  0.00  0.00    -0.646 OA
ENDBRANCH   6   7
BRANCH   6  10
HETATM   10  C           1       0.165   0.184  -3.398  0.00  0.00     0.074 C 
BRANCH  10  11
HETATM   11  C           1      -0.746  -0.965  -3.093  0.00  0.00    -0.056 A 
HETATM   12  C           1      -0.211  -2.209  -2.761  0.00  0.00     0.007 A 
HETATM   13  C           1      -1.060  -3.280  -2.477  0.00  0.00     0.001 A 
HETATM   14  C           1      -2.443  -3.105  -2.525  0.00  0.00     0.000 A 
HETATM   15  C           1      -2.977  -1.860  -2.858  0.00  0.00     0.001 A 
HETATM   16  C           1      -2.129  -0.790  -3.142  0.00  0.00     0.007 A 
ENDBRANCH  10  11
ENDBRANCH   6  10
ENDBRANCH   3   6
ENDBRANCH   1   2
BRANCH   1  17
HETATM   17  C           1      -0.244  -0.921   0.926  0.00  0.00     0.081 C 
BRANCH  17  18
HETATM   18  C           1      -0.135  -0.209   2.239  0.00  0.00    -0.056 A 
HETATM   19  C           1      -0.552  -0.840   3.411  0.00  0.00     0.010 A 
HETATM   20  C           1      -0.450  -0.178   4.634  0.00  0.00     0.038 A 
HETATM   21  C           1       0.069   1.116   4.685  0.00  0.00     0.081 A 
HETATM   22  C           1       0.486   1.747   3.513  0.00  0.00     0.038 A 
HETATM   23  C           1       0.384   1.084   2.290  0.00  0.00     0.010 A 
BRANCH  21  24
HETATM   24  O           1       0.167   1.760   5.873  0.00  0.00    -0.247 OA
BRANCH  24  25
HETATM   25  P           1       0.775   3.256   5.877  0.00  0.00     0.411 P 
HETATM   26  O           1       0.796   3.776   7.262  0.00  0.00    -0.624 OA
HETATM   27  O           1       2.153   3.230   5.338  0.00  0.00    -0.624 OA
BRANCH  25  28
HETATM   28  O           1      -0.144   4.214   4.957  0.00  0.00    -0.300 OA
HETATM   29  H           1       0.264   5.061   5.003  0.00  0.00     0.223 HD
ENDBRANCH  25  28
ENDBRANCH  24  25
ENDBRANCH  21  24
ENDBRANCH  17  18
ENDBRANCH   1  17
BRANCH   1  30
HETATM   30  N           1      -0.820   0.230  -1.180  0.00  0.00    -0.066 N 
HETATM   31  H           1      -1.626   0.693  -0.703  0.00  0.00     0.275 HD
HETATM   32  H           1      -0.464   0.849  -1.942  0.00  0.00     0.275 HD
HETATM   33  H           1      -1.133  -0.681  -1.587  0.00  0.00     0.275 HD
ENDBRANCH   1  30
TORSDOF 11
