REMARK  11 active torsions:
REMARK  status: ('A' for Active; 'I' for Inactive)
REMARK    1  A    between atoms: C_2  and  C_4 
REMARK    2  A    between atoms: C_4  and  C_5 
REMARK    3  A    between atoms: C_5  and  C_6 
REMARK    4  A    between atoms: C_5  and  N_9 
REMARK       I    between atoms: N_9  and  C_10 
REMARK    5  A    between atoms: C_10  and  C_11 
REMARK    6  A    between atoms: C_11  and  C_12 
REMARK    7  A    between atoms: C_11  and  N_24 
REMARK    8  A    between atoms: C_12  and  C_13 
REMARK    9  A    between atoms: C_16  and  O_17 
REMARK   10  A    between atoms: O_17  and  P_18 
REMARK   11  A    between atoms: P_18  and  O_19 
ROOT
HETATM    1  C           1       0.809   0.208   0.315  0.00  0.00     0.278 C 
ENDROOT
BRANCH   1   2
HETATM    2  C           1       1.669   1.007  -0.633  0.00  0.00     0.249 C 
HETATM    3  N           1       3.016   0.773  -0.697  0.00  0.00    -0.344 N 
HETATM    4  H           1       3.436   0.064  -0.109  0.00  0.00     0.163 HD
HETATM    5  O           1       1.169   1.854  -1.334  0.00  0.00    -0.271 OA
BRANCH   3   6
HETATM    6  C           1       3.843   1.541  -1.608  0.00  0.00     0.195 C 
BRANCH   6   7
HETATM    7  C           1       3.743   3.021  -1.260  0.00  0.00     0.149 C 
BRANCH   7   8
HETATM    8  C           1       3.201   3.781  -2.445  0.00  0.00     0.175 C 
HETATM    9  O           1       3.039   5.019  -2.373  0.00  0.00    -0.648 OA
HETATM   10  O           1       2.914   3.174  -3.499  0.00  0.00    -0.648 OA
ENDBRANCH   7   8
ENDBRANCH   6   7
BRANCH   6  11
HETATM   11  C           1       5.278   1.092  -1.484  0.00  0.00     0.197 C 
HETATM   12  O           1       5.584  -0.096  -1.727  0.00  0.00    -0.646 OA
HETATM   13  O           1       6.161   1.907  -1.140  0.00  0.00    -0.646 OA
ENDBRANCH   6  11
ENDBRANCH   3   6
ENDBRANCH   1   2
BRANCH   1  14
HETATM   14  C           1      -0.640   0.661   0.192  0.00  0.00     0.081 C 
BRANCH  14  15
HETATM   15  C           1      -1.550  -0.488   0.497  0.00  0.00    -0.056 A 
HETATM   16  C           1      -1.016  -1.732   0.830  0.00  0.00     0.010 A 
HETATM   17  C           1      -1.864  -2.802   1.113  0.00  0.00     0.038 A 
HETATM   18  C           1      -3.247  -2.628   1.065  0.00  0.00     0.081 A 
HETATM   19  C           1      -3.782  -1.383   0.732  0.00  0.00     0.038 A 
HETATM   20  C           1      -2.933  -0.313   0.448  0.00  0.00     0.010 A 
BRANCH  18  21
HETATM   21  O           1      -4.071  -3.668   1.340  0.00  0.00    -0.247 OA
BRANCH  21  22
HETATM   22  P           1      -5.664  -3.412   1.270  0.00  0.00     0.411 P 
HETATM   23  O           1      -6.379  -4.664   1.602  0.00  0.00    -0.624 OA
HETATM   24  O           1      -6.038  -2.357   2.239  0.00  0.00    -0.624 OA
BRANCH  22  25
HETATM   25  O           1      -6.069  -2.940  -0.221  0.00  0.00    -0.300 OA
HETATM   26  H           1      -7.001  -2.810  -0.191  0.00  0.00     0.223 HD
ENDBRANCH  22  25
ENDBRANCH  21  22
ENDBRANCH  18  21
ENDBRANCH  14  15
ENDBRANCH   1  14
BRANCH   1  27
HETATM   27  N           1       1.282   0.424   1.722  0.00  0.00    -0.066 N 
HETATM   28  H           1       0.687  -0.129   2.379  0.00  0.00     0.275 HD
HETATM   29  H           1       2.276   0.113   1.807  0.00  0.00     0.275 HD
HETATM   30  H           1       1.213   1.439   1.960  0.00  0.00     0.275 HD
ENDBRANCH   1  27
TORSDOF 11
