REMARK  10 active torsions:
REMARK  status: ('A' for Active; 'I' for Inactive)
REMARK    1  A    between atoms: N_7  and  C_20 
REMARK    2  A    between atoms: O_12  and  P_13 
REMARK    3  A    between atoms: P_13  and  O_14 
REMARK    4  A    between atoms: O_14  and  C_15 
REMARK    5  A    between atoms: C_18  and  C_19 
REMARK    6  A    between atoms: C_19  and  C_20 
REMARK    7  A    between atoms: C_20  and  C_21 
REMARK       I    between atoms: C_21  and  N_22 
REMARK    8  A    between atoms: N_22  and  C_26 
REMARK    9  A    between atoms: C_25  and  C_26 
REMARK   10  A    between atoms: C_26  and  C_28 
ROOT
HETATM    1  C           1       0.355  -0.132   0.423  0.00  0.00     0.278 C 
ENDROOT
BRANCH   1   2
HETATM    2  N           1       0.828   0.085   1.830  0.00  0.00    -0.066 N 
HETATM    3  H           1       0.759   1.100   2.068  0.00  0.00     0.275 HD
HETATM    4  H           1       1.822  -0.227   1.914  0.00  0.00     0.275 HD
HETATM    5  H           1       0.233  -0.468   2.487  0.00  0.00     0.275 HD
ENDBRANCH   1   2
BRANCH   1   6
HETATM    6  C           1      -1.094   0.322   0.300  0.00  0.00     0.081 C 
BRANCH   6   7
HETATM    7  C           1      -2.005  -0.827   0.605  0.00  0.00    -0.056 A 
HETATM    8  C           1      -3.388  -0.652   0.556  0.00  0.00     0.010 A 
HETATM    9  C           1      -4.236  -1.723   0.840  0.00  0.00     0.038 A 
HETATM   10  C           1      -3.701  -2.967   1.172  0.00  0.00     0.081 A 
HETATM   11  C           1      -2.318  -3.142   1.221  0.00  0.00     0.038 A 
HETATM   12  C           1      -1.470  -2.071   0.937  0.00  0.00     0.010 A 
BRANCH  10  13
HETATM   13  O           1      -4.525  -4.007   1.448  0.00  0.00    -0.247 OA
BRANCH  13  14
HETATM   14  P           1      -6.118  -3.751   1.378  0.00  0.00     0.411 P 
HETATM   15  O           1      -6.492  -2.697   2.347  0.00  0.00    -0.624 OA
HETATM   16  O           1      -6.834  -5.003   1.709  0.00  0.00    -0.624 OA
BRANCH  14  17
HETATM   17  O           1      -6.523  -3.279  -0.113  0.00  0.00    -0.300 OA
HETATM   18  H           1      -7.456  -3.149  -0.083  0.00  0.00     0.223 HD
ENDBRANCH  14  17
ENDBRANCH  13  14
ENDBRANCH  10  13
ENDBRANCH   6   7
ENDBRANCH   1   6
BRANCH   1  19
HETATM   19  C           1       1.215   0.668  -0.525  0.00  0.00     0.249 C 
HETATM   20  O           1       0.714   1.514  -1.226  0.00  0.00    -0.271 OA
HETATM   21  N           1       2.562   0.434  -0.589  0.00  0.00    -0.344 N 
HETATM   22  H           1       2.981  -0.275  -0.002  0.00  0.00     0.163 HD
BRANCH  21  23
HETATM   23  C           1       3.389   1.202  -1.500  0.00  0.00     0.189 C 
BRANCH  23  24
HETATM   24  C           1       4.824   0.752  -1.377  0.00  0.00     0.197 C 
HETATM   25  O           1       5.249   0.311  -0.287  0.00  0.00    -0.646 OA
HETATM   26  O           1       5.588   0.822  -2.364  0.00  0.00    -0.646 OA
ENDBRANCH  23  24
BRANCH  23  27
HETATM   27  C           1       3.289   2.681  -1.152  0.00  0.00     0.010 C 
HETATM   28  C           1       4.671   3.213  -0.798  0.00  0.00     0.012 C 
HETATM   29  C           1       2.742   3.449  -2.348  0.00  0.00     0.012 C 
ENDBRANCH  23  27
ENDBRANCH  21  23
ENDBRANCH   1  19
TORSDOF 10
