REMARK  10 active torsions:
REMARK  status: ('A' for Active; 'I' for Inactive)
REMARK       I    between atoms: C_2  and  N_3 
REMARK    1  A    between atoms: C_2  and  C_4 
REMARK    2  A    between atoms: C_4  and  C_5 
REMARK    3  A    between atoms: C_5  and  C_6 
REMARK    4  A    between atoms: C_5  and  N_9 
REMARK       I    between atoms: N_9  and  C_10 
REMARK    5  A    between atoms: C_10  and  C_11 
REMARK    6  A    between atoms: C_11  and  C_12 
REMARK    7  A    between atoms: C_11  and  N_18 
REMARK    8  A    between atoms: C_12  and  O_13 
REMARK    9  A    between atoms: O_13  and  P_14 
REMARK   10  A    between atoms: P_14  and  O_15 
ROOT
HETATM    1  N           1       0.710  -0.730   0.253  0.00  0.00    -0.344 N 
HETATM    2  C           1       0.026   0.456   0.253  0.00  0.00     0.251 C 
HETATM    3  O           1      -1.182   0.458   0.252  0.00  0.00    -0.271 OA
HETATM    4  H           1       1.722  -0.731   0.253  0.00  0.00     0.163 HD
ENDROOT
BRANCH   2   5
HETATM    5  C           1       0.782   1.762   0.254  0.00  0.00     0.298 C 
BRANCH   5   6
HETATM    6  C           1      -0.206   2.922   0.254  0.00  0.00     0.224 C 
BRANCH   6   7
HETATM    7  O           1      -1.012   2.850  -0.891  0.00  0.00    -0.287 OA
BRANCH   7   8
HETATM    8  P           1      -2.122   4.011  -1.050  0.00  0.00     0.406 P 
HETATM    9  O           1      -2.885   3.797  -2.300  0.00  0.00    -0.624 OA
HETATM   10  O           1      -3.046   3.972   0.106  0.00  0.00    -0.624 OA
BRANCH   8  11
HETATM   11  O           1      -1.392   5.451  -1.106  0.00  0.00    -0.300 OA
HETATM   12  H           1      -2.091   6.076  -1.198  0.00  0.00     0.223 HD
ENDBRANCH   8  11
ENDBRANCH   7   8
ENDBRANCH   6   7
ENDBRANCH   5   6
BRANCH   5  13
HETATM   13  N           1       1.644   1.841  -0.971  0.00  0.00    -0.064 N 
HETATM   14  H           1       2.168   2.745  -0.972  0.00  0.00     0.275 HD
HETATM   15  H           1       2.322   1.046  -0.971  0.00  0.00     0.275 HD
HETATM   16  H           1       1.043   1.787  -1.824  0.00  0.00     0.275 HD
ENDBRANCH   5  13
ENDBRANCH   2   5
BRANCH   1  17
HETATM   17  C           1      -0.017  -1.985   0.252  0.00  0.00     0.194 C 
BRANCH  17  18
HETATM   18  C           1       0.972  -3.143   0.252  0.00  0.00     0.138 C 
BRANCH  18  19
HETATM   19  C           1       0.218  -4.450   0.252  0.00  0.00     0.217 C 
HETATM   20  O           1      -0.990  -4.450   0.252  0.00  0.00    -0.274 OA
HETATM   21  N           1       0.902  -5.635   0.252  0.00  0.00    -0.370 N 
HETATM   22  H           1       1.914  -5.635   0.252  0.00  0.00     0.159 HD
HETATM   23  H           1       0.396  -6.512   0.252  0.00  0.00     0.159 HD
ENDBRANCH  18  19
ENDBRANCH  17  18
BRANCH  17  24
HETATM   24  C           1      -0.885  -2.064   1.484  0.00  0.00     0.197 C 
HETATM   25  O           1      -1.770  -1.203   1.681  0.00  0.00    -0.646 OA
HETATM   26  O           1      -0.719  -2.990   2.307  0.00  0.00    -0.646 OA
ENDBRANCH  17  24
ENDBRANCH   1  17
TORSDOF 10
