REMARK  11 active torsions:
REMARK  status: ('A' for Active; 'I' for Inactive)
REMARK    1  A    between atoms: Se_1  and  C_2 
REMARK    2  A    between atoms: C_2  and  C_3 
REMARK    3  A    between atoms: C_3  and  C_4 
REMARK    4  A    between atoms: C_3  and  N_7 
REMARK       I    between atoms: N_7  and  C_8 
REMARK    5  A    between atoms: C_8  and  C_9 
REMARK    6  A    between atoms: C_9  and  C_10 
REMARK    7  A    between atoms: C_9  and  N_22 
REMARK    8  A    between atoms: C_10  and  C_11 
REMARK    9  A    between atoms: C_14  and  O_15 
REMARK   10  A    between atoms: O_15  and  P_16 
REMARK   11  A    between atoms: P_16  and  O_17 
ROOT
HETATM    1  C           1       0.887   0.276   0.228  0.00  0.00     0.278 C 
ENDROOT
BRANCH   1   2
HETATM    2  C           1       1.747   1.075  -0.720  0.00  0.00     0.249 C 
HETATM    3  N           1       3.094   0.841  -0.785  0.00  0.00    -0.345 N 
HETATM    4  H           1       3.513   0.132  -0.197  0.00  0.00     0.163 HD
HETATM    5  O           1       1.246   1.922  -1.422  0.00  0.00    -0.271 OA
BRANCH   3   6
HETATM    6  C           1       3.920   1.609  -1.695  0.00  0.00     0.185 C 
BRANCH   6   7
HETATM    7  C           1       3.821   3.089  -1.347  0.00  0.00     0.039 C 
BRANCH   7   8
HETATM    8 Se           1       3.121   4.071  -2.878  0.00  0.00     0.000 Se
HETATM    9  H           1       3.164   5.380  -2.205  0.00  0.00     0.000 HD
ENDBRANCH   7   8
ENDBRANCH   6   7
BRANCH   6  10
HETATM   10  C           1       5.356   1.160  -1.572  0.00  0.00     0.196 C 
HETATM   11  O           1       5.662  -0.028  -1.814  0.00  0.00    -0.646 OA
HETATM   12  O           1       6.238   1.975  -1.227  0.00  0.00    -0.646 OA
ENDBRANCH   6  10
ENDBRANCH   3   6
ENDBRANCH   1   2
BRANCH   1  13
HETATM   13  C           1      -0.562   0.729   0.105  0.00  0.00     0.081 C 
BRANCH  13  14
HETATM   14  C           1      -1.473  -0.419   0.410  0.00  0.00    -0.056 A 
HETATM   15  C           1      -0.938  -1.664   0.742  0.00  0.00     0.010 A 
HETATM   16  C           1      -1.786  -2.734   1.026  0.00  0.00     0.038 A 
HETATM   17  C           1      -3.169  -2.560   0.977  0.00  0.00     0.081 A 
HETATM   18  C           1      -3.704  -1.315   0.645  0.00  0.00     0.038 A 
HETATM   19  C           1      -2.856  -0.245   0.361  0.00  0.00     0.010 A 
BRANCH  17  20
HETATM   20  O           1      -3.993  -3.599   1.253  0.00  0.00    -0.247 OA
BRANCH  20  21
HETATM   21  P           1      -5.587  -3.343   1.182  0.00  0.00     0.411 P 
HETATM   22  O           1      -6.302  -4.596   1.514  0.00  0.00    -0.624 OA
HETATM   23  O           1      -5.960  -2.289   2.152  0.00  0.00    -0.624 OA
BRANCH  21  24
HETATM   24  O           1      -5.991  -2.872  -0.308  0.00  0.00    -0.300 OA
HETATM   25  H           1      -6.924  -2.742  -0.278  0.00  0.00     0.223 HD
ENDBRANCH  21  24
ENDBRANCH  20  21
ENDBRANCH  17  20
ENDBRANCH  13  14
ENDBRANCH   1  13
BRANCH   1  26
HETATM   26  N           1       1.360   0.492   1.635  0.00  0.00    -0.066 N 
HETATM   27  H           1       0.765  -0.061   2.292  0.00  0.00     0.275 HD
HETATM   28  H           1       2.354   0.181   1.719  0.00  0.00     0.275 HD
HETATM   29  H           1       1.291   1.508   1.873  0.00  0.00     0.275 HD
ENDBRANCH   1  26
TORSDOF 11
