REMARK  11 active torsions:
REMARK  status: ('A' for Active; 'I' for Inactive)
REMARK    1  A    between atoms: N_2  and  C_26 
REMARK       I    between atoms: N_2  and  C_3 
REMARK    2  A    between atoms: C_3  and  C_4 
REMARK    3  A    between atoms: C_4  and  C_5 
REMARK    4  A    between atoms: C_4  and  N_17 
REMARK    5  A    between atoms: C_5  and  C_6 
REMARK    6  A    between atoms: C_9  and  O_10 
REMARK    7  A    between atoms: O_10  and  P_11 
REMARK    8  A    between atoms: P_11  and  O_12 
REMARK    9  A    between atoms: C_24  and  C_26 
REMARK   10  A    between atoms: C_26  and  C_27 
REMARK   11  A    between atoms: C_27  and  C_28 
ROOT
HETATM    1  N           1      -1.897  -0.442   2.314  0.00  0.00    -0.344 N 
HETATM    2  C           1      -1.164  -1.110   1.370  0.00  0.00     0.249 C 
HETATM    3  O           1      -0.957  -2.294   1.493  0.00  0.00    -0.271 OA
HETATM    4  H           1      -2.902  -0.370   2.217  0.00  0.00     0.163 HD
ENDROOT
BRANCH   2   5
HETATM    5  C           1      -0.617  -0.368   0.175  0.00  0.00     0.278 C 
BRANCH   5   6
HETATM    6  C           1       0.154  -1.335  -0.714  0.00  0.00     0.081 C 
BRANCH   6   7
HETATM    7  C           1      -0.472  -1.370  -2.074  0.00  0.00    -0.056 A 
HETATM    8  C           1       0.064  -2.190  -3.067  0.00  0.00     0.010 A 
HETATM    9  C           1      -0.519  -2.222  -4.334  0.00  0.00     0.038 A 
HETATM   10  C           1      -1.638  -1.435  -4.607  0.00  0.00     0.081 A 
HETATM   11  C           1      -2.173  -0.615  -3.614  0.00  0.00     0.038 A 
HETATM   12  C           1      -1.590  -0.583  -2.347  0.00  0.00     0.010 A 
BRANCH  10  13
HETATM   13  O           1      -2.204  -1.466  -5.838  0.00  0.00    -0.247 OA
BRANCH  13  14
HETATM   14  P           1      -3.497  -0.535  -6.102  0.00  0.00     0.411 P 
HETATM   15  O           1      -3.957  -0.715  -7.497  0.00  0.00    -0.624 OA
HETATM   16  O           1      -4.580  -0.921  -5.170  0.00  0.00    -0.624 OA
BRANCH  14  17
HETATM   17  O           1      -3.105   1.013  -5.860  0.00  0.00    -0.300 OA
HETATM   18  H           1      -3.897   1.494  -6.029  0.00  0.00     0.223 HD
ENDBRANCH  14  17
ENDBRANCH  13  14
ENDBRANCH  10  13
ENDBRANCH   6   7
ENDBRANCH   5   6
BRANCH   5  19
HETATM   19  N           1       0.303   0.721   0.643  0.00  0.00    -0.066 N 
HETATM   20  H           1       0.682   1.235  -0.184  0.00  0.00     0.275 HD
HETATM   21  H           1      -0.226   1.385   1.253  0.00  0.00     0.275 HD
HETATM   22  H           1       1.092   0.302   1.185  0.00  0.00     0.275 HD
ENDBRANCH   5  19
ENDBRANCH   2   5
BRANCH   1  23
HETATM   23  C           1      -1.233   0.163   3.452  0.00  0.00     0.190 C 
BRANCH  23  24
HETATM   24  C           1      -2.258   0.832   4.335  0.00  0.00     0.197 C 
HETATM   25  O           1      -3.178   0.158   4.845  0.00  0.00    -0.646 OA
HETATM   26  O           1      -2.187   2.060   4.555  0.00  0.00    -0.646 OA
ENDBRANCH  23  24
BRANCH  23  27
HETATM   27  C           1      -0.230   1.199   2.962  0.00  0.00     0.077 C 
BRANCH  27  28
HETATM   28  C           1       1.099   0.546   2.747  0.00  0.00    -0.028 A 
HETATM   29  C           1       1.393  -0.783   2.953  0.00  0.00     0.096 A 
HETATM   30  N           1       2.713  -0.973   2.641  0.00  0.00    -0.365 N 
HETATM   31  H           1       3.218  -1.892   2.703  0.00  0.00     0.165 HD
HETATM   32  C           1       3.282   0.213   2.235  0.00  0.00     0.042 A 
HETATM   33  C           1       4.591   0.495   1.825  0.00  0.00     0.030 A 
HETATM   34  C           1       2.285   1.187   2.293  0.00  0.00    -0.002 A 
HETATM   35  C           1       4.885   1.813   1.464  0.00  0.00     0.002 A 
HETATM   36  C           1       3.909   2.806   1.512  0.00  0.00     0.001 A 
HETATM   37  C           1       2.605   2.507   1.924  0.00  0.00     0.014 A 
ENDBRANCH  27  28
ENDBRANCH  23  27
ENDBRANCH   1  23
TORSDOF 11
