REMARK  10 active torsions:
REMARK  status: ('A' for Active; 'I' for Inactive)
REMARK    1  A    between atoms: C_2  and  C_9 
REMARK    2  A    between atoms: C_9  and  C_10 
REMARK    3  A    between atoms: C_9  and  N_17 
REMARK    4  A    between atoms: C_10  and  C_11 
REMARK       I    between atoms: N_17  and  C_18 
REMARK    5  A    between atoms: C_18  and  C_19 
REMARK    6  A    between atoms: C_19  and  C_20 
REMARK    7  A    between atoms: C_19  and  N_26 
REMARK    8  A    between atoms: C_20  and  O_21 
REMARK    9  A    between atoms: O_21  and  P_22 
REMARK   10  A    between atoms: P_22  and  O_23 
ROOT
HETATM    1  H           1       3.184   1.697  -0.217  0.00  0.00     0.163 HD
HETATM    2  N           1       2.397   1.087  -0.398  0.00  0.00    -0.344 N 
HETATM    3  C           1       1.764   0.459   0.641  0.00  0.00     0.251 C 
HETATM    4  O           1       2.137  -0.631   1.005  0.00  0.00    -0.271 OA
ENDROOT
BRANCH   3   5
HETATM    5  C           1       0.601   1.129   1.331  0.00  0.00     0.298 C 
BRANCH   5   6
HETATM    6  C           1       0.082   0.226   2.443  0.00  0.00     0.224 C 
BRANCH   6   7
HETATM    7  O           1      -0.339  -0.994   1.897  0.00  0.00    -0.287 OA
BRANCH   7   8
HETATM    8  P           1      -0.922  -2.075   2.945  0.00  0.00     0.406 P 
HETATM    9  O           1      -1.322  -3.301   2.218  0.00  0.00    -0.624 OA
HETATM   10  O           1       0.121  -2.409   3.941  0.00  0.00    -0.624 OA
BRANCH   8  11
HETATM   11  O           1      -2.208  -1.455   3.700  0.00  0.00    -0.300 OA
HETATM   12  H           1      -2.494  -2.131   4.290  0.00  0.00     0.223 HD
ENDBRANCH   8  11
ENDBRANCH   7   8
ENDBRANCH   6   7
ENDBRANCH   5   6
BRANCH   5  13
HETATM   13  N           1      -0.494   1.376   0.337  0.00  0.00    -0.064 N 
HETATM   14  H           1      -1.300   1.840   0.814  0.00  0.00     0.275 HD
HETATM   15  H           1      -0.138   1.996  -0.426  0.00  0.00     0.275 HD
HETATM   16  H           1      -0.807   0.466  -0.070  0.00  0.00     0.275 HD
ENDBRANCH   5  13
ENDBRANCH   3   5
BRANCH   2  17
HETATM   17  C           1       1.939   0.877  -1.758  0.00  0.00     0.189 C 
BRANCH  17  18
HETATM   18  C           1       2.799   1.677  -2.706  0.00  0.00     0.197 C 
HETATM   19  O           1       4.030   1.463  -2.765  0.00  0.00    -0.646 OA
HETATM   20  O           1       2.282   2.553  -3.432  0.00  0.00    -0.646 OA
ENDBRANCH  17  18
BRANCH  17  21
HETATM   21  C           1       0.491   1.331  -1.881  0.00  0.00     0.074 C 
BRANCH  21  22
HETATM   22  C           1      -0.420   0.182  -1.577  0.00  0.00    -0.056 A 
HETATM   23  C           1       0.115  -1.062  -1.244  0.00  0.00     0.007 A 
HETATM   24  C           1      -0.734  -2.133  -0.960  0.00  0.00     0.001 A 
HETATM   25  C           1      -2.117  -1.958  -1.009  0.00  0.00     0.000 A 
HETATM   26  C           1      -2.651  -0.714  -1.341  0.00  0.00     0.001 A 
HETATM   27  C           1      -1.803   0.357  -1.625  0.00  0.00     0.007 A 
ENDBRANCH  21  22
ENDBRANCH  17  21
ENDBRANCH   2  17
TORSDOF 10
