REMARK  12 active torsions:
REMARK  status: ('A' for Active; 'I' for Inactive)
REMARK    1  A    between atoms: C_2  and  C_4 
REMARK    2  A    between atoms: C_4  and  C_5 
REMARK    3  A    between atoms: C_5  and  C_6 
REMARK    4  A    between atoms: C_6  and  C_7 
REMARK    5  A    between atoms: C_6  and  N_10 
REMARK       I    between atoms: N_10  and  C_11 
REMARK    6  A    between atoms: C_11  and  C_12 
REMARK    7  A    between atoms: C_12  and  C_13 
REMARK    8  A    between atoms: C_12  and  N_25 
REMARK    9  A    between atoms: C_13  and  C_14 
REMARK   10  A    between atoms: C_17  and  O_18 
REMARK   11  A    between atoms: O_18  and  P_19 
REMARK   12  A    between atoms: P_19  and  O_20 
ROOT
HETATM    1  C           1       0.592  -0.161   0.460  0.00  0.00     0.278 C 
ENDROOT
BRANCH   1   2
HETATM    2  C           1       1.452   0.639  -0.488  0.00  0.00     0.249 C 
HETATM    3  N           1       2.800   0.404  -0.552  0.00  0.00    -0.345 N 
HETATM    4  H           1       3.219  -0.305   0.035  0.00  0.00     0.163 HD
HETATM    5  O           1       0.952   1.485  -1.189  0.00  0.00    -0.271 OA
BRANCH   3   6
HETATM    6  C           1       3.626   1.173  -1.463  0.00  0.00     0.186 C 
BRANCH   6   7
HETATM    7  C           1       3.527   2.652  -1.115  0.00  0.00     0.046 C 
BRANCH   7   8
HETATM    8  C           1       2.980   3.420  -2.311  0.00  0.00     0.116 C 
BRANCH   8   9
HETATM    9  C           1       2.881   4.886  -1.967  0.00  0.00     0.172 C 
HETATM   10  O           1       2.453   5.699  -2.813  0.00  0.00    -0.648 OA
HETATM   11  O           1       3.227   5.286  -0.834  0.00  0.00    -0.648 OA
ENDBRANCH   8   9
ENDBRANCH   7   8
ENDBRANCH   6   7
BRANCH   6  12
HETATM   12  C           1       5.061   0.723  -1.340  0.00  0.00     0.196 C 
HETATM   13  O           1       5.367  -0.464  -1.582  0.00  0.00    -0.646 OA
HETATM   14  O           1       5.944   1.538  -0.995  0.00  0.00    -0.646 OA
ENDBRANCH   6  12
ENDBRANCH   3   6
ENDBRANCH   1   2
BRANCH   1  15
HETATM   15  C           1      -0.856   0.292   0.337  0.00  0.00     0.081 C 
BRANCH  15  16
HETATM   16  C           1      -1.767  -0.856   0.642  0.00  0.00    -0.056 A 
HETATM   17  C           1      -1.232  -2.101   0.974  0.00  0.00     0.010 A 
HETATM   18  C           1      -2.081  -3.171   1.258  0.00  0.00     0.038 A 
HETATM   19  C           1      -3.464  -2.996   1.210  0.00  0.00     0.081 A 
HETATM   20  C           1      -3.998  -1.752   0.877  0.00  0.00     0.038 A 
HETATM   21  C           1      -3.150  -0.682   0.593  0.00  0.00     0.010 A 
BRANCH  19  22
HETATM   22  O           1      -4.288  -4.036   1.485  0.00  0.00    -0.247 OA
BRANCH  22  23
HETATM   23  P           1      -5.881  -3.780   1.415  0.00  0.00     0.411 P 
HETATM   24  O           1      -6.596  -5.033   1.746  0.00  0.00    -0.624 OA
HETATM   25  O           1      -6.254  -2.726   2.384  0.00  0.00    -0.624 OA
BRANCH  23  26
HETATM   26  O           1      -6.285  -3.309  -0.076  0.00  0.00    -0.300 OA
HETATM   27  H           1      -7.218  -3.179  -0.046  0.00  0.00     0.223 HD
ENDBRANCH  23  26
ENDBRANCH  22  23
ENDBRANCH  19  22
ENDBRANCH  15  16
ENDBRANCH   1  15
BRANCH   1  28
HETATM   28  N           1       1.066   0.056   1.867  0.00  0.00    -0.066 N 
HETATM   29  H           1       0.470  -0.498   2.524  0.00  0.00     0.275 HD
HETATM   30  H           1       2.059  -0.256   1.952  0.00  0.00     0.275 HD
HETATM   31  H           1       0.996   1.071   2.105  0.00  0.00     0.275 HD
ENDBRANCH   1  28
TORSDOF 12
