REMARK  13 active torsions:
REMARK  status: ('A' for Active; 'I' for Inactive)
REMARK    1  A    between atoms: C_2  and  C_4 
REMARK    2  A    between atoms: C_4  and  C_5 
REMARK    3  A    between atoms: C_4  and  N_11 
REMARK    4  A    between atoms: C_5  and  O_6 
REMARK    5  A    between atoms: O_6  and  P_7 
REMARK    6  A    between atoms: P_7  and  O_9 
REMARK       I    between atoms: N_11  and  C_12 
REMARK    7  A    between atoms: C_12  and  C_13 
REMARK    8  A    between atoms: C_13  and  C_14 
REMARK    9  A    between atoms: C_13  and  N_26 
REMARK   10  A    between atoms: C_14  and  C_15 
REMARK   11  A    between atoms: C_18  and  O_19 
REMARK   12  A    between atoms: O_19  and  P_20 
REMARK   13  A    between atoms: P_20  and  O_21 
ROOT
HETATM    1  C           1       0.999   0.231   0.908  0.00  0.00     0.278 C 
ENDROOT
BRANCH   1   2
HETATM    2  C           1       1.859   1.030  -0.040  0.00  0.00     0.249 C 
HETATM    3  N           1       3.206   0.796  -0.105  0.00  0.00    -0.343 N 
HETATM    4  H           1       3.626   0.087   0.483  0.00  0.00     0.163 HD
HETATM    5  O           1       1.359   1.877  -0.742  0.00  0.00    -0.271 OA
BRANCH   3   6
HETATM    6  C           1       4.033   1.564  -1.016  0.00  0.00     0.210 C 
BRANCH   6   7
HETATM    7  C           1       3.934   3.030  -0.671  0.00  0.00     0.198 C 
HETATM    8  O           1       4.281   3.431   0.461  0.00  0.00    -0.646 OA
HETATM    9  O           1       3.505   3.844  -1.517  0.00  0.00    -0.646 OA
ENDBRANCH   6   7
BRANCH   6  10
HETATM   10  C           1       3.551   1.346  -2.444  0.00  0.00     0.217 C 
BRANCH  10  11
HETATM   11  O           1       2.218   1.764  -2.557  0.00  0.00    -0.287 OA
BRANCH  11  12
HETATM   12  P           1       1.547   1.601  -4.017  0.00  0.00     0.406 P 
HETATM   13  O           1       1.565   0.175  -4.413  0.00  0.00    -0.624 OA
HETATM   14  O           1       2.312   2.396  -5.003  0.00  0.00    -0.624 OA
BRANCH  12  15
HETATM   15  O           1       0.020   2.126  -3.968  0.00  0.00    -0.300 OA
HETATM   16  H           1      -0.308   2.003  -4.843  0.00  0.00     0.223 HD
ENDBRANCH  12  15
ENDBRANCH  11  12
ENDBRANCH  10  11
ENDBRANCH   6  10
ENDBRANCH   3   6
ENDBRANCH   1   2
BRANCH   1  17
HETATM   17  C           1      -0.450   0.684   0.785  0.00  0.00     0.081 C 
BRANCH  17  18
HETATM   18  C           1      -1.360  -0.465   1.089  0.00  0.00    -0.056 A 
HETATM   19  C           1      -0.825  -1.709   1.422  0.00  0.00     0.010 A 
HETATM   20  C           1      -1.674  -2.779   1.706  0.00  0.00     0.038 A 
HETATM   21  C           1      -3.057  -2.605   1.657  0.00  0.00     0.081 A 
HETATM   22  C           1      -3.592  -1.360   1.325  0.00  0.00     0.038 A 
HETATM   23  C           1      -2.743  -0.290   1.041  0.00  0.00     0.010 A 
BRANCH  21  24
HETATM   24  O           1      -3.881  -3.644   1.933  0.00  0.00    -0.247 OA
BRANCH  24  25
HETATM   25  P           1      -5.474  -3.389   1.862  0.00  0.00     0.411 P 
HETATM   26  O           1      -6.189  -4.641   2.194  0.00  0.00    -0.624 OA
HETATM   27  O           1      -5.848  -2.334   2.831  0.00  0.00    -0.624 OA
BRANCH  25  28
HETATM   28  O           1      -5.879  -2.917   0.371  0.00  0.00    -0.300 OA
HETATM   29  H           1      -6.811  -2.787   0.402  0.00  0.00     0.223 HD
ENDBRANCH  25  28
ENDBRANCH  24  25
ENDBRANCH  21  24
ENDBRANCH  17  18
ENDBRANCH   1  17
BRANCH   1  30
HETATM   30  N           1       1.472   0.447   2.314  0.00  0.00    -0.066 N 
HETATM   31  H           1       0.877  -0.106   2.972  0.00  0.00     0.275 HD
HETATM   32  H           1       2.466   0.136   2.399  0.00  0.00     0.275 HD
HETATM   33  H           1       1.403   1.462   2.553  0.00  0.00     0.275 HD
ENDBRANCH   1  30
TORSDOF 13
