REMARK  12 active torsions:
REMARK  status: ('A' for Active; 'I' for Inactive)
REMARK    1  A    between atoms: N_9  and  C_22 
REMARK    2  A    between atoms: O_14  and  P_15 
REMARK    3  A    between atoms: P_15  and  O_16 
REMARK    4  A    between atoms: O_16  and  C_17 
REMARK    5  A    between atoms: C_20  and  C_21 
REMARK    6  A    between atoms: C_21  and  C_22 
REMARK    7  A    between atoms: C_22  and  C_23 
REMARK       I    between atoms: C_23  and  N_24 
REMARK    8  A    between atoms: N_24  and  C_28 
REMARK    9  A    between atoms: C_27  and  C_28 
REMARK   10  A    between atoms: C_28  and  C_29 
REMARK   11  A    between atoms: C_29  and  C_30 
REMARK   12  A    between atoms: C_30  and  C_32 
REMARK       I    between atoms: N_31  and  C_32 
ROOT
HETATM    1  C           1       0.440  -0.405   0.469  0.00  0.00     0.278 C 
ENDROOT
BRANCH   1   2
HETATM    2  N           1       0.913  -0.188   1.876  0.00  0.00    -0.066 N 
HETATM    3  H           1       0.844   0.827   2.114  0.00  0.00     0.275 HD
HETATM    4  H           1       1.907  -0.500   1.960  0.00  0.00     0.275 HD
HETATM    5  H           1       0.318  -0.742   2.533  0.00  0.00     0.275 HD
ENDBRANCH   1   2
BRANCH   1   6
HETATM    6  C           1      -1.009   0.048   0.346  0.00  0.00     0.081 C 
BRANCH   6   7
HETATM    7  C           1      -1.919  -1.100   0.651  0.00  0.00    -0.056 A 
HETATM    8  C           1      -3.302  -0.926   0.602  0.00  0.00     0.010 A 
HETATM    9  C           1      -4.150  -1.996   0.886  0.00  0.00     0.038 A 
HETATM   10  C           1      -3.616  -3.241   1.218  0.00  0.00     0.081 A 
HETATM   11  C           1      -2.233  -3.415   1.267  0.00  0.00     0.038 A 
HETATM   12  C           1      -1.384  -2.345   0.983  0.00  0.00     0.010 A 
BRANCH  10  13
HETATM   13  O           1      -4.440  -4.280   1.494  0.00  0.00    -0.247 OA
BRANCH  13  14
HETATM   14  P           1      -6.033  -4.024   1.424  0.00  0.00     0.411 P 
HETATM   15  O           1      -6.406  -2.970   2.393  0.00  0.00    -0.624 OA
HETATM   16  O           1      -6.748  -5.277   1.755  0.00  0.00    -0.624 OA
BRANCH  14  17
HETATM   17  O           1      -6.438  -3.553  -0.067  0.00  0.00    -0.300 OA
HETATM   18  H           1      -7.370  -3.423  -0.037  0.00  0.00     0.223 HD
ENDBRANCH  14  17
ENDBRANCH  13  14
ENDBRANCH  10  13
ENDBRANCH   6   7
ENDBRANCH   1   6
BRANCH   1  19
HETATM   19  C           1       1.300   0.394  -0.479  0.00  0.00     0.249 C 
HETATM   20  O           1       0.800   1.241  -1.180  0.00  0.00    -0.271 OA
HETATM   21  N           1       2.648   0.160  -0.543  0.00  0.00    -0.345 N 
HETATM   22  H           1       3.067  -0.549   0.044  0.00  0.00     0.163 HD
BRANCH  21  23
HETATM   23  C           1       3.474   0.929  -1.454  0.00  0.00     0.186 C 
BRANCH  23  24
HETATM   24  C           1       4.909   0.479  -1.331  0.00  0.00     0.196 C 
HETATM   25  O           1       5.792   1.294  -0.986  0.00  0.00    -0.646 OA
HETATM   26  O           1       5.215  -0.708  -1.573  0.00  0.00    -0.646 OA
ENDBRANCH  23  24
BRANCH  23  27
HETATM   27  C           1       3.374   2.408  -1.106  0.00  0.00     0.045 C 
BRANCH  27  28
HETATM   28  C           1       2.827   3.176  -2.302  0.00  0.00     0.105 C 
BRANCH  28  29
HETATM   29  C           1       2.729   4.642  -1.958  0.00  0.00     0.215 C 
HETATM   30  N           1       3.108   5.080  -0.718  0.00  0.00    -0.370 N 
HETATM   31  H           1       3.042   6.063  -0.486  0.00  0.00     0.159 HD
HETATM   32  H           1       3.455   4.421  -0.032  0.00  0.00     0.159 HD
HETATM   33  O           1       2.315   5.428  -2.776  0.00  0.00    -0.274 OA
ENDBRANCH  28  29
ENDBRANCH  27  28
ENDBRANCH  23  27
ENDBRANCH  21  23
ENDBRANCH   1  19
TORSDOF 12
