REMARK  11 active torsions:
REMARK  status: ('A' for Active; 'I' for Inactive)
REMARK    1  A    between atoms: O_2  and  P_3 
REMARK    2  A    between atoms: P_3  and  O_4 
REMARK    3  A    between atoms: O_4  and  C_5 
REMARK    4  A    between atoms: C_5  and  C_6 
REMARK    5  A    between atoms: C_6  and  C_7 
REMARK    6  A    between atoms: C_6  and  N_24 
REMARK       I    between atoms: C_7  and  N_8 
REMARK    7  A    between atoms: N_8  and  C_12 
REMARK    8  A    between atoms: C_11  and  C_12 
REMARK    9  A    between atoms: C_12  and  C_13 
REMARK   10  A    between atoms: C_13  and  C_14 
REMARK   11  A    between atoms: C_14  and  C_16 
ROOT
HETATM    1  C           1      -0.135   0.555   0.275  0.00  0.00     0.251 C 
HETATM    2  N           1       0.761   0.418  -0.751  0.00  0.00    -0.345 N 
HETATM    3  H           1       0.766   1.087  -1.511  0.00  0.00     0.163 HD
HETATM    4  O           1      -0.142  -0.244   1.181  0.00  0.00    -0.271 OA
ENDROOT
BRANCH   1   5
HETATM    5  C           1      -1.114   1.703   0.274  0.00  0.00     0.298 C 
BRANCH   5   6
HETATM    6  C           1      -1.991   1.625   1.517  0.00  0.00     0.224 C 
BRANCH   6   7
HETATM    7  O           1      -2.694   0.412   1.518  0.00  0.00    -0.287 OA
BRANCH   7   8
HETATM    8  P           1      -3.678   0.165   2.774  0.00  0.00     0.406 P 
HETATM    9  O           1      -4.343  -1.149   2.629  0.00  0.00    -0.624 OA
HETATM   10  O           1      -2.891   0.185   4.028  0.00  0.00    -0.624 OA
BRANCH   8  11
HETATM   11  O           1      -4.795   1.331   2.822  0.00  0.00    -0.300 OA
HETATM   12  H           1      -5.328   1.126   3.571  0.00  0.00     0.223 HD
ENDBRANCH   8  11
ENDBRANCH   7   8
ENDBRANCH   6   7
ENDBRANCH   5   6
BRANCH   5  13
HETATM   13  N           1      -1.976   1.623  -0.951  0.00  0.00    -0.064 N 
HETATM   14  H           1      -2.499   0.719  -0.950  0.00  0.00     0.275 HD
HETATM   15  H           1      -1.374   1.678  -1.804  0.00  0.00     0.275 HD
HETATM   16  H           1      -2.654   2.418  -0.952  0.00  0.00     0.275 HD
ENDBRANCH   5  13
ENDBRANCH   1   5
BRANCH   2  17
HETATM   17  C           1       1.701  -0.686  -0.750  0.00  0.00     0.186 C 
BRANCH  17  18
HETATM   18  C           1       2.568  -0.606   0.482  0.00  0.00     0.196 C 
HETATM   19  O           1       3.808  -0.493   0.369  0.00  0.00    -0.646 OA
HETATM   20  O           1       2.046  -0.653   1.617  0.00  0.00    -0.646 OA
ENDBRANCH  17  18
BRANCH  17  21
HETATM   21  C           1       2.577  -0.606  -1.994  0.00  0.00     0.046 C 
BRANCH  21  22
HETATM   22  C           1       3.566  -1.764  -1.994  0.00  0.00     0.116 C 
BRANCH  22  23
HETATM   23  C           1       2.812  -3.071  -1.994  0.00  0.00     0.172 C 
HETATM   24  O           1       3.437  -4.154  -1.994  0.00  0.00    -0.648 OA
HETATM   25  O           1       1.562  -3.071  -1.994  0.00  0.00    -0.648 OA
ENDBRANCH  22  23
ENDBRANCH  21  22
ENDBRANCH  17  21
ENDBRANCH   2  17
TORSDOF 11
