REMARK  12 active torsions:
REMARK  status: ('A' for Active; 'I' for Inactive)
REMARK    1  A    between atoms: C_1  and  C_20 
REMARK    2  A    between atoms: C_1  and  C_2 
REMARK    3  A    between atoms: C_2  and  C_3 
REMARK    4  A    between atoms: C_3  and  C_4 
REMARK    5  A    between atoms: C_3  and  N_7 
REMARK       I    between atoms: N_7  and  C_8 
REMARK    6  A    between atoms: C_8  and  C_9 
REMARK    7  A    between atoms: C_9  and  C_10 
REMARK    8  A    between atoms: C_9  and  N_23 
REMARK    9  A    between atoms: C_10  and  O_11 
REMARK   10  A    between atoms: O_11  and  P_12 
REMARK   11  A    between atoms: P_12  and  O_13 
REMARK   12  A    between atoms: N_19  and  C_20 
ROOT
HETATM    1  N           1      -0.545   0.414  -0.118  0.00  0.00    -0.345 N 
HETATM    2  C           1       0.344   0.934   0.783  0.00  0.00     0.251 C 
HETATM    3  H           1      -1.540   0.507   0.041  0.00  0.00     0.163 HD
HETATM    4  O           1       1.532   0.823   0.593  0.00  0.00    -0.271 OA
ENDROOT
BRANCH   2   5
HETATM    5  C           1      -0.160   1.647   2.014  0.00  0.00     0.298 C 
BRANCH   5   6
HETATM    6  C           1       1.024   2.126   2.844  0.00  0.00     0.224 C 
BRANCH   6   7
HETATM    7  O           1       1.802   1.025   3.228  0.00  0.00    -0.287 OA
BRANCH   7   8
HETATM    8  P           1       3.107   1.357   4.121  0.00  0.00     0.406 P 
HETATM    9  O           1       3.818   0.099   4.441  0.00  0.00    -0.624 OA
HETATM   10  O           1       2.690   2.023   5.375  0.00  0.00    -0.624 OA
BRANCH   8  11
HETATM   11  O           1       4.091   2.335   3.294  0.00  0.00    -0.300 OA
HETATM   12  H           1       4.823   2.486   3.868  0.00  0.00     0.223 HD
ENDBRANCH   8  11
ENDBRANCH   7   8
ENDBRANCH   6   7
ENDBRANCH   5   6
BRANCH   5  13
HETATM   13  N           1      -0.993   0.705   2.831  0.00  0.00    -0.064 N 
HETATM   14  H           1      -1.343   1.197   3.683  0.00  0.00     0.275 HD
HETATM   15  H           1      -1.806   0.376   2.261  0.00  0.00     0.275 HD
HETATM   16  H           1      -0.413  -0.116   3.116  0.00  0.00     0.275 HD
ENDBRANCH   5  13
ENDBRANCH   2   5
BRANCH   1  17
HETATM   17  C           1      -0.061  -0.271  -1.301  0.00  0.00     0.185 C 
BRANCH  17  18
HETATM   18  C           1      -1.245  -0.750  -2.130  0.00  0.00     0.038 C 
BRANCH  18  19
HETATM   19  C           1      -0.738  -1.468  -3.374  0.00  0.00     0.030 C 
BRANCH  19  20
HETATM   20  C           1      -1.247  -2.904  -3.374  0.00  0.00     0.230 C 
BRANCH  20  21
HETATM   21  N           1      -2.747  -2.904  -3.374  0.00  0.00    -0.079 N 
HETATM   22  H           1      -3.096  -3.889  -3.374  0.00  0.00     0.274 HD
HETATM   23  H           1      -3.095  -2.412  -2.520  0.00  0.00     0.274 HD
HETATM   24  H           1      -3.095  -2.411  -4.227  0.00  0.00     0.274 HD
ENDBRANCH  20  21
ENDBRANCH  19  20
ENDBRANCH  18  19
ENDBRANCH  17  18
BRANCH  17  25
HETATM   25  C           1       0.779   0.677  -2.122  0.00  0.00     0.196 C 
HETATM   26  O           1       1.806   1.189  -1.628  0.00  0.00    -0.646 OA
HETATM   27  O           1       0.446   0.949  -3.296  0.00  0.00    -0.646 OA
ENDBRANCH  17  25
ENDBRANCH   1  17
TORSDOF 12
