REMARK  11 active torsions:
REMARK  status: ('A' for Active; 'I' for Inactive)
REMARK    1  A    between atoms: C_1  and  C_2 
REMARK    2  A    between atoms: C_1  and  O_27 
REMARK    3  A    between atoms: C_2  and  C_3 
REMARK    4  A    between atoms: C_2  and  N_22 
REMARK       I    between atoms: C_3  and  N_4 
REMARK    5  A    between atoms: N_4  and  C_8 
REMARK    6  A    between atoms: C_7  and  C_8 
REMARK    7  A    between atoms: C_8  and  C_9 
REMARK    8  A    between atoms: C_9  and  C_10 
REMARK    9  A    between atoms: C_10  and  C_12 
REMARK       I    between atoms: N_11  and  C_12 
REMARK   10  A    between atoms: O_25  and  P_26 
REMARK   11  A    between atoms: P_26  and  O_27 
ROOT
HETATM    1  C           1      -0.352   0.826   0.389  0.00  0.00     0.251 C 
HETATM    2  N           1       0.544   0.689  -0.637  0.00  0.00    -0.345 N 
HETATM    3  H           1       0.549   1.358  -1.397  0.00  0.00     0.163 HD
HETATM    4  O           1      -0.359   0.027   1.295  0.00  0.00    -0.271 OA
ENDROOT
BRANCH   1   5
HETATM    5  C           1      -1.331   1.974   0.388  0.00  0.00     0.298 C 
BRANCH   5   6
HETATM    6  C           1      -2.208   1.896   1.631  0.00  0.00     0.224 C 
BRANCH   6   7
HETATM    7  O           1      -2.911   0.683   1.632  0.00  0.00    -0.287 OA
BRANCH   7   8
HETATM    8  P           1      -3.895   0.436   2.888  0.00  0.00     0.406 P 
HETATM    9  O           1      -3.108   0.456   4.142  0.00  0.00    -0.624 OA
HETATM   10  O           1      -4.560  -0.878   2.742  0.00  0.00    -0.624 OA
BRANCH   8  11
HETATM   11  O           1      -5.012   1.602   2.936  0.00  0.00    -0.300 OA
HETATM   12  H           1      -5.546   1.398   3.685  0.00  0.00     0.223 HD
ENDBRANCH   8  11
ENDBRANCH   7   8
ENDBRANCH   6   7
ENDBRANCH   5   6
BRANCH   5  13
HETATM   13  N           1      -2.193   1.895  -0.837  0.00  0.00    -0.064 N 
HETATM   14  H           1      -2.717   0.990  -0.836  0.00  0.00     0.275 HD
HETATM   15  H           1      -1.592   1.949  -1.690  0.00  0.00     0.275 HD
HETATM   16  H           1      -2.871   2.690  -0.839  0.00  0.00     0.275 HD
ENDBRANCH   5  13
ENDBRANCH   1   5
BRANCH   2  17
HETATM   17  C           1       1.484  -0.414  -0.637  0.00  0.00     0.186 C 
BRANCH  17  18
HETATM   18  C           1       2.351  -0.335   0.596  0.00  0.00     0.196 C 
HETATM   19  O           1       3.590  -0.222   0.482  0.00  0.00    -0.646 OA
HETATM   20  O           1       1.829  -0.382   1.731  0.00  0.00    -0.646 OA
ENDBRANCH  17  18
BRANCH  17  21
HETATM   21  C           1       2.360  -0.335  -1.880  0.00  0.00     0.045 C 
BRANCH  21  22
HETATM   22  C           1       3.349  -1.493  -1.880  0.00  0.00     0.105 C 
BRANCH  22  23
HETATM   23  C           1       2.595  -2.800  -1.880  0.00  0.00     0.215 C 
HETATM   24  N           1       3.279  -3.985  -1.880  0.00  0.00    -0.370 N 
HETATM   25  H           1       4.291  -3.985  -1.880  0.00  0.00     0.159 HD
HETATM   26  H           1       2.773  -4.862  -1.880  0.00  0.00     0.159 HD
HETATM   27  O           1       1.387  -2.800  -1.880  0.00  0.00    -0.274 OA
ENDBRANCH  22  23
ENDBRANCH  21  22
ENDBRANCH  17  21
ENDBRANCH   2  17
TORSDOF 11
