REMARK  10 active torsions:
REMARK  status: ('A' for Active; 'I' for Inactive)
REMARK    1  A    between atoms: C_1  and  C_30 
REMARK    2  A    between atoms: N_10  and  C_17 
REMARK    3  A    between atoms: O_13  and  P_14 
REMARK    4  A    between atoms: P_14  and  O_15 
REMARK    5  A    between atoms: O_15  and  C_16 
REMARK    6  A    between atoms: C_16  and  C_17 
REMARK    7  A    between atoms: C_17  and  C_18 
REMARK       I    between atoms: C_18  and  N_19 
REMARK    8  A    between atoms: N_19  and  C_30 
REMARK    9  A    between atoms: C_28  and  C_29 
REMARK   10  A    between atoms: C_29  and  C_30 
ROOT
HETATM    1  H           1      -3.922  -0.276   0.725  0.00  0.00     0.163 HD
HETATM    2  O           1      -1.977  -2.199   0.001  0.00  0.00    -0.271 OA
HETATM    3  C           1      -2.185  -1.016  -0.122  0.00  0.00     0.251 C 
HETATM    4  N           1      -2.917  -0.348   0.822  0.00  0.00    -0.344 N 
ENDROOT
BRANCH   4   5
HETATM    5  C           1      -2.253   0.257   1.960  0.00  0.00     0.190 C 
BRANCH   5   6
HETATM    6  C           1      -3.278   0.926   2.843  0.00  0.00     0.197 C 
HETATM    7  O           1      -4.198   0.252   3.353  0.00  0.00    -0.646 OA
HETATM    8  O           1      -3.207   2.155   3.063  0.00  0.00    -0.646 OA
ENDBRANCH   5   6
BRANCH   5   9
HETATM    9  C           1      -1.250   1.294   1.470  0.00  0.00     0.077 C 
BRANCH   9  10
HETATM   10  C           1       0.079   0.640   1.255  0.00  0.00    -0.028 A 
HETATM   11  C           1       1.265   1.281   0.801  0.00  0.00    -0.002 A 
HETATM   12  C           1       1.585   2.602   0.432  0.00  0.00     0.014 A 
HETATM   13  C           1       2.262   0.307   0.743  0.00  0.00     0.042 A 
HETATM   14  C           1       2.889   2.901   0.020  0.00  0.00     0.001 A 
HETATM   15  C           1       3.865   1.907  -0.028  0.00  0.00     0.002 A 
HETATM   16  C           1       3.571   0.589   0.333  0.00  0.00     0.030 A 
HETATM   17  N           1       1.693  -0.879   1.149  0.00  0.00    -0.365 N 
HETATM   18  H           1       2.198  -1.797   1.211  0.00  0.00     0.165 HD
HETATM   19  C           1       0.373  -0.689   1.461  0.00  0.00     0.096 A 
ENDBRANCH   9  10
ENDBRANCH   5   9
ENDBRANCH   4   5
BRANCH   3  20
HETATM   20  C           1      -1.637  -0.274  -1.317  0.00  0.00     0.298 C 
BRANCH  20  21
HETATM   21  N           1      -0.718   0.815  -0.849  0.00  0.00    -0.064 N 
HETATM   22  H           1       0.071   0.396  -0.307  0.00  0.00     0.275 HD
HETATM   23  H           1      -1.246   1.479  -0.239  0.00  0.00     0.275 HD
HETATM   24  H           1      -0.338   1.330  -1.676  0.00  0.00     0.275 HD
ENDBRANCH  20  21
BRANCH  20  25
HETATM   25  C           1      -0.867  -1.241  -2.206  0.00  0.00     0.224 C 
BRANCH  25  26
HETATM   26  O           1       0.193  -1.802  -1.479  0.00  0.00    -0.287 OA
BRANCH  26  27
HETATM   27  P           1       1.118  -2.857  -2.278  0.00  0.00     0.406 P 
HETATM   28  O           1       1.731  -2.189  -3.448  0.00  0.00    -0.624 OA
HETATM   29  O           1       2.183  -3.357  -1.380  0.00  0.00    -0.624 OA
BRANCH  27  30
HETATM   30  O           1       0.213  -4.097  -2.780  0.00  0.00    -0.300 OA
HETATM   31  H           1       0.810  -4.667  -3.233  0.00  0.00     0.223 HD
ENDBRANCH  27  30
ENDBRANCH  26  27
ENDBRANCH  25  26
ENDBRANCH  20  25
ENDBRANCH   3  20
TORSDOF 10
