REMARK  11 active torsions:
REMARK  status: ('A' for Active; 'I' for Inactive)
REMARK    1  A    between atoms: C_2  and  C_4 
REMARK    2  A    between atoms: C_4  and  C_5 
REMARK    3  A    between atoms: C_5  and  C_28 
REMARK    4  A    between atoms: C_5  and  N_25 
REMARK    5  A    between atoms: N_10  and  C_23 
REMARK    6  A    between atoms: O_15  and  P_16 
REMARK    7  A    between atoms: P_16  and  O_17 
REMARK    8  A    between atoms: O_17  and  C_18 
REMARK    9  A    between atoms: C_21  and  C_22 
REMARK   10  A    between atoms: C_22  and  C_23 
REMARK   11  A    between atoms: C_23  and  C_24 
REMARK       I    between atoms: C_24  and  N_25 
ROOT
HETATM    1  C           1       0.370  -0.295   0.811  0.00  0.00     0.260 C 
ENDROOT
BRANCH   1   2
HETATM    2  N           1       0.844  -0.078   2.218  0.00  0.00    -0.067 N 
HETATM    3  H           1       0.248  -0.632   2.875  0.00  0.00     0.275 HD
HETATM    4  H           1       1.837  -0.390   2.302  0.00  0.00     0.275 HD
HETATM    5  H           1       0.774   0.937   2.456  0.00  0.00     0.275 HD
ENDBRANCH   1   2
BRANCH   1   6
HETATM    6  C           1      -1.078   0.158   0.688  0.00  0.00     0.079 C 
BRANCH   6   7
HETATM    7  C           1      -1.989  -0.990   0.993  0.00  0.00    -0.056 A 
HETATM    8  C           1      -3.372  -0.816   0.944  0.00  0.00     0.010 A 
HETATM    9  C           1      -4.220  -1.886   1.228  0.00  0.00     0.038 A 
HETATM   10  C           1      -3.686  -3.131   1.560  0.00  0.00     0.081 A 
HETATM   11  C           1      -2.303  -3.305   1.609  0.00  0.00     0.038 A 
HETATM   12  C           1      -1.454  -2.235   1.325  0.00  0.00     0.010 A 
BRANCH  10  13
HETATM   13  O           1      -4.510  -4.170   1.836  0.00  0.00    -0.247 OA
BRANCH  13  14
HETATM   14  P           1      -6.103  -3.914   1.766  0.00  0.00     0.411 P 
HETATM   15  O           1      -6.476  -2.860   2.735  0.00  0.00    -0.624 OA
HETATM   16  O           1      -6.818  -5.167   2.097  0.00  0.00    -0.624 OA
BRANCH  14  17
HETATM   17  O           1      -6.507  -3.443   0.275  0.00  0.00    -0.300 OA
HETATM   18  H           1      -7.440  -3.313   0.305  0.00  0.00     0.223 HD
ENDBRANCH  14  17
ENDBRANCH  13  14
ENDBRANCH  10  13
ENDBRANCH   6   7
ENDBRANCH   1   6
BRANCH   1  19
HETATM   19  C           1       1.230   0.505  -0.137  0.00  0.00     0.130 C 
HETATM   20  O           1       0.730   1.351  -0.838  0.00  0.00    -0.397 OA
HETATM   21  N           1       2.578   0.270  -0.201  0.00  0.00    -0.359 N 
HETATM   22  H           1       2.997  -0.439   0.386  0.00  0.00     0.162 HD
BRANCH  21  23
HETATM   23  C           1       3.404   1.039  -1.112  0.00  0.00     0.184 C 
BRANCH  23  24
HETATM   24  C           1       3.305   2.518  -0.764  0.00  0.00     0.040 C 
BRANCH  24  25
HETATM   25  C           1       2.758   3.286  -1.960  0.00  0.00    -0.018 C 
HETATM   26  C           1       1.375   2.755  -2.317  0.00  0.00     0.289 C 
HETATM   27  C           1       3.692   3.105  -3.149  0.00  0.00     0.009 C 
ENDBRANCH  24  25
ENDBRANCH  23  24
BRANCH  23  28
HETATM   28  C           1       4.839   0.589  -0.989  0.00  0.00     0.196 C 
HETATM   29  O           1       5.722   1.404  -0.644  0.00  0.00    -0.646 OA
HETATM   30  O           1       5.145  -0.598  -1.231  0.00  0.00    -0.646 OA
ENDBRANCH  23  28
ENDBRANCH  21  23
ENDBRANCH   1  19
TORSDOF 11
