REMARK  10 active torsions:
REMARK  status: ('A' for Active; 'I' for Inactive)
REMARK    1  A    between atoms: C_2  and  C_4 
REMARK    2  A    between atoms: C_4  and  C_5 
REMARK    3  A    between atoms: C_5  and  C_6 
REMARK    4  A    between atoms: C_5  and  N_9 
REMARK       I    between atoms: N_9  and  C_10 
REMARK    5  A    between atoms: C_10  and  C_11 
REMARK    6  A    between atoms: C_11  and  C_12 
REMARK    7  A    between atoms: C_11  and  N_18 
REMARK    8  A    between atoms: C_12  and  O_13 
REMARK    9  A    between atoms: O_13  and  P_14 
REMARK   10  A    between atoms: P_14  and  O_15 
ROOT
HETATM    1  N           1      -0.024   0.349   0.636  0.00  0.00    -0.345 N 
HETATM    2  C           1       0.763  -0.764   0.513  0.00  0.00     0.251 C 
HETATM    3  O           1       1.055  -1.179  -0.584  0.00  0.00    -0.271 OA
HETATM    4  H           1      -0.269   0.697   1.554  0.00  0.00     0.163 HD
ENDROOT
BRANCH   2   5
HETATM    5  C           1       1.265  -1.473   1.746  0.00  0.00     0.298 C 
BRANCH   5   6
HETATM    6  C           1       2.111  -2.671   1.335  0.00  0.00     0.224 C 
BRANCH   6   7
HETATM    7  O           1       1.334  -3.554   0.573  0.00  0.00    -0.287 OA
BRANCH   7   8
HETATM    8  P           1       2.082  -4.887   0.052  0.00  0.00     0.406 P 
HETATM    9  O           1       1.134  -5.710  -0.732  0.00  0.00    -0.624 OA
HETATM   10  O           1       2.569  -5.665   1.213  0.00  0.00    -0.624 OA
BRANCH   8  11
HETATM   11  O           1       3.333  -4.473  -0.881  0.00  0.00    -0.300 OA
HETATM   12  H           1       3.720  -5.290  -1.147  0.00  0.00     0.223 HD
ENDBRANCH   8  11
ENDBRANCH   7   8
ENDBRANCH   6   7
ENDBRANCH   5   6
BRANCH   5  13
HETATM   13  N           1       0.097  -1.944   2.562  0.00  0.00    -0.064 N 
HETATM   14  H           1       0.444  -2.435   3.417  0.00  0.00     0.275 HD
HETATM   15  H           1      -0.483  -1.122   2.845  0.00  0.00     0.275 HD
HETATM   16  H           1      -0.482  -2.602   1.993  0.00  0.00     0.275 HD
ENDBRANCH   5  13
ENDBRANCH   2   5
BRANCH   1  17
HETATM   17  C           1      -0.507   1.031  -0.550  0.00  0.00     0.185 C 
BRANCH  17  18
HETATM   18  C           1      -1.353   2.228  -0.137  0.00  0.00     0.040 C 
BRANCH  18  19
HETATM   19  C           1      -1.860   2.945  -1.381  0.00  0.00    -0.020 C 
HETATM   20  C           1      -3.383   2.945  -1.381  0.00  0.00     0.009 C 
HETATM   21  C           1      -1.352   4.381  -1.381  0.00  0.00     0.009 C 
ENDBRANCH  18  19
ENDBRANCH  17  18
BRANCH  17  22
HETATM   22  C           1       0.668   1.503  -1.371  0.00  0.00     0.196 C 
HETATM   23  O           1       1.494   0.676  -1.813  0.00  0.00    -0.646 OA
HETATM   24  O           1       0.815   2.721  -1.608  0.00  0.00    -0.646 OA
ENDBRANCH  17  22
ENDBRANCH   1  17
TORSDOF 10
