REMARK  13 active torsions:
REMARK  status: ('A' for Active; 'I' for Inactive)
REMARK    1  A    between atoms: C_2  and  C_4 
REMARK    2  A    between atoms: C_4  and  C_5 
REMARK    3  A    between atoms: C_4  and  N_17 
REMARK    4  A    between atoms: C_5  and  C_6 
REMARK    5  A    between atoms: C_9  and  O_10 
REMARK    6  A    between atoms: O_10  and  P_11 
REMARK    7  A    between atoms: P_11  and  O_13 
REMARK       I    between atoms: N_17  and  C_18 
REMARK    8  A    between atoms: C_18  and  C_19 
REMARK    9  A    between atoms: C_19  and  C_20 
REMARK   10  A    between atoms: C_19  and  N_26 
REMARK   11  A    between atoms: C_20  and  O_21 
REMARK   12  A    between atoms: O_21  and  P_22 
REMARK   13  A    between atoms: P_22  and  O_23 
ROOT
HETATM    1  C           1       2.536   1.180  -1.628  0.00  0.00     0.189 C 
ENDROOT
BRANCH   1   2
HETATM    2  C           1       3.396   1.980  -2.575  0.00  0.00     0.197 C 
HETATM    3  O           1       4.626   1.766  -2.634  0.00  0.00    -0.646 OA
HETATM    4  O           1       2.878   2.856  -3.302  0.00  0.00    -0.646 OA
ENDBRANCH   1   2
BRANCH   1   5
HETATM    5  C           1       1.087   1.634  -1.751  0.00  0.00     0.074 C 
BRANCH   5   6
HETATM    6  C           1       0.177   0.485  -1.446  0.00  0.00    -0.056 A 
HETATM    7  C           1       0.711  -0.759  -1.113  0.00  0.00     0.010 A 
HETATM    8  C           1      -0.137  -1.830  -0.830  0.00  0.00     0.038 A 
HETATM    9  C           1      -1.520  -1.655  -0.878  0.00  0.00     0.081 A 
HETATM   10  C           1      -2.055  -0.411  -1.211  0.00  0.00     0.038 A 
HETATM   11  C           1      -1.206   0.660  -1.495  0.00  0.00     0.010 A 
BRANCH   9  12
HETATM   12  O           1      -2.344  -2.695  -0.603  0.00  0.00    -0.247 OA
BRANCH  12  13
HETATM   13  P           1      -3.937  -2.439  -0.673  0.00  0.00     0.411 P 
HETATM   14  O           1      -4.312  -1.385   0.296  0.00  0.00    -0.624 OA
HETATM   15  O           1      -4.653  -3.691  -0.341  0.00  0.00    -0.624 OA
BRANCH  13  16
HETATM   16  O           1      -4.340  -1.967  -2.164  0.00  0.00    -0.300 OA
HETATM   17  H           1      -5.273  -1.836  -2.135  0.00  0.00     0.223 HD
ENDBRANCH  13  16
ENDBRANCH  12  13
ENDBRANCH   9  12
ENDBRANCH   5   6
ENDBRANCH   1   5
BRANCH   1  18
HETATM   18  N           1       2.993   1.390  -0.268  0.00  0.00    -0.344 N 
HETATM   19  C           1       2.361   0.762   0.771  0.00  0.00     0.251 C 
HETATM   20  O           1       2.733  -0.328   1.136  0.00  0.00    -0.271 OA
HETATM   21  H           1       3.780   2.000  -0.087  0.00  0.00     0.163 HD
BRANCH  19  22
HETATM   22  C           1       1.198   1.431   1.462  0.00  0.00     0.298 C 
BRANCH  22  23
HETATM   23  C           1       0.679   0.529   2.574  0.00  0.00     0.224 C 
BRANCH  23  24
HETATM   24  O           1       0.257  -0.691   2.027  0.00  0.00    -0.287 OA
BRANCH  24  25
HETATM   25  P           1      -0.326  -1.772   3.076  0.00  0.00     0.406 P 
HETATM   26  O           1      -0.725  -2.998   2.349  0.00  0.00    -0.624 OA
HETATM   27  O           1       0.717  -2.106   4.072  0.00  0.00    -0.624 OA
BRANCH  25  28
HETATM   28  O           1      -1.612  -1.152   3.831  0.00  0.00    -0.300 OA
HETATM   29  H           1      -1.898  -1.828   4.421  0.00  0.00     0.223 HD
ENDBRANCH  25  28
ENDBRANCH  24  25
ENDBRANCH  23  24
ENDBRANCH  22  23
BRANCH  22  30
HETATM   30  N           1       0.102   1.679   0.467  0.00  0.00    -0.064 N 
HETATM   31  H           1      -0.703   2.143   0.945  0.00  0.00     0.275 HD
HETATM   32  H           1       0.458   2.299  -0.295  0.00  0.00     0.275 HD
HETATM   33  H           1      -0.211   0.769   0.060  0.00  0.00     0.275 HD
ENDBRANCH  22  30
ENDBRANCH  19  22
ENDBRANCH   1  18
TORSDOF 13
