REMARK  11 active torsions:
REMARK  status: ('A' for Active; 'I' for Inactive)
REMARK    1  A    between atoms: N_2  and  C_11 
REMARK    2  A    between atoms: C_4  and  C_30 
REMARK    3  A    between atoms: N_9  and  C_30 
REMARK       I    between atoms: N_9  and  C_10 
REMARK    4  A    between atoms: C_10  and  C_11 
REMARK    5  A    between atoms: C_11  and  C_12 
REMARK    6  A    between atoms: C_12  and  C_13 
REMARK    7  A    between atoms: C_16  and  O_17 
REMARK    8  A    between atoms: O_17  and  P_18 
REMARK    9  A    between atoms: P_18  and  O_19 
REMARK   10  A    between atoms: C_30  and  C_31 
REMARK   11  A    between atoms: C_31  and  C_32 
ROOT
HETATM    1  C           1       0.207   0.408   1.106  0.00  0.00     0.278 C 
ENDROOT
BRANCH   1   2
HETATM    2  N           1       0.680   0.624   2.513  0.00  0.00    -0.066 N 
HETATM    3  H           1       0.085   0.071   3.170  0.00  0.00     0.275 HD
HETATM    4  H           1       1.674   0.313   2.597  0.00  0.00     0.275 HD
HETATM    5  H           1       0.611   1.640   2.751  0.00  0.00     0.275 HD
ENDBRANCH   1   2
BRANCH   1   6
HETATM    6  C           1       1.067   1.207   0.158  0.00  0.00     0.249 C 
HETATM    7  O           1       0.567   2.054  -0.543  0.00  0.00    -0.271 OA
HETATM    8  N           1       2.415   0.973   0.094  0.00  0.00    -0.344 N 
HETATM    9  H           1       2.834   0.264   0.681  0.00  0.00     0.163 HD
BRANCH   8  10
HETATM   10  C           1       3.241   1.741  -0.817  0.00  0.00     0.191 C 
BRANCH  10  11
HETATM   11  C           1       3.142   3.207  -0.472  0.00  0.00     0.197 C 
HETATM   12  O           1       2.713   4.021  -1.319  0.00  0.00    -0.646 OA
HETATM   13  O           1       3.489   3.608   0.660  0.00  0.00    -0.646 OA
ENDBRANCH  10  11
BRANCH  10  14
HETATM   14  C           1       2.760   1.523  -2.245  0.00  0.00     0.094 C 
BRANCH  14  15
HETATM   15  C           1       3.867   0.933  -3.062  0.00  0.00     0.028 A 
HETATM   16  N           1       5.118   0.641  -2.582  0.00  0.00    -0.354 N 
HETATM   17  C           1       5.775   0.147  -3.606  0.00  0.00     0.180 A 
ATOM     18  HN          1       5.464   0.778  -1.632  1.00  0.00     0.166 HD
HETATM   19  N           1       4.997   0.110  -4.728  0.00  0.00    -0.360 N 
HETATM   20  H           1       5.289  -0.240  -5.675  0.00  0.00     0.166 HD
HETATM   21  C           1       3.770   0.611  -4.394  0.00  0.00     0.114 A 
ENDBRANCH  14  15
ENDBRANCH  10  14
ENDBRANCH   8  10
ENDBRANCH   1   6
BRANCH   1  22
HETATM   22  C           1      -1.241   0.861   0.983  0.00  0.00     0.081 C 
BRANCH  22  23
HETATM   23  C           1      -2.152  -0.287   1.288  0.00  0.00    -0.056 A 
HETATM   24  C           1      -1.617  -1.532   1.620  0.00  0.00     0.010 A 
HETATM   25  C           1      -2.466  -2.602   1.904  0.00  0.00     0.038 A 
HETATM   26  C           1      -3.849  -2.428   1.855  0.00  0.00     0.081 A 
HETATM   27  C           1      -4.383  -1.183   1.523  0.00  0.00     0.038 A 
HETATM   28  C           1      -3.535  -0.113   1.239  0.00  0.00     0.010 A 
BRANCH  26  29
HETATM   29  O           1      -4.673  -3.467   2.131  0.00  0.00    -0.247 OA
BRANCH  29  30
HETATM   30  P           1      -6.266  -3.211   2.061  0.00  0.00     0.411 P 
HETATM   31  O           1      -6.981  -4.464   2.392  0.00  0.00    -0.624 OA
HETATM   32  O           1      -6.639  -2.157   3.030  0.00  0.00    -0.624 OA
BRANCH  30  33
HETATM   33  O           1      -6.671  -2.740   0.570  0.00  0.00    -0.300 OA
HETATM   34  H           1      -7.603  -2.610   0.600  0.00  0.00     0.223 HD
ENDBRANCH  30  33
ENDBRANCH  29  30
ENDBRANCH  26  29
ENDBRANCH  22  23
ENDBRANCH   1  22
TORSDOF 11
