REMARK  12 active torsions:
REMARK  status: ('A' for Active; 'I' for Inactive)
REMARK    1  A    between atoms: Se_2  and  C_3 
REMARK    2  A    between atoms: C_3  and  C_4 
REMARK    3  A    between atoms: C_4  and  C_5 
REMARK    4  A    between atoms: C_5  and  C_6 
REMARK    5  A    between atoms: C_5  and  N_9 
REMARK       I    between atoms: N_9  and  C_10 
REMARK    6  A    between atoms: C_10  and  C_11 
REMARK    7  A    between atoms: C_11  and  C_12 
REMARK    8  A    between atoms: C_11  and  N_24 
REMARK    9  A    between atoms: C_12  and  C_13 
REMARK   10  A    between atoms: C_16  and  O_17 
REMARK   11  A    between atoms: O_17  and  P_18 
REMARK   12  A    between atoms: P_18  and  O_19 
ROOT
HETATM    1  C           1       0.537  -0.452   0.719  0.00  0.00     0.278 C 
ENDROOT
BRANCH   1   2
HETATM    2  C           1       1.397   0.347  -0.229  0.00  0.00     0.249 C 
HETATM    3  N           1       2.745   0.113  -0.293  0.00  0.00    -0.345 N 
HETATM    4  H           1       3.164  -0.596   0.295  0.00  0.00     0.163 HD
HETATM    5  O           1       0.897   1.194  -0.930  0.00  0.00    -0.271 OA
BRANCH   3   6
HETATM    6  C           1       3.571   0.881  -1.204  0.00  0.00     0.185 C 
BRANCH   6   7
HETATM    7  C           1       3.472   2.361  -0.856  0.00  0.00     0.036 C 
BRANCH   7   8
HETATM    8  C           1       2.925   3.128  -2.052  0.00  0.00     0.003 C 
BRANCH   8   9
HETATM    9 Se           1       2.797   5.022  -1.607  0.00  0.00     0.000 Se
HETATM   10  C           1       2.092   5.551  -3.345  0.00  0.00     0.000 C 
ENDBRANCH   8   9
ENDBRANCH   7   8
ENDBRANCH   6   7
BRANCH   6  11
HETATM   11  C           1       5.006   0.432  -1.080  0.00  0.00     0.196 C 
HETATM   12  O           1       5.312  -0.756  -1.323  0.00  0.00    -0.646 OA
HETATM   13  O           1       5.889   1.247  -0.736  0.00  0.00    -0.646 OA
ENDBRANCH   6  11
ENDBRANCH   3   6
ENDBRANCH   1   2
BRANCH   1  14
HETATM   14  C           1      -0.911   0.001   0.596  0.00  0.00     0.081 C 
BRANCH  14  15
HETATM   15  C           1      -1.822  -1.148   0.901  0.00  0.00    -0.056 A 
HETATM   16  C           1      -1.287  -2.392   1.233  0.00  0.00     0.010 A 
HETATM   17  C           1      -2.136  -3.462   1.517  0.00  0.00     0.038 A 
HETATM   18  C           1      -3.519  -3.288   1.469  0.00  0.00     0.081 A 
HETATM   19  C           1      -4.053  -2.043   1.136  0.00  0.00     0.038 A 
HETATM   20  C           1      -3.205  -0.973   0.852  0.00  0.00     0.010 A 
BRANCH  18  21
HETATM   21  O           1      -4.343  -4.327   1.744  0.00  0.00    -0.247 OA
BRANCH  21  22
HETATM   22  P           1      -5.936  -4.072   1.674  0.00  0.00     0.411 P 
HETATM   23  O           1      -6.651  -5.324   2.005  0.00  0.00    -0.624 OA
HETATM   24  O           1      -6.309  -3.017   2.643  0.00  0.00    -0.624 OA
BRANCH  22  25
HETATM   25  O           1      -6.340  -3.600   0.183  0.00  0.00    -0.300 OA
HETATM   26  H           1      -7.273  -3.470   0.213  0.00  0.00     0.223 HD
ENDBRANCH  22  25
ENDBRANCH  21  22
ENDBRANCH  18  21
ENDBRANCH  14  15
ENDBRANCH   1  14
BRANCH   1  27
HETATM   27  N           1       1.011  -0.236   2.126  0.00  0.00    -0.066 N 
HETATM   28  H           1       0.415  -0.789   2.783  0.00  0.00     0.275 HD
HETATM   29  H           1       2.004  -0.547   2.211  0.00  0.00     0.275 HD
HETATM   30  H           1       0.941   0.779   2.364  0.00  0.00     0.275 HD
ENDBRANCH   1  27
TORSDOF 12
