REMARK  13 active torsions:
REMARK  status: ('A' for Active; 'I' for Inactive)
REMARK       I    between atoms: N_9  and  C_10 
REMARK       I    between atoms: C_10  and  N_11 
REMARK    1  A    between atoms: N_12  and  C_13 
REMARK    2  A    between atoms: C_13  and  C_14 
REMARK    3  A    between atoms: C_14  and  C_15 
REMARK    4  A    between atoms: C_15  and  C_16 
REMARK    5  A    between atoms: C_16  and  C_17 
REMARK    6  A    between atoms: C_16  and  N_20 
REMARK       I    between atoms: N_20  and  C_21 
REMARK    7  A    between atoms: C_21  and  C_22 
REMARK    8  A    between atoms: C_22  and  C_23 
REMARK    9  A    between atoms: C_22  and  N_35 
REMARK   10  A    between atoms: C_23  and  C_24 
REMARK   11  A    between atoms: C_27  and  O_28 
REMARK   12  A    between atoms: O_28  and  P_29 
REMARK   13  A    between atoms: P_29  and  O_30 
ROOT
HETATM    1  O           1       0.077   0.536  -1.941  0.00  0.00    -0.271 OA
HETATM    2  H           1       2.343  -1.254  -0.716  0.00  0.00     0.163 HD
HETATM    3  N           1       1.924  -0.544  -1.304  0.00  0.00    -0.345 N 
HETATM    4  C           1       0.577  -0.310  -1.239  0.00  0.00     0.249 C 
ENDROOT
BRANCH   4   5
HETATM    5  C           1      -0.283  -1.110  -0.291  0.00  0.00     0.278 C 
BRANCH   5   6
HETATM    6  C           1      -1.732  -0.657  -0.414  0.00  0.00     0.081 C 
BRANCH   6   7
HETATM    7  C           1      -2.642  -1.805  -0.110  0.00  0.00    -0.056 A 
HETATM    8  C           1      -2.108  -3.050   0.223  0.00  0.00     0.010 A 
HETATM    9  C           1      -2.956  -4.120   0.507  0.00  0.00     0.038 A 
HETATM   10  C           1      -4.339  -3.945   0.458  0.00  0.00     0.081 A 
HETATM   11  C           1      -4.874  -2.701   0.126  0.00  0.00     0.038 A 
HETATM   12  C           1      -4.025  -1.631  -0.158  0.00  0.00     0.010 A 
BRANCH  10  13
HETATM   13  O           1      -5.163  -4.985   0.734  0.00  0.00    -0.247 OA
BRANCH  13  14
HETATM   14  P           1      -6.756  -4.729   0.663  0.00  0.00     0.411 P 
HETATM   15  O           1      -7.472  -5.982   0.995  0.00  0.00    -0.624 OA
HETATM   16  O           1      -7.130  -3.675   1.632  0.00  0.00    -0.624 OA
BRANCH  14  17
HETATM   17  O           1      -7.161  -4.258  -0.827  0.00  0.00    -0.300 OA
HETATM   18  H           1      -8.094  -4.128  -0.797  0.00  0.00     0.223 HD
ENDBRANCH  14  17
ENDBRANCH  13  14
ENDBRANCH  10  13
ENDBRANCH   6   7
ENDBRANCH   5   6
BRANCH   5  19
HETATM   19  N           1       0.190  -0.893   1.116  0.00  0.00    -0.066 N 
HETATM   20  H           1      -0.405  -1.447   1.773  0.00  0.00     0.275 HD
HETATM   21  H           1       1.184  -1.205   1.200  0.00  0.00     0.275 HD
HETATM   22  H           1       0.121   0.122   1.354  0.00  0.00     0.275 HD
ENDBRANCH   5  19
ENDBRANCH   4   5
BRANCH   3  23
HETATM   23  C           1       2.751   0.224  -2.214  0.00  0.00     0.185 C 
BRANCH  23  24
HETATM   24  C           1       2.651   1.703  -1.866  0.00  0.00     0.038 C 
BRANCH  24  25
HETATM   25  C           1       3.131   1.923  -0.438  0.00  0.00     0.023 C 
BRANCH  25  26
HETATM   26  C           1       3.032   3.402  -0.090  0.00  0.00     0.138 C 
BRANCH  26  27
HETATM   27  N           1       3.495   3.614   1.289  0.00  0.00    -0.227 N 
HETATM   28  H           1       3.826   2.800   1.863  0.00  0.00     0.177 HD
HETATM   29  C           1       3.496   4.779   1.784  0.00  0.00     0.665 C 
HETATM   30  N           1       3.907   4.967   3.003  0.00  0.00    -0.235 N 
HETATM   31  N           1       3.098   5.762   1.092  0.00  0.00    -0.235 N 
HETATM   32  H           1       4.235   4.156   3.574  0.00  0.00     0.174 HD
HETATM   33  H           1       3.907   5.929   3.412  0.00  0.00     0.174 HD
HETATM   34  H           1       3.099   6.728   1.503  0.00  0.00     0.174 HD
HETATM   35  H           1       2.767   5.610   0.107  0.00  0.00     0.174 HD
ENDBRANCH  26  27
ENDBRANCH  25  26
ENDBRANCH  24  25
ENDBRANCH  23  24
BRANCH  23  36
HETATM   36  C           1       4.186  -0.226  -2.091  0.00  0.00     0.196 C 
HETATM   37  O           1       4.492  -1.413  -2.333  0.00  0.00    -0.646 OA
HETATM   38  O           1       5.069   0.589  -1.746  0.00  0.00    -0.646 OA
ENDBRANCH  23  36
ENDBRANCH   3  23
TORSDOF 13
