REMARK  6 active torsions:
REMARK  status: ('A' for Active; 'I' for Inactive)
REMARK    1  A    between atoms: C_3  and  C_4 
REMARK    2  A    between atoms: C_4  and  C_5 
REMARK    3  A    between atoms: C_4  and  N_9 
REMARK    4  A    between atoms: C_5  and  C_8 
REMARK       I    between atoms: C_6  and  N_9 
REMARK    5  A    between atoms: C_6  and  C_15 
REMARK    6  A    between atoms: C_8  and  C_10 
ROOT
HETATM    1  C           1       0.109   0.307  -0.478  0.00  0.00     0.251 C 
HETATM    2  O           1       1.019  -0.124   0.189  0.00  0.00    -0.271 OA
HETATM    3  N           1      -1.172   0.262   0.002  0.00  0.00    -0.345 N 
HETATM    4  H           1      -1.935   0.623  -0.557  0.00  0.00     0.163 HD
ENDROOT
BRANCH   3   5
HETATM    5  C           1      -1.437  -0.303   1.310  0.00  0.00     0.186 C 
BRANCH   5   6
HETATM    6  C           1      -2.916  -0.233   1.598  0.00  0.00     0.196 C 
HETATM    7  O           1      -3.728  -0.816   0.847  0.00  0.00    -0.646 OA
HETATM    8  O           1      -3.331   0.409   2.588  0.00  0.00    -0.646 OA
ENDBRANCH   5   6
BRANCH   5   9
HETATM    9  C           1      -0.676   0.485   2.368  0.00  0.00     0.046 C 
BRANCH   9  10
HETATM   10  C           1       0.285  -0.442   3.100  0.00  0.00     0.116 C 
BRANCH  10  11
HETATM   11  C           1       1.039   0.340   4.148  0.00  0.00     0.172 C 
HETATM   12  O           1       1.885  -0.234   4.867  0.00  0.00    -0.648 OA
HETATM   13  O           1       0.817   1.561   4.296  0.00  0.00    -0.648 OA
ENDBRANCH  10  11
ENDBRANCH   9  10
ENDBRANCH   5   9
ENDBRANCH   3   5
BRANCH   1  14
HETATM   14  C           1       0.385   0.896  -1.840  0.00  0.00     0.311 C 
HETATM   15  C           1      -0.254   0.054  -2.932  0.00  0.00     0.047 C 
HETATM   16  C           1       0.846  -0.892  -3.398  0.00  0.00     0.033 C 
HETATM   17  C           1       2.058  -0.538  -2.554  0.00  0.00     0.271 C 
HETATM   18  N           1       1.810   0.843  -2.150  0.00  0.00     0.097 N 
HETATM   19  H           1       2.036   1.469  -2.923  0.00  0.00     0.317 HD
ENDBRANCH   1  14
TORSDOF 6
