REMARK  7 active torsions:
REMARK  status: ('A' for Active; 'I' for Inactive)
REMARK    1  A    between atoms: P_1  and  O_2 
REMARK    2  A    between atoms: P_1  and  O_9 
REMARK    3  A    between atoms: O_2  and  C_7 
REMARK    4  A    between atoms: N_3  and  C_16 
REMARK       I    between atoms: N_3  and  C_5 
REMARK    5  A    between atoms: C_5  and  C_19 
REMARK    6  A    between atoms: C_7  and  C_16 
REMARK    7  A    between atoms: C_15  and  C_16 
ROOT
HETATM    1  C           1      -1.730   0.493   1.838  0.00  0.00     0.210 C 
ENDROOT
BRANCH   1   2
HETATM    2  N           1      -1.465   1.058   0.529  0.00  0.00    -0.343 N 
HETATM    3  C           1      -0.184   1.103   0.050  0.00  0.00     0.251 C 
HETATM    4  O           1       0.726   0.673   0.717  0.00  0.00    -0.271 OA
HETATM    5  H           1      -2.228   1.419  -0.029  0.00  0.00     0.163 HD
BRANCH   3   6
HETATM    6  C           1       0.091   1.692  -1.312  0.00  0.00     0.311 C 
HETATM    7  C           1      -0.547   0.851  -2.404  0.00  0.00     0.047 C 
HETATM    8  C           1       0.552  -0.096  -2.870  0.00  0.00     0.033 C 
HETATM    9  C           1       1.765   0.258  -2.027  0.00  0.00     0.271 C 
HETATM   10  N           1       1.517   1.640  -1.622  0.00  0.00     0.097 N 
HETATM   11  H           1       1.743   2.266  -2.395  0.00  0.00     0.317 HD
ENDBRANCH   3   6
ENDBRANCH   1   2
BRANCH   1  12
HETATM   12  C           1      -1.275  -0.960   1.864  0.00  0.00     0.217 C 
BRANCH  12  13
HETATM   13  O           1       0.100  -1.025   1.597  0.00  0.00    -0.287 OA
BRANCH  13  14
HETATM   14  P           1       0.751  -2.503   1.586  0.00  0.00     0.406 P 
HETATM   15  O           1       0.092  -3.325   0.547  0.00  0.00    -0.624 OA
HETATM   16  O           1       0.560  -3.135   2.911  0.00  0.00    -0.624 OA
BRANCH  14  17
HETATM   17  O           1       2.329  -2.393   1.263  0.00  0.00    -0.300 OA
HETATM   18  H           1       2.643  -3.281   1.272  0.00  0.00     0.223 HD
ENDBRANCH  14  17
ENDBRANCH  13  14
ENDBRANCH  12  13
ENDBRANCH   1  12
BRANCH   1  19
HETATM   19  C           1      -0.977   1.274   2.886  0.00  0.00     0.198 C 
HETATM   20  O           1      -1.199   2.495   3.035  0.00  0.00    -0.646 OA
HETATM   21  O           1      -0.130   0.701   3.605  0.00  0.00    -0.646 OA
ENDBRANCH   1  19
TORSDOF 7
