REMARK  3 active torsions:
REMARK  status: ('A' for Active; 'I' for Inactive)
REMARK    1  A    between atoms: C_1  and  C_2 
REMARK       I    between atoms: C_2  and  N_12 
REMARK    2  A    between atoms: C_4  and  C_11 
REMARK    3  A    between atoms: C_11  and  N_12 
ROOT
HETATM    1  C           1       0.259   0.374   0.723  0.00  0.00     0.251 C 
HETATM    2  N           1      -1.022   0.328   1.203  0.00  0.00    -0.349 N 
HETATM    3  O           1       1.169  -0.057   1.390  0.00  0.00    -0.271 OA
HETATM    4  H           1      -1.785   0.689   0.644  0.00  0.00     0.163 HD
ENDROOT
BRANCH   1   5
HETATM    5  C           1       0.535   0.962  -0.639  0.00  0.00     0.311 C 
HETATM    6  N           1       1.960   0.910  -0.949  0.00  0.00     0.097 N 
HETATM    7  C           1       2.208  -0.471  -1.353  0.00  0.00     0.271 C 
HETATM    8  H           1       2.186   1.536  -1.722  0.00  0.00     0.317 HD
HETATM    9  C           1       0.996  -0.826  -2.197  0.00  0.00     0.033 C 
HETATM   10  C           1      -0.104   0.121  -1.730  0.00  0.00     0.047 C 
ENDBRANCH   1   5
BRANCH   2  11
HETATM   11  C           1      -1.287  -0.237   2.512  0.00  0.00     0.235 C 
BRANCH  11  12
HETATM   12  C           1      -2.766  -0.167   2.801  0.00  0.00     0.191 C 
HETATM   13  O           1      -3.545   0.327   1.957  0.00  0.00    -0.647 OA
HETATM   14  O           1      -3.213  -0.604   3.883  0.00  0.00    -0.647 OA
ENDBRANCH  11  12
ENDBRANCH   2  11
TORSDOF 3
