REMARK  5 active torsions:
REMARK  status: ('A' for Active; 'I' for Inactive)
REMARK    1  A    between atoms: C_1  and  C_12 
REMARK    2  A    between atoms: C_1  and  C_2 
REMARK    3  A    between atoms: C_1  and  N_6 
REMARK       I    between atoms: N_6  and  C_7 
REMARK    4  A    between atoms: C_7  and  C_8 
REMARK    5  A    between atoms: C_12  and  O_17 
ROOT
HETATM    1  H           1      -1.791   0.597   0.022  0.00  0.00     0.163 HD
HETATM    2  N           1      -1.029   0.236   0.581  0.00  0.00    -0.343 N 
HETATM    3  C           1       0.253   0.281   0.101  0.00  0.00     0.251 C 
HETATM    4  O           1       1.163  -0.149   0.769  0.00  0.00    -0.271 OA
ENDROOT
BRANCH   2   5
HETATM    5  C           1      -1.293  -0.329   1.890  0.00  0.00     0.209 C 
BRANCH   5   6
HETATM    6  C           1      -0.533   0.460   2.948  0.00  0.00     0.200 C 
BRANCH   6   7
HETATM    7  O           1       0.353  -0.394   3.621  0.00  0.00    -0.398 OA
HETATM    8  H           1       0.801   0.129   4.264  0.00  0.00     0.209 HD
ENDBRANCH   6   7
ENDBRANCH   5   6
BRANCH   5   9
HETATM    9  C           1      -2.773  -0.258   2.178  0.00  0.00     0.198 C 
HETATM   10  O           1      -3.584  -0.842   1.427  0.00  0.00    -0.646 OA
HETATM   11  O           1      -3.187   0.383   3.167  0.00  0.00    -0.646 OA
ENDBRANCH   5   9
ENDBRANCH   2   5
BRANCH   3  12
HETATM   12  C           1       0.528   0.870  -1.261  0.00  0.00     0.311 C 
HETATM   13  N           1       1.954   0.817  -1.571  0.00  0.00     0.097 N 
HETATM   14  H           1       2.179   1.444  -2.344  0.00  0.00     0.317 HD
HETATM   15  C           1       2.202  -0.564  -1.975  0.00  0.00     0.271 C 
HETATM   16  C           1       0.989  -0.918  -2.819  0.00  0.00     0.033 C 
HETATM   17  C           1      -0.110   0.028  -2.352  0.00  0.00     0.047 C 
ENDBRANCH   3  12
TORSDOF 5
