REMARK  5 active torsions:
REMARK  status: ('A' for Active; 'I' for Inactive)
REMARK       I    between atoms: C_1  and  N_8 
REMARK    1  A    between atoms: C_1  and  C_9 
REMARK    2  A    between atoms: C_9  and  C_10 
REMARK    3  A    between atoms: C_10  and  C_11 
REMARK    4  A    between atoms: C_10  and  N_13 
REMARK       I    between atoms: N_13  and  C_16 
REMARK    5  A    between atoms: C_16  and  C_17 
ROOT
HETATM    1  C           1      -1.357  -0.111   1.554  0.00  0.00     0.194 C 
ENDROOT
BRANCH   1   2
HETATM    2  C           1      -0.596   0.678   2.612  0.00  0.00     0.138 C 
BRANCH   2   3
HETATM    3  C           1       0.357  -0.241   3.337  0.00  0.00     0.217 C 
HETATM    4  O           1       1.058   0.192   4.220  0.00  0.00    -0.274 OA
HETATM    5  N           1       0.426  -1.564   2.994  0.00  0.00    -0.370 N 
HETATM    6  H           1      -0.162  -1.927   2.254  0.00  0.00     0.159 HD
HETATM    7  H           1       1.065  -2.180   3.480  0.00  0.00     0.159 HD
ENDBRANCH   2   3
ENDBRANCH   1   2
BRANCH   1   8
HETATM    8  C           1      -2.836  -0.040   1.842  0.00  0.00     0.197 C 
HETATM    9  O           1      -3.648  -0.623   1.091  0.00  0.00    -0.646 OA
HETATM   10  O           1      -3.251   0.602   2.831  0.00  0.00    -0.646 OA
ENDBRANCH   1   8
BRANCH   1  11
HETATM   11  N           1      -1.092   0.454   0.245  0.00  0.00    -0.344 N 
HETATM   12  H           1      -1.855   0.815  -0.314  0.00  0.00     0.163 HD
HETATM   13  C           1       0.189   0.500  -0.235  0.00  0.00     0.251 C 
HETATM   14  O           1       1.099   0.069   0.433  0.00  0.00    -0.271 OA
BRANCH  13  15
HETATM   15  C           1       0.465   1.088  -1.597  0.00  0.00     0.311 C 
HETATM   16  C           1      -0.174   0.247  -2.688  0.00  0.00     0.047 C 
HETATM   17  C           1       0.926  -0.700  -3.155  0.00  0.00     0.033 C 
HETATM   18  C           1       2.138  -0.345  -2.311  0.00  0.00     0.271 C 
HETATM   19  N           1       1.891   1.036  -1.907  0.00  0.00     0.097 N 
HETATM   20  H           1       2.116   1.662  -2.680  0.00  0.00     0.317 HD
ENDBRANCH  13  15
ENDBRANCH   1  11
TORSDOF 5
