REMARK  8 active torsions:
REMARK  status: ('A' for Active; 'I' for Inactive)
REMARK    1  A    between atoms: C_3  and  O_4 
REMARK    2  A    between atoms: O_4  and  P_6 
REMARK    3  A    between atoms: C_5  and  C_21 
REMARK    4  A    between atoms: C_5  and  C_7 
REMARK    5  A    between atoms: C_5  and  N_18 
REMARK    6  A    between atoms: P_6  and  O_8 
REMARK    7  A    between atoms: C_7  and  C_24 
REMARK       I    between atoms: N_18  and  C_25 
REMARK    8  A    between atoms: C_25  and  C_26 
ROOT
HETATM    1  C           1       2.397   1.397  -1.370  0.00  0.00     0.189 C 
ENDROOT
BRANCH   1   2
HETATM    2  C           1       3.257   2.196  -2.318  0.00  0.00     0.197 C 
HETATM    3  O           1       4.487   1.982  -2.377  0.00  0.00    -0.646 OA
HETATM    4  O           1       2.739   3.072  -3.044  0.00  0.00    -0.646 OA
ENDBRANCH   1   2
BRANCH   1   5
HETATM    5  C           1       0.948   1.850  -1.493  0.00  0.00     0.070 C 
BRANCH   5   6
HETATM    6  C           1       0.037   0.702  -1.189  0.00  0.00    -0.073 A 
HETATM    7  C           1       0.572  -0.543  -0.856  0.00  0.00     0.027 A 
HETATM    8  C           1      -0.276  -1.613  -0.572  0.00  0.00     0.015 A 
HETATM    9  C           1      -1.659  -1.439  -0.621  0.00  0.00     0.078 A 
HETATM   10  C           1      -2.194  -0.194  -0.953  0.00  0.00     0.037 A 
HETATM   11  C           1      -1.346   0.876  -1.237  0.00  0.00     0.006 A 
BRANCH   9  12
HETATM   12  O           1      -2.484  -2.478  -0.345  0.00  0.00    -0.248 OA
BRANCH  12  13
HETATM   13  P           1      -4.077  -2.223  -0.416  0.00  0.00     0.411 P 
HETATM   14  O           1      -4.451  -1.168   0.553  0.00  0.00    -0.624 OA
HETATM   15  O           1      -4.792  -3.475  -0.083  0.00  0.00    -0.624 OA
BRANCH  13  16
HETATM   16  O           1      -4.480  -1.750  -1.907  0.00  0.00    -0.300 OA
HETATM   17  H           1      -5.412  -1.620  -1.877  0.00  0.00     0.223 HD
ENDBRANCH  13  16
ENDBRANCH  12  13
ENDBRANCH   9  12
ENDBRANCH   5   6
ENDBRANCH   1   5
BRANCH   1  18
HETATM   18  N           1       2.854   1.606  -0.010  0.00  0.00    -0.344 N 
HETATM   19  H           1       3.641   2.216   0.171  0.00  0.00     0.163 HD
HETATM   20  C           1       2.221   0.978   1.029  0.00  0.00     0.252 C 
HETATM   21  O           1       2.602   1.153   2.162  0.00  0.00    -0.271 OA
BRANCH  20  22
HETATM   22  C           1       1.048   0.069   0.759  0.00  0.00     0.345 C 
HETATM   23  C           1      -0.188   0.545   1.503  0.00  0.00     0.048 C 
HETATM   24  C           1      -0.197  -0.248   2.805  0.00  0.00     0.033 C 
HETATM   25  C           1       1.029  -1.142   2.734  0.00  0.00     0.271 C 
HETATM   26  N           1       1.289  -1.265   1.302  0.00  0.00     0.097 N 
HETATM   27  H           1       0.643  -1.943   0.897  0.00  0.00     0.317 HD
ENDBRANCH  20  22
ENDBRANCH   1  18
TORSDOF 8
