REMARK  6 active torsions:
REMARK  status: ('A' for Active; 'I' for Inactive)
REMARK    1  A    between atoms: C_6  and  C_19 
REMARK    2  A    between atoms: C_6  and  C_14 
REMARK    3  A    between atoms: C_9  and  C_21 
REMARK    4  A    between atoms: N_11  and  C_14 
REMARK       I    between atoms: N_11  and  C_21 
REMARK    5  A    between atoms: C_14  and  C_23 
REMARK    6  A    between atoms: C_15  and  O_16 
ROOT
HETATM    1  C           1       0.384  -1.083  -0.152  0.00  0.00     0.189 C 
ENDROOT
BRANCH   1   2
HETATM    2  C           1       1.832  -1.536  -0.029  0.00  0.00     0.074 C 
BRANCH   2   3
HETATM    3  C           1       2.743  -0.387  -0.334  0.00  0.00    -0.056 A 
HETATM    4  C           1       4.126  -0.562  -0.285  0.00  0.00     0.010 A 
HETATM    5  C           1       4.974   0.508  -0.569  0.00  0.00     0.037 A 
HETATM    6  C           1       4.440   1.753  -0.902  0.00  0.00     0.065 A 
HETATM    7  C           1       3.057   1.927  -0.950  0.00  0.00     0.037 A 
HETATM    8  C           1       2.208   0.857  -0.666  0.00  0.00     0.010 A 
BRANCH   6   9
HETATM    9  O           1       5.264   2.793  -1.178  0.00  0.00    -0.361 OA
HETATM   10  H           1       4.713   3.566  -1.384  0.00  0.00     0.217 HD
ENDBRANCH   6   9
ENDBRANCH   2   3
ENDBRANCH   1   2
BRANCH   1  11
HETATM   11  N           1      -0.078  -0.588   1.130  0.00  0.00    -0.344 N 
HETATM   12  H           1       0.547  -0.586   1.926  0.00  0.00     0.163 HD
HETATM   13  C           1      -1.358  -0.123   1.264  0.00  0.00     0.251 C 
HETATM   14  O           1      -1.743   0.289   2.332  0.00  0.00    -0.271 OA
BRANCH  13  15
HETATM   15  C           1      -2.290  -0.125   0.077  0.00  0.00     0.311 C 
HETATM   16  C           1      -3.088   1.165   0.013  0.00  0.00     0.047 C 
HETATM   17  C           1      -4.401   0.856   0.722  0.00  0.00     0.033 C 
HETATM   18  C           1      -4.288  -0.598   1.148  0.00  0.00     0.271 C 
HETATM   19  N           1      -3.311  -1.159   0.220  0.00  0.00     0.097 N 
HETATM   20  H           1      -3.762  -1.348  -0.676  0.00  0.00     0.317 HD
ENDBRANCH  13  15
ENDBRANCH   1  11
BRANCH   1  21
HETATM   21  C           1      -0.474  -2.248  -0.579  0.00  0.00     0.197 C 
HETATM   22  O           1       0.045  -3.369  -0.772  0.00  0.00    -0.646 OA
HETATM   23  O           1      -1.704  -2.093  -0.740  0.00  0.00    -0.646 OA
ENDBRANCH   1  21
TORSDOF 6
