REMARK  5 active torsions:
REMARK  status: ('A' for Active; 'I' for Inactive)
REMARK    1  A    between atoms: N_6  and  C_13 
REMARK       I    between atoms: N_6  and  C_17 
REMARK    2  A    between atoms: C_13  and  C_19 
REMARK    3  A    between atoms: C_13  and  C_14 
REMARK    4  A    between atoms: C_14  and  C_15 
REMARK    5  A    between atoms: C_16  and  C_17 
ROOT
HETATM    1  C           1       0.681   1.819  -1.452  0.00  0.00     0.191 C 
ENDROOT
BRANCH   1   2
HETATM    2  N           1       1.283   1.974  -0.142  0.00  0.00    -0.344 N 
HETATM    3  H           1       1.807   2.812   0.078  0.00  0.00     0.163 HD
HETATM    4  C           1       1.143   0.988   0.797  0.00  0.00     0.252 C 
HETATM    5  O           1       1.644   1.118   1.888  0.00  0.00    -0.271 OA
BRANCH   4   6
HETATM    6  C           1       0.361  -0.260   0.469  0.00  0.00     0.372 C 
HETATM    7  C           1      -0.751  -0.483   1.480  0.00  0.00     0.048 C 
HETATM    8  C           1      -0.160  -1.431   2.517  0.00  0.00     0.033 C 
HETATM    9  C           1       1.256  -1.707   2.041  0.00  0.00     0.271 C 
HETATM   10  N           1       1.198  -1.449   0.605  0.00  0.00     0.097 N 
HETATM   11  H           1       0.773  -2.247   0.133  0.00  0.00     0.317 HD
ENDBRANCH   4   6
ENDBRANCH   1   2
BRANCH   1  12
HETATM   12  C           1       0.982   3.037  -2.291  0.00  0.00     0.197 C 
HETATM   13  O           1       0.047   3.735  -2.738  0.00  0.00    -0.646 OA
HETATM   14  O           1       2.167   3.347  -2.539  0.00  0.00    -0.646 OA
ENDBRANCH   1  12
BRANCH   1  15
HETATM   15  C           1      -0.827   1.666  -1.302  0.00  0.00     0.090 C 
BRANCH  15  16
HETATM   16  C           1      -1.170   0.215  -1.158  0.00  0.00     0.008 A 
HETATM   17  N           1      -2.441  -0.273  -1.003  0.00  0.00    -0.358 N 
HETATM   18  C           1      -2.304  -1.576  -0.914  0.00  0.00     0.176 A 
ATOM     19  HN          1      -3.309   0.262  -0.965  1.00  0.00     0.166 HD
HETATM   20  N           1      -0.992  -1.948  -1.005  0.00  0.00    -0.380 N 
HETATM   21  H           1      -0.621  -2.929  -0.963  0.00  0.00     0.160 HD
HETATM   22  C           1      -0.252  -0.808  -1.162  0.00  0.00     0.109 A 
ENDBRANCH  15  16
ENDBRANCH   1  15
TORSDOF 5
