REMARK  5 active torsions:
REMARK  status: ('A' for Active; 'I' for Inactive)
REMARK    1  A    between atoms: C_4  and  C_13 
REMARK    2  A    between atoms: C_4  and  C_18 
REMARK       I    between atoms: C_7  and  N_15 
REMARK    3  A    between atoms: C_7  and  C_16 
REMARK    4  A    between atoms: C_8  and  C_18 
REMARK    5  A    between atoms: N_15  and  C_18 
ROOT
HETATM    1  H           1      -1.823   0.664  -0.111  0.00  0.00     0.163 HD
HETATM    2  C           1       0.221   0.348  -0.032  0.00  0.00     0.251 C 
HETATM    3  O           1       1.131  -0.083   0.635  0.00  0.00    -0.271 OA
HETATM    4  N           1      -1.061   0.303   0.448  0.00  0.00    -0.344 N 
ENDROOT
BRANCH   4   5
HETATM    5  C           1      -1.325  -0.262   1.757  0.00  0.00     0.195 C 
BRANCH   5   6
HETATM    6  C           1      -0.565   0.526   2.814  0.00  0.00     0.149 C 
BRANCH   6   7
HETATM    7  C           1       0.388  -0.392   3.539  0.00  0.00     0.175 C 
HETATM    8  O           1       0.451  -1.600   3.226  0.00  0.00    -0.648 OA
HETATM    9  O           1       1.114   0.056   4.453  0.00  0.00    -0.648 OA
ENDBRANCH   6   7
ENDBRANCH   5   6
BRANCH   5  10
HETATM   10  C           1      -2.805  -0.192   2.044  0.00  0.00     0.197 C 
HETATM   11  O           1      -3.219   0.450   3.034  0.00  0.00    -0.646 OA
HETATM   12  O           1      -3.616  -0.775   1.293  0.00  0.00    -0.646 OA
ENDBRANCH   5  10
ENDBRANCH   4   5
BRANCH   2  13
HETATM   13  C           1       0.496   0.937  -1.394  0.00  0.00     0.311 C 
HETATM   14  N           1       1.922   0.884  -1.704  0.00  0.00     0.097 N 
HETATM   15  C           1       2.170  -0.497  -2.108  0.00  0.00     0.271 C 
HETATM   16  H           1       2.147   1.510  -2.477  0.00  0.00     0.317 HD
HETATM   17  C           1       0.957  -0.851  -2.952  0.00  0.00     0.033 C 
HETATM   18  C           1      -0.142   0.095  -2.485  0.00  0.00     0.047 C 
ENDBRANCH   2  13
TORSDOF 5
