REMARK  6 active torsions:
REMARK  status: ('A' for Active; 'I' for Inactive)
REMARK    1  A    between atoms: C_2  and  C_3 
REMARK    2  A    between atoms: C_3  and  C_14 
REMARK    3  A    between atoms: C_3  and  N_13 
REMARK       I    between atoms: N_8  and  C_10 
REMARK    4  A    between atoms: C_10  and  C_17 
REMARK       I    between atoms: N_13  and  C_20 
REMARK    5  A    between atoms: C_14  and  C_17 
REMARK    6  A    between atoms: C_20  and  C_21 
ROOT
HETATM    1  C           1      -1.478  -0.439   1.046  0.00  0.00     0.186 C 
ENDROOT
BRANCH   1   2
HETATM    2  C           1      -2.958  -0.368   1.334  0.00  0.00     0.196 C 
HETATM    3  O           1      -3.769  -0.951   0.583  0.00  0.00    -0.646 OA
HETATM    4  O           1      -3.372   0.274   2.323  0.00  0.00    -0.646 OA
ENDBRANCH   1   2
BRANCH   1   5
HETATM    5  C           1      -0.718   0.350   2.104  0.00  0.00     0.045 C 
BRANCH   5   6
HETATM    6  C           1       0.244  -0.577   2.835  0.00  0.00     0.105 C 
BRANCH   6   7
HETATM    7  C           1       0.998   0.204   3.883  0.00  0.00     0.215 C 
HETATM    8  N           1       0.755   1.542   4.046  0.00  0.00    -0.370 N 
HETATM    9  H           1       1.260   2.066   4.749  0.00  0.00     0.159 HD
HETATM   10  H           1       0.070   2.006   3.463  0.00  0.00     0.159 HD
HETATM   11  O           1       1.815  -0.350   4.579  0.00  0.00    -0.274 OA
ENDBRANCH   6   7
ENDBRANCH   5   6
ENDBRANCH   1   5
BRANCH   1  12
HETATM   12  N           1      -1.214   0.126  -0.263  0.00  0.00    -0.345 N 
HETATM   13  H           1      -1.976   0.487  -0.822  0.00  0.00     0.163 HD
HETATM   14  C           1       0.068   0.172  -0.743  0.00  0.00     0.251 C 
HETATM   15  O           1       0.978  -0.259  -0.076  0.00  0.00    -0.271 OA
BRANCH  14  16
HETATM   16  C           1       0.343   0.760  -2.105  0.00  0.00     0.311 C 
HETATM   17  N           1       1.769   0.708  -2.415  0.00  0.00     0.097 N 
HETATM   18  C           1       2.017  -0.674  -2.819  0.00  0.00     0.271 C 
HETATM   19  H           1       1.994   1.334  -3.188  0.00  0.00     0.317 HD
HETATM   20  C           1       0.804  -1.028  -3.663  0.00  0.00     0.033 C 
HETATM   21  C           1      -0.295  -0.081  -3.196  0.00  0.00     0.047 C 
ENDBRANCH  14  16
ENDBRANCH   1  12
TORSDOF 6
