REMARK  5 active torsions:
REMARK  status: ('A' for Active; 'I' for Inactive)
REMARK    1  A    between atoms: C_3  and  C_6 
REMARK    2  A    between atoms: C_3  and  C_17 
REMARK    3  A    between atoms: C_9  and  C_10 
REMARK       I    between atoms: C_10  and  N_15 
REMARK    4  A    between atoms: N_15  and  C_17 
REMARK    5  A    between atoms: C_16  and  C_17 
ROOT
HETATM    1  H           1      -1.924   0.939  -0.782  0.00  0.00     0.162 HD
HETATM    2  C           1       0.120   0.623  -0.703  0.00  0.00     0.133 C 
HETATM    3  N           1      -1.161   0.578  -0.223  0.00  0.00    -0.359 N 
HETATM    4  O           1       1.030   0.192  -0.035  0.00  0.00    -0.397 OA
ENDROOT
BRANCH   3   5
HETATM    5  C           1      -1.426   0.012   1.086  0.00  0.00     0.184 C 
BRANCH   5   6
HETATM    6  C           1      -0.665   0.801   2.144  0.00  0.00     0.040 C 
BRANCH   6   7
HETATM    7  C           1       0.296  -0.126   2.875  0.00  0.00    -0.018 C 
HETATM    8  C           1       1.283  -0.722   1.881  0.00  0.00     0.289 C 
HETATM    9  C           1      -0.489  -1.246   3.544  0.00  0.00     0.009 C 
ENDBRANCH   6   7
ENDBRANCH   5   6
BRANCH   5  10
HETATM   10  C           1      -2.906   0.083   1.374  0.00  0.00     0.196 C 
HETATM   11  O           1      -3.717  -0.500   0.623  0.00  0.00    -0.646 OA
HETATM   12  O           1      -3.320   0.725   2.363  0.00  0.00    -0.646 OA
ENDBRANCH   5  10
ENDBRANCH   3   5
BRANCH   2  13
HETATM   13  C           1       0.396   1.211  -2.065  0.00  0.00     0.292 C 
HETATM   14  C           1      -0.243   0.370  -3.156  0.00  0.00     0.046 C 
HETATM   15  C           1       0.857  -0.576  -3.623  0.00  0.00     0.033 C 
HETATM   16  C           1       2.069  -0.222  -2.779  0.00  0.00     0.270 C 
HETATM   17  N           1       1.821   1.159  -2.375  0.00  0.00     0.095 N 
HETATM   18  H           1       2.047   1.785  -3.148  0.00  0.00     0.316 HD
ENDBRANCH   2  13
TORSDOF 5
