REMARK  3 active torsions:
REMARK  status: ('A' for Active; 'I' for Inactive)
REMARK    1  A    between atoms: C_2  and  C_12 
REMARK    2  A    between atoms: N_6  and  C_12 
REMARK       I    between atoms: N_6  and  C_7 
REMARK    3  A    between atoms: C_7  and  C_10 
ROOT
HETATM    1  H           1      -1.753   0.595   0.192  0.00  0.00     0.163 HD
HETATM    2  N           1      -0.991   0.234   0.750  0.00  0.00    -0.345 N 
HETATM    3  C           1       0.291   0.280   0.271  0.00  0.00     0.251 C 
HETATM    4  O           1       1.201  -0.151   0.938  0.00  0.00    -0.271 OA
ENDROOT
BRANCH   3   5
HETATM    5  C           1       0.566   0.868  -1.091  0.00  0.00     0.311 C 
HETATM    6  N           1       1.992   0.816  -1.401  0.00  0.00     0.097 N 
HETATM    7  H           1       2.217   1.442  -2.174  0.00  0.00     0.317 HD
HETATM    8  C           1       2.240  -0.565  -1.806  0.00  0.00     0.271 C 
HETATM    9  C           1       1.027  -0.920  -2.649  0.00  0.00     0.033 C 
HETATM   10  C           1      -0.073   0.027  -2.183  0.00  0.00     0.047 C 
ENDBRANCH   3   5
BRANCH   2  11
HETATM   11  C           1      -1.255  -0.331   2.059  0.00  0.00     0.181 C 
HETATM   12  C           1      -0.495   0.458   3.117  0.00  0.00     0.043 C 
BRANCH  11  13
HETATM   13  C           1      -2.735  -0.260   2.347  0.00  0.00     0.196 C 
HETATM   14  O           1      -3.149   0.382   3.337  0.00  0.00    -0.646 OA
HETATM   15  O           1      -3.547  -0.843   1.596  0.00  0.00    -0.646 OA
ENDBRANCH  11  13
ENDBRANCH   2  11
TORSDOF 3
