REMARK  6 active torsions:
REMARK  status: ('A' for Active; 'I' for Inactive)
REMARK    1  A    between atoms: C_1  and  C_11 
REMARK    2  A    between atoms: C_1  and  C_2 
REMARK    3  A    between atoms: C_2  and  C_17 
REMARK    4  A    between atoms: C_2  and  N_7 
REMARK       I    between atoms: N_7  and  C_8 
REMARK    5  A    between atoms: C_8  and  C_10 
REMARK    6  A    between atoms: C_11  and  Se_13 
ROOT
HETATM    1  H           1      -2.156   0.799  -0.915  0.00  0.00     0.163 HD
HETATM    2  N           1      -1.393   0.438  -0.356  0.00  0.00    -0.345 N 
HETATM    3  C           1      -0.112   0.483  -0.836  0.00  0.00     0.251 C 
HETATM    4  O           1       0.798   0.052  -0.169  0.00  0.00    -0.271 OA
ENDROOT
BRANCH   2   5
HETATM    5  C           1      -1.658  -0.128   0.952  0.00  0.00     0.185 C 
BRANCH   5   6
HETATM    6  C           1      -0.898   0.661   2.010  0.00  0.00     0.036 C 
BRANCH   6   7
HETATM    7  C           1       0.064  -0.266   2.742  0.00  0.00     0.003 C 
BRANCH   7   8
HETATM    8 Se           1       1.037   0.744   4.095  0.00  0.00     0.000 Se
HETATM    9  C           1       2.076  -0.782   4.721  0.00  0.00     0.000 C 
ENDBRANCH   7   8
ENDBRANCH   6   7
ENDBRANCH   5   6
BRANCH   5  10
HETATM   10  C           1      -3.138  -0.057   1.240  0.00  0.00     0.196 C 
HETATM   11  O           1      -3.552   0.585   2.230  0.00  0.00    -0.646 OA
HETATM   12  O           1      -3.949  -0.640   0.489  0.00  0.00    -0.646 OA
ENDBRANCH   5  10
ENDBRANCH   2   5
BRANCH   3  13
HETATM   13  C           1       0.163   1.071  -2.198  0.00  0.00     0.311 C 
HETATM   14  C           1      -0.475   0.230  -3.290  0.00  0.00     0.047 C 
HETATM   15  C           1       0.624  -0.716  -3.756  0.00  0.00     0.033 C 
HETATM   16  C           1       1.837  -0.362  -2.912  0.00  0.00     0.271 C 
HETATM   17  N           1       1.589   1.019  -2.508  0.00  0.00     0.097 N 
HETATM   18  H           1       1.815   1.645  -3.281  0.00  0.00     0.317 HD
ENDBRANCH   3  13
TORSDOF 6
