REMARK  5 active torsions:
REMARK  status: ('A' for Active; 'I' for Inactive)
REMARK    1  A    between atoms: C_3  and  C_18 
REMARK    2  A    between atoms: C_4  and  C_9 
REMARK    3  A    between atoms: C_4  and  C_17 
REMARK    4  A    between atoms: C_4  and  N_13 
REMARK    5  A    between atoms: C_9  and  C_10 
REMARK       I    between atoms: N_13  and  C_18 
ROOT
HETATM    1  O           1       1.086  -0.209  -0.103  0.00  0.00    -0.271 OA
HETATM    2  H           1      -1.869   0.538  -0.849  0.00  0.00     0.163 HD
HETATM    3  N           1      -1.106   0.177  -0.291  0.00  0.00    -0.344 N 
HETATM    4  C           1       0.175   0.222  -0.770  0.00  0.00     0.251 C 
ENDROOT
BRANCH   3   5
HETATM    5  C           1      -1.371  -0.389   1.018  0.00  0.00     0.189 C 
BRANCH   5   6
HETATM    6  C           1      -0.610   0.400   2.076  0.00  0.00     0.014 C 
HETATM    7  C           1      -1.597   0.995   3.072  0.00  0.00     0.012 C 
BRANCH   6   8
HETATM    8  C           1       0.351  -0.527   2.808  0.00  0.00     0.002 C 
HETATM    9  C           1       1.778  -0.025   2.627  0.00  0.00     0.005 C 
ENDBRANCH   6   8
ENDBRANCH   5   6
BRANCH   5  10
HETATM   10  C           1      -2.850  -0.318   1.306  0.00  0.00     0.197 C 
HETATM   11  O           1      -3.539   0.603   0.816  0.00  0.00    -0.646 OA
HETATM   12  O           1      -3.387  -1.180   2.035  0.00  0.00    -0.646 OA
ENDBRANCH   5  10
ENDBRANCH   3   5
BRANCH   4  13
HETATM   13  C           1       0.451   0.810  -2.132  0.00  0.00     0.311 C 
HETATM   14  N           1       1.877   0.758  -2.442  0.00  0.00     0.097 N 
HETATM   15  H           1       2.102   1.384  -3.215  0.00  0.00     0.317 HD
HETATM   16  C           1       2.124  -0.623  -2.846  0.00  0.00     0.271 C 
HETATM   17  C           1       0.912  -0.978  -3.690  0.00  0.00     0.033 C 
HETATM   18  C           1      -0.188  -0.031  -3.224  0.00  0.00     0.047 C 
ENDBRANCH   4  13
TORSDOF 5
