REMARK  5 active torsions:
REMARK  status: ('A' for Active; 'I' for Inactive)
REMARK    1  A    between atoms: C_2  and  C_13 
REMARK    2  A    between atoms: C_4  and  C_12 
REMARK    3  A    between atoms: C_12  and  C_13 
REMARK    4  A    between atoms: C_13  and  N_15 
REMARK       I    between atoms: N_15  and  C_16 
REMARK    5  A    between atoms: C_16  and  C_18 
ROOT
HETATM    1  C           1       1.748   1.107  -1.473  0.00  0.00     0.189 C 
ENDROOT
BRANCH   1   2
HETATM    2  C           1       2.608   1.906  -2.420  0.00  0.00     0.197 C 
HETATM    3  O           1       3.838   1.693  -2.479  0.00  0.00    -0.646 OA
HETATM    4  O           1       2.090   2.782  -3.146  0.00  0.00    -0.646 OA
ENDBRANCH   1   2
BRANCH   1   5
HETATM    5  C           1       0.299   1.560  -1.596  0.00  0.00     0.070 C 
BRANCH   5   6
HETATM    6  C           1      -0.612   0.412  -1.291  0.00  0.00    -0.074 A 
HETATM    7  C           1      -0.077  -0.833  -0.958  0.00  0.00     0.024 A 
HETATM    8  C           1      -0.925  -1.903  -0.675  0.00  0.00    -0.022 A 
HETATM    9  C           1      -2.308  -1.729  -0.723  0.00  0.00    -0.004 A 
HETATM   10  C           1      -2.843  -0.484  -1.056  0.00  0.00     0.000 A 
HETATM   11  C           1      -1.995   0.586  -1.339  0.00  0.00     0.003 A 
ENDBRANCH   5   6
ENDBRANCH   1   5
BRANCH   1  12
HETATM   12  N           1       2.205   1.316  -0.113  0.00  0.00    -0.344 N 
HETATM   13  C           1       1.572   0.689   0.927  0.00  0.00     0.252 C 
HETATM   14  O           1       1.953   0.863   2.060  0.00  0.00    -0.271 OA
HETATM   15  H           1       2.992   1.926   0.068  0.00  0.00     0.163 HD
BRANCH  13  16
HETATM   16  C           1       0.399  -0.221   0.657  0.00  0.00     0.345 C 
HETATM   17  N           1       0.640  -1.555   1.200  0.00  0.00     0.097 N 
HETATM   18  C           1       0.380  -1.432   2.631  0.00  0.00     0.271 C 
HETATM   19  H           1      -0.006  -2.232   0.794  0.00  0.00     0.317 HD
HETATM   20  C           1      -0.846  -0.538   2.703  0.00  0.00     0.033 C 
HETATM   21  C           1      -0.837   0.255   1.401  0.00  0.00     0.048 C 
ENDBRANCH  13  16
ENDBRANCH   1  12
TORSDOF 5
