REMARK  5 active torsions:
REMARK  status: ('A' for Active; 'I' for Inactive)
REMARK    1  A    between atoms: C_9  and  C_17 
REMARK    2  A    between atoms: C_10  and  C_14 
REMARK    3  A    between atoms: C_10  and  C_13 
REMARK    4  A    between atoms: C_10  and  N_16 
REMARK    5  A    between atoms: S_11  and  C_14 
REMARK       I    between atoms: N_16  and  C_17 
ROOT
HETATM    1  O           1       1.142  -0.146   0.747  0.00  0.00    -0.271 OA
HETATM    2  H           1      -1.812   0.600   0.001  0.00  0.00     0.163 HD
HETATM    3  N           1      -1.050   0.239   0.560  0.00  0.00    -0.344 N 
HETATM    4  C           1       0.232   0.285   0.080  0.00  0.00     0.251 C 
ENDROOT
BRANCH   3   5
HETATM    5  C           1      -1.314  -0.326   1.868  0.00  0.00     0.194 C 
BRANCH   5   6
HETATM    6  C           1      -0.554   0.463   2.926  0.00  0.00     0.106 C 
BRANCH   6   7
HETATM    7  S           1       0.592  -0.642   3.798  0.00  0.00    -0.180 SA
HETATM    8  H           1       1.091   0.296   4.624  0.00  0.00     0.101 HD
ENDBRANCH   6   7
ENDBRANCH   5   6
BRANCH   5   9
HETATM    9  C           1      -2.794  -0.255   2.156  0.00  0.00     0.197 C 
HETATM   10  O           1      -3.605  -0.838   1.405  0.00  0.00    -0.646 OA
HETATM   11  O           1      -3.208   0.387   3.146  0.00  0.00    -0.646 OA
ENDBRANCH   5   9
ENDBRANCH   3   5
BRANCH   4  12
HETATM   12  C           1       0.507   0.873  -1.282  0.00  0.00     0.311 C 
HETATM   13  C           1      -0.132   0.032  -2.374  0.00  0.00     0.047 C 
HETATM   14  C           1       0.968  -0.915  -2.840  0.00  0.00     0.033 C 
HETATM   15  C           1       2.181  -0.560  -1.996  0.00  0.00     0.271 C 
HETATM   16  N           1       1.933   0.821  -1.592  0.00  0.00     0.097 N 
HETATM   17  H           1       2.158   1.447  -2.365  0.00  0.00     0.317 HD
ENDBRANCH   4  12
TORSDOF 5
