REMARK  7 active torsions:
REMARK  status: ('A' for Active; 'I' for Inactive)
REMARK    1  A    between atoms: C_4  and  N_5 
REMARK    2  A    between atoms: C_4  and  C_16 
REMARK    3  A    between atoms: C_9  and  C_11 
REMARK    4  A    between atoms: C_11  and  C_14 
REMARK    5  A    between atoms: C_11  and  N_20 
REMARK    6  A    between atoms: C_12  and  C_19 
REMARK    7  A    between atoms: C_14  and  C_16 
REMARK       I    between atoms: C_19  and  N_20 
ROOT
HETATM    1  C           1      -1.662  -0.239   0.756  0.00  0.00     0.185 C 
ENDROOT
BRANCH   1   2
HETATM    2  C           1      -3.142  -0.168   1.044  0.00  0.00     0.196 C 
HETATM    3  O           1      -3.556   0.474   2.033  0.00  0.00    -0.646 OA
HETATM    4  O           1      -3.953  -0.751   0.293  0.00  0.00    -0.646 OA
ENDBRANCH   1   2
BRANCH   1   5
HETATM    5  C           1      -0.902   0.550   1.813  0.00  0.00     0.038 C 
BRANCH   5   6
HETATM    6  C           1       0.060  -0.377   2.545  0.00  0.00     0.030 C 
BRANCH   6   7
HETATM    7  C           1       0.821   0.412   3.603  0.00  0.00     0.230 C 
BRANCH   7   8
HETATM    8  N           1       1.768  -0.501   4.324  0.00  0.00    -0.079 N 
HETATM    9  H           1       2.290   0.040   5.049  0.00  0.00     0.274 HD
HETATM   10  H           1       1.229  -1.269   4.783  0.00  0.00     0.274 HD
HETATM   11  H           1       2.445  -0.910   3.641  0.00  0.00     0.274 HD
ENDBRANCH   7   8
ENDBRANCH   6   7
ENDBRANCH   5   6
ENDBRANCH   1   5
BRANCH   1  12
HETATM   12  N           1      -1.397   0.327  -0.553  0.00  0.00    -0.345 N 
HETATM   13  H           1      -2.160   0.688  -1.112  0.00  0.00     0.163 HD
HETATM   14  C           1      -0.116   0.372  -1.033  0.00  0.00     0.251 C 
HETATM   15  O           1       0.794  -0.059  -0.366  0.00  0.00    -0.271 OA
BRANCH  14  16
HETATM   16  C           1       0.159   0.960  -2.395  0.00  0.00     0.311 C 
HETATM   17  C           1      -0.479   0.119  -3.486  0.00  0.00     0.047 C 
HETATM   18  C           1       0.620  -0.827  -3.953  0.00  0.00     0.033 C 
HETATM   19  C           1       1.833  -0.473  -3.109  0.00  0.00     0.271 C 
HETATM   20  N           1       1.585   0.908  -2.705  0.00  0.00     0.097 N 
HETATM   21  H           1       1.811   1.534  -3.478  0.00  0.00     0.317 HD
ENDBRANCH  14  16
ENDBRANCH   1  12
TORSDOF 7
