REMARK  5 active torsions:
REMARK  status: ('A' for Active; 'I' for Inactive)
REMARK    1  A    between atoms: C_4  and  C_13 
REMARK    2  A    between atoms: C_4  and  C_7 
REMARK    3  A    between atoms: C_4  and  N_20 
REMARK    4  A    between atoms: C_7  and  C_16 
REMARK       I    between atoms: C_18  and  N_20 
REMARK    5  A    between atoms: C_18  and  C_23 
ROOT
HETATM    1  C           1      -2.306   0.325   1.630  0.00  0.00     0.189 C 
ENDROOT
BRANCH   1   2
HETATM    2  C           1      -3.331   0.994   2.513  0.00  0.00     0.197 C 
HETATM    3  O           1      -4.251   0.320   3.023  0.00  0.00    -0.646 OA
HETATM    4  O           1      -3.260   2.222   2.733  0.00  0.00    -0.646 OA
ENDBRANCH   1   2
BRANCH   1   5
HETATM    5  C           1      -1.303   1.361   1.140  0.00  0.00     0.073 C 
BRANCH   5   6
HETATM    6  C           1       0.027   0.708   0.925  0.00  0.00    -0.047 A 
HETATM    7  C           1       1.212   1.349   0.471  0.00  0.00    -0.006 A 
HETATM    8  C           1       2.210   0.375   0.413  0.00  0.00     0.038 A 
HETATM    9  C           1       1.533   2.669   0.102  0.00  0.00     0.014 A 
HETATM   10  N           1       1.640  -0.811   0.819  0.00  0.00    -0.385 N 
HETATM   11  C           1       3.518   0.657   0.003  0.00  0.00     0.030 A 
HETATM   12  H           1       2.146  -1.730   0.881  0.00  0.00     0.160 HD
HETATM   13  C           1       0.320  -0.621   1.131  0.00  0.00     0.093 A 
HETATM   14  C           1       3.812   1.975  -0.358  0.00  0.00     0.002 A 
HETATM   15  C           1       2.836   2.968  -0.310  0.00  0.00     0.001 A 
ENDBRANCH   5   6
ENDBRANCH   1   5
BRANCH   1  16
HETATM   16  N           1      -2.970  -0.280   0.492  0.00  0.00    -0.344 N 
HETATM   17  H           1      -3.974  -0.208   0.395  0.00  0.00     0.163 HD
HETATM   18  C           1      -2.237  -0.948  -0.452  0.00  0.00     0.252 C 
HETATM   19  O           1      -2.791  -1.452  -1.400  0.00  0.00    -0.271 OA
BRANCH  18  20
HETATM   20  C           1      -0.739  -1.055  -0.308  0.00  0.00     0.370 C 
HETATM   21  C           1      -0.036  -0.479  -1.525  0.00  0.00     0.048 C 
HETATM   22  C           1       0.221  -1.672  -2.438  0.00  0.00     0.033 C 
HETATM   23  C           1      -0.342  -2.870  -1.692  0.00  0.00     0.271 C 
HETATM   24  N           1      -0.317  -2.453  -0.293  0.00  0.00     0.097 N 
HETATM   25  H           1       0.632  -2.540   0.071  0.00  0.00     0.317 HD
ENDBRANCH  18  20
ENDBRANCH   1  16
TORSDOF 5
