REMARK  5 active torsions:
REMARK  status: ('A' for Active; 'I' for Inactive)
REMARK    1  A    between atoms: C_2  and  C_7 
REMARK    2  A    between atoms: C_7  and  C_8 
REMARK    3  A    between atoms: C_7  and  N_15 
REMARK    4  A    between atoms: C_8  and  Se_12 
REMARK       I    between atoms: C_9  and  N_15 
REMARK    5  A    between atoms: C_9  and  C_10 
ROOT
HETATM    1  C           1       0.224   0.286   0.073  0.00  0.00     0.251 C 
HETATM    2  H           1      -1.819   0.602  -0.006  0.00  0.00     0.163 HD
HETATM    3  N           1      -1.057   0.241   0.553  0.00  0.00    -0.345 N 
HETATM    4  O           1       1.135  -0.144   0.740  0.00  0.00    -0.271 OA
ENDROOT
BRANCH   3   5
HETATM    5  C           1      -1.322  -0.324   1.861  0.00  0.00     0.185 C 
BRANCH   5   6
HETATM    6  C           1      -2.801  -0.253   2.149  0.00  0.00     0.196 C 
HETATM    7  O           1      -3.613  -0.837   1.398  0.00  0.00    -0.646 OA
HETATM    8  O           1      -3.215   0.389   3.139  0.00  0.00    -0.646 OA
ENDBRANCH   5   6
BRANCH   5   9
HETATM    9  C           1      -0.561   0.465   2.919  0.00  0.00     0.039 C 
BRANCH   9  10
HETATM   10 Se           1       0.670  -0.722   3.856  0.00  0.00     0.000 Se
HETATM   11  H           1       1.192   0.331   4.743  0.00  0.00     0.000 HD
ENDBRANCH   9  10
ENDBRANCH   5   9
ENDBRANCH   3   5
BRANCH   1  12
HETATM   12  C           1       0.500   0.875  -1.289  0.00  0.00     0.311 C 
HETATM   13  C           1      -0.139   0.034  -2.381  0.00  0.00     0.047 C 
HETATM   14  C           1       0.961  -0.913  -2.847  0.00  0.00     0.033 C 
HETATM   15  C           1       2.173  -0.559  -2.003  0.00  0.00     0.271 C 
HETATM   16  N           1       1.926   0.823  -1.599  0.00  0.00     0.097 N 
HETATM   17  H           1       2.151   1.449  -2.372  0.00  0.00     0.317 HD
ENDBRANCH   1  12
TORSDOF 5
