REMARK  7 active torsions:
REMARK  status: ('A' for Active; 'I' for Inactive)
REMARK       I    between atoms: C_1  and  N_17 
REMARK    1  A    between atoms: C_1  and  C_2 
REMARK       I    between atoms: N_3  and  C_15 
REMARK    2  A    between atoms: C_8  and  N_9 
REMARK    3  A    between atoms: C_8  and  C_10 
REMARK       I    between atoms: N_9  and  C_15 
REMARK    4  A    between atoms: C_10  and  C_11 
REMARK    5  A    between atoms: C_11  and  C_20 
REMARK    6  A    between atoms: N_17  and  C_20 
REMARK    7  A    between atoms: C_20  and  C_21 
ROOT
HETATM    1  C           1      -1.168  -1.798   0.465  0.00  0.00     0.185 C 
ENDROOT
BRANCH   1   2
HETATM    2  C           1      -0.408  -1.010   1.523  0.00  0.00     0.038 C 
BRANCH   2   3
HETATM    3  C           1      -0.862   0.444   1.497  0.00  0.00     0.023 C 
BRANCH   3   4
HETATM    4  C           1      -0.101   1.233   2.555  0.00  0.00     0.138 C 
BRANCH   4   5
HETATM    5  N           1      -0.539   2.636   2.530  0.00  0.00    -0.227 N 
HETATM    6  C           1      -0.031   3.472   3.334  0.00  0.00     0.665 C 
HETATM    7  N           1      -0.419   4.712   3.312  0.00  0.00    -0.235 N 
HETATM    8  N           1       0.854   3.099   4.159  0.00  0.00    -0.235 N 
HETATM    9  H           1      -1.149   5.020   2.631  0.00  0.00     0.174 HD
HETATM   10  H           1       0.001   5.402   3.976  0.00  0.00     0.174 HD
HETATM   11  H           1       1.167   2.097   4.177  0.00  0.00     0.174 HD
HETATM   12  H           1       1.275   3.793   4.826  0.00  0.00     0.174 HD
HETATM   13  H           1      -1.273   2.944   1.846  0.00  0.00     0.177 HD
ENDBRANCH   4   5
ENDBRANCH   3   4
ENDBRANCH   2   3
ENDBRANCH   1   2
BRANCH   1  14
HETATM   14  N           1      -0.904  -1.233  -0.844  0.00  0.00    -0.345 N 
HETATM   15  C           1       0.378  -1.188  -1.323  0.00  0.00     0.251 C 
HETATM   16  O           1       1.288  -1.619  -0.656  0.00  0.00    -0.271 OA
HETATM   17  H           1      -1.666  -0.872  -1.402  0.00  0.00     0.163 HD
BRANCH  15  18
HETATM   18  C           1       0.653  -0.599  -2.685  0.00  0.00     0.311 C 
HETATM   19  N           1       2.079  -0.652  -2.995  0.00  0.00     0.097 N 
HETATM   20  H           1       2.304  -0.026  -3.768  0.00  0.00     0.317 HD
HETATM   21  C           1       2.327  -2.033  -3.400  0.00  0.00     0.271 C 
HETATM   22  C           1       1.114  -2.387  -4.243  0.00  0.00     0.033 C 
HETATM   23  C           1       0.015  -1.441  -3.777  0.00  0.00     0.047 C 
ENDBRANCH  15  18
ENDBRANCH   1  14
BRANCH   1  24
HETATM   24  C           1      -2.648  -1.728   0.753  0.00  0.00     0.196 C 
HETATM   25  O           1      -3.459  -2.311   0.002  0.00  0.00    -0.646 OA
HETATM   26  O           1      -3.062  -1.086   1.743  0.00  0.00    -0.646 OA
ENDBRANCH   1  24
TORSDOF 7
