REMARK  8 active torsions:
REMARK  status: ('A' for Active; 'I' for Inactive)
REMARK    1  A    between atoms: C_2  and  C_14 
REMARK    2  A    between atoms: N_10  and  C_16 
REMARK    3  A    between atoms: C_11  and  C_19 
REMARK       I    between atoms: C_14  and  N_18 
REMARK    4  A    between atoms: C_15  and  C_16 
REMARK    5  A    between atoms: C_15  and  C_20 
REMARK    6  A    between atoms: N_18  and  C_19 
REMARK    7  A    between atoms: C_19  and  C_21 
REMARK    8  A    between atoms: C_20  and  C_21 
ROOT
HETATM    1  C           1      -1.138  -1.529   0.702  0.00  0.00     0.185 C 
ENDROOT
BRANCH   1   2
HETATM    2  C           1      -2.618  -1.458   0.989  0.00  0.00     0.196 C 
HETATM    3  O           1      -3.429  -2.041   0.239  0.00  0.00    -0.646 OA
HETATM    4  O           1      -3.032  -0.816   1.979  0.00  0.00    -0.646 OA
ENDBRANCH   1   2
BRANCH   1   5
HETATM    5  N           1      -0.874  -0.964  -0.607  0.00  0.00    -0.345 N 
HETATM    6  H           1      -1.636  -0.603  -1.166  0.00  0.00     0.163 HD
HETATM    7  C           1       0.408  -0.918  -1.087  0.00  0.00     0.251 C 
HETATM    8  O           1       1.318  -1.349  -0.420  0.00  0.00    -0.271 OA
BRANCH   7   9
HETATM    9  C           1       0.683  -0.330  -2.449  0.00  0.00     0.311 C 
HETATM   10  N           1       2.109  -0.382  -2.759  0.00  0.00     0.097 N 
HETATM   11  C           1       2.357  -1.763  -3.163  0.00  0.00     0.271 C 
HETATM   12  H           1       2.334   0.244  -3.532  0.00  0.00     0.317 HD
HETATM   13  C           1       1.144  -2.118  -4.007  0.00  0.00     0.033 C 
HETATM   14  C           1       0.044  -1.171  -3.540  0.00  0.00     0.047 C 
ENDBRANCH   7   9
ENDBRANCH   1   5
BRANCH   1  15
HETATM   15  C           1      -0.378  -0.740   1.759  0.00  0.00     0.036 C 
BRANCH  15  16
HETATM   16  C           1      -0.832   0.713   1.734  0.00  0.00     0.004 C 
BRANCH  16  17
HETATM   17  C           1      -0.071   1.502   2.792  0.00  0.00     0.027 C 
BRANCH  17  18
HETATM   18  C           1      -0.525   2.956   2.766  0.00  0.00     0.229 C 
BRANCH  18  19
HETATM   19  N           1       0.224   3.733   3.808  0.00  0.00    -0.079 N 
HETATM   20  H           1      -0.087   4.730   3.790  0.00  0.00     0.274 HD
HETATM   21  H           1       0.032   3.325   4.751  0.00  0.00     0.274 HD
HETATM   22  H           1       1.249   3.684   3.608  0.00  0.00     0.274 HD
ENDBRANCH  18  19
ENDBRANCH  17  18
ENDBRANCH  16  17
ENDBRANCH  15  16
ENDBRANCH   1  15
TORSDOF 8
