REMARK  2 active torsions:
REMARK  status: ('A' for Active; 'I' for Inactive)
REMARK    1  A    between atoms: C_9  and  C_15 
REMARK    2  A    between atoms: C_12  and  C_13 
REMARK       I    between atoms: C_13  and  N_16 
ROOT
HETATM    1  C           1      -2.232  -1.861  -0.899  0.00  0.00     0.038 C 
HETATM    2  C           1      -1.133  -2.807  -1.365  0.00  0.00     0.022 C 
HETATM    3  C           1       0.080  -2.453  -0.522  0.00  0.00     0.127 C 
HETATM    4  O           1       1.895  -0.245  -0.336  0.00  0.00    -0.271 OA
HETATM    5  C           1       0.739  -0.049  -0.045  0.00  0.00     0.254 C 
HETATM    6  C           1      -1.594  -1.019   0.193  0.00  0.00     0.188 C 
HETATM    7  N           1      -0.168  -1.072  -0.117  0.00  0.00    -0.336 N 
ENDROOT
BRANCH   5   8
HETATM    8  C           1       0.295   1.324   0.398  0.00  0.00     0.311 C 
HETATM    9  C           1       0.616   2.364  -0.661  0.00  0.00     0.047 C 
HETATM   10  C           1       1.963   2.946  -0.252  0.00  0.00     0.033 C 
HETATM   11  C           1       2.339   2.213   1.025  0.00  0.00     0.271 C 
HETATM   12  N           1       1.057   1.766   1.562  0.00  0.00     0.097 N 
HETATM   13  H           1       0.591   2.547   2.024  0.00  0.00     0.317 HD
ENDBRANCH   5   8
BRANCH   6  14
HETATM   14  C           1      -1.869  -1.608   1.555  0.00  0.00     0.196 C 
HETATM   15  O           1      -3.039  -1.649   1.993  0.00  0.00    -0.646 OA
HETATM   16  O           1      -0.927  -2.054   2.245  0.00  0.00    -0.646 OA
ENDBRANCH   6  14
TORSDOF 2
