REMARK  5 active torsions:
REMARK  status: ('A' for Active; 'I' for Inactive)
REMARK    1  A    between atoms: C_1  and  C_4 
REMARK    2  A    between atoms: C_4  and  C_17 
REMARK    3  A    between atoms: C_4  and  N_7 
REMARK       I    between atoms: N_7  and  C_8 
REMARK    4  A    between atoms: C_8  and  C_12 
REMARK    5  A    between atoms: O_16  and  C_17 
ROOT
HETATM    1  O           1       1.130  -0.148   0.464  0.00  0.00    -0.271 OA
HETATM    2  N           1      -1.061   0.237   0.277  0.00  0.00    -0.342 N 
HETATM    3  C           1       0.220   0.282  -0.203  0.00  0.00     0.251 C 
HETATM    4  H           1      -1.824   0.598  -0.282  0.00  0.00     0.163 HD
ENDROOT
BRANCH   2   5
HETATM    5  C           1      -1.326  -0.328   1.586  0.00  0.00     0.214 C 
BRANCH   5   6
HETATM    6  C           1      -2.805  -0.257   1.873  0.00  0.00     0.199 C 
HETATM    7  O           1      -3.617  -0.841   1.122  0.00  0.00    -0.646 OA
HETATM    8  O           1      -3.220   0.384   2.863  0.00  0.00    -0.646 OA
ENDBRANCH   5   6
BRANCH   5   9
HETATM    9  C           1      -0.565   0.461   2.643  0.00  0.00     0.147 C 
HETATM   10  C           1       0.396  -0.466   3.375  0.00  0.00     0.042 C 
BRANCH   9  11
HETATM   11  O           1       0.158   1.491   2.027  0.00  0.00    -0.393 OA
HETATM   12  H           1      -0.468   2.040   1.587  0.00  0.00     0.210 HD
ENDBRANCH   9  11
ENDBRANCH   5   9
ENDBRANCH   2   5
BRANCH   3  13
HETATM   13  C           1       0.496   0.871  -1.565  0.00  0.00     0.311 C 
HETATM   14  N           1       1.921   0.818  -1.875  0.00  0.00     0.097 N 
HETATM   15  H           1       2.147   1.445  -2.648  0.00  0.00     0.317 HD
HETATM   16  C           1       2.169  -0.563  -2.279  0.00  0.00     0.271 C 
HETATM   17  C           1       0.957  -0.917  -3.123  0.00  0.00     0.033 C 
HETATM   18  C           1      -0.143   0.029  -2.656  0.00  0.00     0.047 C 
ENDBRANCH   3  13
TORSDOF 5
