REMARK  6 active torsions:
REMARK  status: ('A' for Active; 'I' for Inactive)
REMARK    1  A    between atoms: S_2  and  C_10 
REMARK    2  A    between atoms: C_3  and  C_14 
REMARK       I    between atoms: C_8  and  N_15 
REMARK    3  A    between atoms: C_8  and  C_12 
REMARK    4  A    between atoms: C_10  and  C_11 
REMARK    5  A    between atoms: C_11  and  C_14 
REMARK    6  A    between atoms: C_14  and  N_15 
ROOT
HETATM    1  O           1       0.814   0.046  -0.154  0.00  0.00    -0.271 OA
HETATM    2  C           1      -0.096   0.477  -0.821  0.00  0.00     0.251 C 
HETATM    3  H           1      -2.140   0.793  -0.900  0.00  0.00     0.163 HD
HETATM    4  N           1      -1.378   0.432  -0.342  0.00  0.00    -0.345 N 
ENDROOT
BRANCH   4   5
HETATM    5  C           1      -1.642  -0.134   0.967  0.00  0.00     0.186 C 
BRANCH   5   6
HETATM    6  C           1      -3.122  -0.063   1.255  0.00  0.00     0.196 C 
HETATM    7  O           1      -3.933  -0.646   0.504  0.00  0.00    -0.646 OA
HETATM    8  O           1      -3.536   0.579   2.245  0.00  0.00    -0.646 OA
ENDBRANCH   5   6
BRANCH   5   9
HETATM    9  C           1      -0.882   0.655   2.025  0.00  0.00     0.046 C 
BRANCH   9  10
HETATM   10  C           1       0.080  -0.272   2.757  0.00  0.00     0.076 C 
BRANCH  10  11
HETATM   11  S           1       0.986   0.668   4.017  0.00  0.00    -0.173 SA
HETATM   12  C           1       1.975  -0.724   4.631  0.00  0.00     0.089 C 
ENDBRANCH  10  11
ENDBRANCH   9  10
ENDBRANCH   5   9
ENDBRANCH   4   5
BRANCH   2  13
HETATM   13  C           1       0.179   1.065  -2.183  0.00  0.00     0.311 C 
HETATM   14  C           1      -0.459   0.224  -3.275  0.00  0.00     0.047 C 
HETATM   15  C           1       0.640  -0.723  -3.741  0.00  0.00     0.033 C 
HETATM   16  C           1       1.853  -0.368  -2.898  0.00  0.00     0.271 C 
HETATM   17  N           1       1.605   1.013  -2.493  0.00  0.00     0.097 N 
HETATM   18  H           1       1.830   1.639  -3.266  0.00  0.00     0.317 HD
ENDBRANCH   2  13
TORSDOF 6
