REMARK  4 active torsions:
REMARK  status: ('A' for Active; 'I' for Inactive)
REMARK    1  A    between atoms: C_2  and  C_3 
REMARK    2  A    between atoms: C_3  and  C_15 
REMARK    3  A    between atoms: C_3  and  N_7 
REMARK       I    between atoms: N_7  and  C_13 
REMARK    4  A    between atoms: C_9  and  C_13 
ROOT
HETATM    1  O           1       1.297  -0.196   0.138  0.00  0.00    -0.271 OA
HETATM    2  H           1      -1.657   0.551  -0.609  0.00  0.00     0.163 HD
HETATM    3  N           1      -0.895   0.190  -0.050  0.00  0.00    -0.344 N 
HETATM    4  C           1       0.387   0.235  -0.530  0.00  0.00     0.251 C 
ENDROOT
BRANCH   3   5
HETATM    5  C           1      -1.160  -0.375   1.259  0.00  0.00     0.189 C 
BRANCH   5   6
HETATM    6  C           1      -0.399   0.413   2.317  0.00  0.00     0.010 C 
HETATM    7  C           1       0.563  -0.514   3.048  0.00  0.00     0.012 C 
HETATM    8  C           1      -1.386   1.008   3.312  0.00  0.00     0.012 C 
ENDBRANCH   5   6
BRANCH   5   9
HETATM    9  C           1      -2.639  -0.305   1.547  0.00  0.00     0.197 C 
HETATM   10  O           1      -3.328   0.616   1.056  0.00  0.00    -0.646 OA
HETATM   11  O           1      -3.176  -1.166   2.276  0.00  0.00    -0.646 OA
ENDBRANCH   5   9
ENDBRANCH   3   5
BRANCH   4  12
HETATM   12  C           1       0.662   0.824  -1.892  0.00  0.00     0.311 C 
HETATM   13  N           1       2.088   0.771  -2.202  0.00  0.00     0.097 N 
HETATM   14  C           1       2.335  -0.610  -2.606  0.00  0.00     0.271 C 
HETATM   15  H           1       2.313   1.397  -2.975  0.00  0.00     0.317 HD
HETATM   16  C           1       1.123  -0.964  -3.450  0.00  0.00     0.033 C 
HETATM   17  C           1       0.023  -0.018  -2.983  0.00  0.00     0.047 C 
ENDBRANCH   4  12
TORSDOF 4
