REMARK  8 active torsions:
REMARK  status: ('A' for Active; 'I' for Inactive)
REMARK    1  A    between atoms: Se_1  and  C_20 
REMARK    2  A    between atoms: N_2  and  C_19 
REMARK    3  A    between atoms: C_5  and  O_6 
REMARK    4  A    between atoms: C_5  and  C_7 
REMARK    5  A    between atoms: C_7  and  C_8 
REMARK    6  A    between atoms: C_7  and  N_11 
REMARK       I    between atoms: N_11  and  C_18 
REMARK    7  A    between atoms: C_18  and  C_19 
REMARK    8  A    between atoms: C_19  and  C_20 
ROOT
HETATM    1  O           1       0.468  -1.420   1.076  0.00  0.00    -0.271 OA
HETATM    2  N           1       0.073   0.139  -0.473  0.00  0.00    -0.343 N 
HETATM    3  H           1       0.217   1.090  -0.790  0.00  0.00     0.163 HD
HETATM    4  C           1       0.640  -0.286   0.698  0.00  0.00     0.249 C 
ENDROOT
BRANCH   2   5
HETATM    5  C           1      -0.733  -0.773  -1.262  0.00  0.00     0.214 C 
BRANCH   5   6
HETATM    6  C           1      -1.239  -0.056  -2.506  0.00  0.00     0.147 C 
HETATM    7  C           1      -2.762  -0.056  -2.506  0.00  0.00     0.042 C 
BRANCH   6   8
HETATM    8  O           1      -0.771   1.266  -2.506  0.00  0.00    -0.393 OA
HETATM    9  H           1       0.170   1.223  -2.506  0.00  0.00     0.210 HD
ENDBRANCH   6   8
ENDBRANCH   5   6
BRANCH   5  10
HETATM   10  C           1       0.106  -1.959  -1.670  0.00  0.00     0.199 C 
HETATM   11  O           1       0.622  -2.690  -0.798  0.00  0.00    -0.646 OA
HETATM   12  O           1       0.284  -2.211  -2.882  0.00  0.00    -0.646 OA
ENDBRANCH   5  10
ENDBRANCH   2   5
BRANCH   4  13
HETATM   13  C           1       1.479   0.663   1.518  0.00  0.00     0.274 C 
BRANCH  13  14
HETATM   14  N           1       0.645   1.842   1.926  0.00  0.00    -0.067 N 
HETATM   15  H           1       1.225   2.500   2.494  0.00  0.00     0.275 HD
HETATM   16  H           1       0.297   2.334   1.072  0.00  0.00     0.275 HD
HETATM   17  H           1      -0.167   1.514   2.495  0.00  0.00     0.275 HD
ENDBRANCH  13  14
BRANCH  13  18
HETATM   18  C           1       1.986  -0.053   2.763  0.00  0.00     0.045 C 
BRANCH  18  19
HETATM   19 Se           1       0.471  -0.663   3.826  0.00  0.00     0.000 Se
HETATM   20  H           1       1.304  -1.269   4.878  0.00  0.00     0.000 HD
ENDBRANCH  18  19
ENDBRANCH  13  18
ENDBRANCH   4  13
TORSDOF 8
