REMARK  9 active torsions:
REMARK  status: ('A' for Active; 'I' for Inactive)
REMARK    1  A    between atoms: N_4  and  C_9 
REMARK    2  A    between atoms: Se_6  and  C_7 
REMARK    3  A    between atoms: C_7  and  C_8 
REMARK    4  A    between atoms: C_8  and  C_9 
REMARK    5  A    between atoms: C_9  and  C_10 
REMARK       I    between atoms: C_10  and  N_11 
REMARK    6  A    between atoms: N_11  and  C_15 
REMARK    7  A    between atoms: C_14  and  C_15 
REMARK    8  A    between atoms: C_15  and  C_16 
REMARK    9  A    between atoms: C_16  and  Se_17 
ROOT
HETATM    1  H           1      -0.216  -2.211   0.712  0.00  0.00     0.163 HD
HETATM    2  O           1      -0.638   0.897   0.711  0.00  0.00    -0.271 OA
HETATM    3  C           1      -0.035  -0.150   0.712  0.00  0.00     0.249 C 
HETATM    4  N           1      -0.721  -1.334   0.712  0.00  0.00    -0.345 N 
ENDROOT
BRANCH   3   5
HETATM    5  C           1       1.474  -0.151   0.713  0.00  0.00     0.274 C 
BRANCH   5   6
HETATM    6  N           1       1.973  -0.858  -0.512  0.00  0.00    -0.067 N 
HETATM    7  H           1       3.018  -0.860  -0.513  0.00  0.00     0.275 HD
HETATM    8  H           1       1.624  -1.843  -0.512  0.00  0.00     0.275 HD
HETATM    9  H           1       1.625  -0.365  -1.365  0.00  0.00     0.275 HD
ENDBRANCH   5   6
BRANCH   5  10
HETATM   10  C           1       1.983   1.284   0.713  0.00  0.00     0.042 C 
BRANCH  10  11
HETATM   11  C           1       1.478   2.003  -0.531  0.00  0.00     0.003 C 
BRANCH  11  12
HETATM   12 Se           1       2.995   2.614  -1.591  0.00  0.00     0.000 Se
HETATM   13  C           1       1.903   3.422  -2.989  0.00  0.00     0.000 C 
ENDBRANCH  11  12
ENDBRANCH  10  11
ENDBRANCH   5  10
ENDBRANCH   3   5
BRANCH   4  14
HETATM   14  C           1      -2.171  -1.333   0.711  0.00  0.00     0.185 C 
BRANCH  14  15
HETATM   15  C           1      -2.673  -0.621   1.943  0.00  0.00     0.196 C 
HETATM   16  O           1      -3.392  -1.227   2.766  0.00  0.00    -0.646 OA
HETATM   17  O           1      -2.370   0.576   2.140  0.00  0.00    -0.646 OA
ENDBRANCH  14  15
BRANCH  14  18
HETATM   18  C           1      -2.679  -2.769   0.711  0.00  0.00     0.039 C 
BRANCH  18  19
HETATM   19 Se           1      -4.628  -2.769   0.711  0.00  0.00     0.000 Se
HETATM   20  H           1      -4.744  -4.236   0.711  0.00  0.00     0.000 HD
ENDBRANCH  18  19
ENDBRANCH  14  18
ENDBRANCH   4  14
TORSDOF 9
