REMARK  7 active torsions:
REMARK  status: ('A' for Active; 'I' for Inactive)
REMARK    1  A    between atoms: N_5  and  C_8 
REMARK    2  A    between atoms: Se_6  and  C_7 
REMARK    3  A    between atoms: C_7  and  C_8 
REMARK    4  A    between atoms: C_8  and  C_9 
REMARK       I    between atoms: C_9  and  N_10 
REMARK    5  A    between atoms: N_10  and  C_14 
REMARK    6  A    between atoms: C_13  and  C_14 
REMARK    7  A    between atoms: C_14  and  C_16 
ROOT
HETATM    1  O           1       0.533  -1.556   1.243  0.00  0.00    -0.271 OA
HETATM    2  C           1       0.705  -0.422   0.865  0.00  0.00     0.249 C 
HETATM    3  N           1       0.139   0.003  -0.306  0.00  0.00    -0.344 N 
HETATM    4  H           1       0.282   0.954  -0.622  0.00  0.00     0.163 HD
ENDROOT
BRANCH   2   5
HETATM    5  C           1       1.544   0.527   1.686  0.00  0.00     0.274 C 
BRANCH   5   6
HETATM    6  N           1       0.710   1.706   2.093  0.00  0.00    -0.067 N 
HETATM    7  H           1       0.362   2.198   1.239  0.00  0.00     0.275 HD
HETATM    8  H           1      -0.102   1.378   2.662  0.00  0.00     0.275 HD
HETATM    9  H           1       1.290   2.364   2.661  0.00  0.00     0.275 HD
ENDBRANCH   5   6
BRANCH   5  10
HETATM   10  C           1       2.051  -0.189   2.930  0.00  0.00     0.045 C 
BRANCH  10  11
HETATM   11 Se           1       0.536  -0.799   3.993  0.00  0.00     0.000 Se
HETATM   12  H           1       1.369  -1.405   5.045  0.00  0.00     0.000 HD
ENDBRANCH  10  11
ENDBRANCH   5  10
ENDBRANCH   2   5
BRANCH   3  13
HETATM   13  C           1      -0.668  -0.909  -1.095  0.00  0.00     0.189 C 
BRANCH  13  14
HETATM   14  C           1       0.171  -2.095  -1.503  0.00  0.00     0.197 C 
HETATM   15  O           1       0.349  -2.347  -2.715  0.00  0.00    -0.646 OA
HETATM   16  O           1       0.687  -2.826  -0.631  0.00  0.00    -0.646 OA
ENDBRANCH  13  14
BRANCH  13  17
HETATM   17  C           1      -1.174  -0.192  -2.339  0.00  0.00     0.010 C 
HETATM   18  C           1      -2.697  -0.192  -2.339  0.00  0.00     0.012 C 
HETATM   19  C           1      -0.666   1.244  -2.339  0.00  0.00     0.012 C 
ENDBRANCH  13  17
ENDBRANCH   3  13
TORSDOF 7
