REMARK  9 active torsions:
REMARK  status: ('A' for Active; 'I' for Inactive)
REMARK    1  A    between atoms: S_2  and  C_3 
REMARK    2  A    between atoms: C_3  and  C_4 
REMARK    3  A    between atoms: C_4  and  C_5 
REMARK    4  A    between atoms: C_4  and  N_8 
REMARK       I    between atoms: N_8  and  C_9 
REMARK    5  A    between atoms: C_9  and  C_10 
REMARK    6  A    between atoms: C_10  and  C_11 
REMARK    7  A    between atoms: C_10  and  N_15 
REMARK    8  A    between atoms: C_11  and  C_12 
REMARK    9  A    between atoms: C_12  and  Se_13 
ROOT
HETATM    1  H           1      -0.224  -2.216   0.712  0.00  0.00     0.163 HD
HETATM    2  N           1      -0.729  -1.339   0.712  0.00  0.00    -0.344 N 
HETATM    3  C           1      -0.043  -0.154   0.712  0.00  0.00     0.249 C 
HETATM    4  O           1      -0.646   0.893   0.711  0.00  0.00    -0.271 OA
ENDROOT
BRANCH   3   5
HETATM    5  C           1       1.466  -0.155   0.713  0.00  0.00     0.274 C 
BRANCH   5   6
HETATM    6  C           1       1.976   1.280   0.713  0.00  0.00     0.042 C 
BRANCH   6   7
HETATM    7  C           1       1.470   1.999  -0.531  0.00  0.00     0.003 C 
BRANCH   7   8
HETATM    8 Se           1       2.987   2.609  -1.591  0.00  0.00     0.000 Se
HETATM    9  C           1       1.895   3.418  -2.989  0.00  0.00     0.000 C 
ENDBRANCH   7   8
ENDBRANCH   6   7
ENDBRANCH   5   6
BRANCH   5  10
HETATM   10  N           1       1.965  -0.862  -0.512  0.00  0.00    -0.067 N 
HETATM   11  H           1       3.010  -0.864  -0.513  0.00  0.00     0.275 HD
HETATM   12  H           1       1.616  -1.847  -0.512  0.00  0.00     0.275 HD
HETATM   13  H           1       1.617  -0.369  -1.365  0.00  0.00     0.275 HD
ENDBRANCH   5  10
ENDBRANCH   3   5
BRANCH   2  14
HETATM   14  C           1      -2.179  -1.337   0.711  0.00  0.00     0.194 C 
BRANCH  14  15
HETATM   15  C           1      -2.687  -2.773   0.711  0.00  0.00     0.106 C 
BRANCH  15  16
HETATM   16  S           1      -4.502  -2.773   0.711  0.00  0.00    -0.180 SA
HETATM   17  H           1      -4.643  -4.110   0.711  0.00  0.00     0.101 HD
ENDBRANCH  15  16
ENDBRANCH  14  15
BRANCH  14  18
HETATM   18  C           1      -2.681  -0.625   1.943  0.00  0.00     0.197 C 
HETATM   19  O           1      -2.378   0.572   2.140  0.00  0.00    -0.646 OA
HETATM   20  O           1      -3.400  -1.232   2.766  0.00  0.00    -0.646 OA
ENDBRANCH  14  18
ENDBRANCH   2  14
TORSDOF 9
