REMARK  8 active torsions:
REMARK  status: ('A' for Active; 'I' for Inactive)
REMARK    1  A    between atoms: N_2  and  C_17 
REMARK       I    between atoms: N_2  and  C_3 
REMARK    2  A    between atoms: C_3  and  C_4 
REMARK    3  A    between atoms: C_4  and  C_5 
REMARK    4  A    between atoms: C_4  and  N_7 
REMARK    5  A    between atoms: C_5  and  Se_6 
REMARK    6  A    between atoms: O_15  and  C_16 
REMARK    7  A    between atoms: C_16  and  C_17 
REMARK    8  A    between atoms: C_17  and  C_18 
ROOT
HETATM    1  N           1      -0.364  -0.667   0.119  0.00  0.00    -0.343 N 
HETATM    2  C           1       0.321   0.518   0.119  0.00  0.00     0.249 C 
HETATM    3  O           1      -0.282   1.565   0.119  0.00  0.00    -0.271 OA
HETATM    4  H           1       0.141  -1.543   0.120  0.00  0.00     0.163 HD
ENDROOT
BRANCH   2   5
HETATM    5  C           1       1.830   0.517   0.120  0.00  0.00     0.274 C 
BRANCH   5   6
HETATM    6  C           1       2.340   1.952   0.120  0.00  0.00     0.045 C 
BRANCH   6   7
HETATM    7 Se           1       1.693   2.872  -1.471  0.00  0.00     0.000 Se
HETATM    8  H           1       2.349   4.148  -1.141  0.00  0.00     0.000 HD
ENDBRANCH   6   7
ENDBRANCH   5   6
BRANCH   5   9
HETATM    9  N           1       2.330  -0.190  -1.105  0.00  0.00    -0.067 N 
HETATM   10  H           1       3.375  -0.192  -1.105  0.00  0.00     0.275 HD
HETATM   11  H           1       1.980  -1.175  -1.105  0.00  0.00     0.275 HD
HETATM   12  H           1       1.982   0.303  -1.958  0.00  0.00     0.275 HD
ENDBRANCH   5   9
ENDBRANCH   2   5
BRANCH   1  13
HETATM   13  C           1      -1.814  -0.665   0.118  0.00  0.00     0.209 C 
BRANCH  13  14
HETATM   14  C           1      -2.323  -2.101   0.118  0.00  0.00     0.200 C 
BRANCH  14  15
HETATM   15  O           1      -3.725  -2.101   0.118  0.00  0.00    -0.398 OA
HETATM   16  H           1      -3.999  -3.002   0.118  0.00  0.00     0.209 HD
ENDBRANCH  14  15
ENDBRANCH  13  14
BRANCH  13  17
HETATM   17  C           1      -2.317   0.047   1.350  0.00  0.00     0.198 C 
HETATM   18  O           1      -3.036  -0.559   2.173  0.00  0.00    -0.646 OA
HETATM   19  O           1      -2.014   1.244   1.547  0.00  0.00    -0.646 OA
ENDBRANCH  13  17
ENDBRANCH   1  13
TORSDOF 8
