REMARK  8 active torsions:
REMARK  status: ('A' for Active; 'I' for Inactive)
REMARK    1  A    between atoms: S_5  and  C_6 
REMARK    2  A    between atoms: C_6  and  C_7 
REMARK    3  A    between atoms: C_7  and  C_8 
REMARK    4  A    between atoms: C_7  and  N_11 
REMARK       I    between atoms: N_11  and  C_12 
REMARK    5  A    between atoms: C_12  and  C_13 
REMARK    6  A    between atoms: C_13  and  C_14 
REMARK    7  A    between atoms: C_13  and  N_16 
REMARK    8  A    between atoms: C_14  and  Se_15 
ROOT
HETATM    1  H           1       0.168  -1.526   0.120  0.00  0.00     0.163 HD
HETATM    2  N           1      -0.337  -0.649   0.119  0.00  0.00    -0.344 N 
HETATM    3  C           1       0.349   0.536   0.119  0.00  0.00     0.249 C 
HETATM    4  O           1      -0.254   1.583   0.119  0.00  0.00    -0.271 OA
ENDROOT
BRANCH   3   5
HETATM    5  C           1       1.858   0.534   0.120  0.00  0.00     0.274 C 
BRANCH   5   6
HETATM    6  C           1       2.368   1.969   0.120  0.00  0.00     0.045 C 
BRANCH   6   7
HETATM    7 Se           1       1.721   2.890  -1.471  0.00  0.00     0.000 Se
HETATM    8  H           1       2.376   4.166  -1.141  0.00  0.00     0.000 HD
ENDBRANCH   6   7
ENDBRANCH   5   6
BRANCH   5   9
HETATM    9  N           1       2.357  -0.173  -1.105  0.00  0.00    -0.067 N 
HETATM   10  H           1       3.402  -0.175  -1.105  0.00  0.00     0.275 HD
HETATM   11  H           1       2.008  -1.158  -1.105  0.00  0.00     0.275 HD
HETATM   12  H           1       2.010   0.321  -1.958  0.00  0.00     0.275 HD
ENDBRANCH   5   9
ENDBRANCH   3   5
BRANCH   2  13
HETATM   13  C           1      -1.787  -0.648   0.118  0.00  0.00     0.194 C 
BRANCH  13  14
HETATM   14  C           1      -2.295  -2.083   0.118  0.00  0.00     0.106 C 
BRANCH  14  15
HETATM   15  S           1      -4.110  -2.083   0.118  0.00  0.00    -0.180 SA
HETATM   16  H           1      -4.251  -3.421   0.118  0.00  0.00     0.101 HD
ENDBRANCH  14  15
ENDBRANCH  13  14
BRANCH  13  17
HETATM   17  C           1      -2.289   0.065   1.350  0.00  0.00     0.197 C 
HETATM   18  O           1      -1.986   1.261   1.547  0.00  0.00    -0.646 OA
HETATM   19  O           1      -3.008  -0.542   2.173  0.00  0.00    -0.646 OA
ENDBRANCH  13  17
ENDBRANCH   2  13
TORSDOF 8
