REMARK  10 active torsions:
REMARK  status: ('A' for Active; 'I' for Inactive)
REMARK    1  A    between atoms: C_1  and  C_2 
REMARK    2  A    between atoms: C_2  and  C_3 
REMARK    3  A    between atoms: C_2  and  N_8 
REMARK    4  A    between atoms: C_3  and  C_4 
REMARK    5  A    between atoms: C_4  and  C_11 
REMARK    6  A    between atoms: C_5  and  C_6 
REMARK    7  A    between atoms: C_5  and  Se_23 
REMARK    8  A    between atoms: C_6  and  C_7 
REMARK    9  A    between atoms: C_6  and  N_22 
REMARK       I    between atoms: C_7  and  N_8 
REMARK   10  A    between atoms: C_11  and  N_12 
ROOT
HETATM    1  C           1       0.803   1.156   1.293  0.00  0.00     0.249 C 
HETATM    2  N           1      -0.086   0.636   0.392  0.00  0.00    -0.345 N 
HETATM    3  H           1      -1.081   0.729   0.551  0.00  0.00     0.163 HD
HETATM    4  O           1       1.991   1.045   1.103  0.00  0.00    -0.271 OA
ENDROOT
BRANCH   2   5
HETATM    5  C           1       0.398  -0.049  -0.791  0.00  0.00     0.185 C 
BRANCH   5   6
HETATM    6  C           1       1.237   0.899  -1.612  0.00  0.00     0.196 C 
HETATM    7  O           1       2.265   1.411  -1.118  0.00  0.00    -0.646 OA
HETATM    8  O           1       0.905   1.171  -2.786  0.00  0.00    -0.646 OA
ENDBRANCH   5   6
BRANCH   5   9
HETATM    9  C           1      -0.787  -0.528  -1.620  0.00  0.00     0.038 C 
BRANCH   9  10
HETATM   10  C           1      -0.280  -1.246  -2.863  0.00  0.00     0.030 C 
BRANCH  10  11
HETATM   11  C           1      -0.788  -2.682  -2.863  0.00  0.00     0.230 C 
BRANCH  11  12
HETATM   12  N           1      -2.288  -2.682  -2.863  0.00  0.00    -0.079 N 
HETATM   13  H           1      -2.637  -3.667  -2.863  0.00  0.00     0.274 HD
HETATM   14  H           1      -2.636  -2.190  -2.010  0.00  0.00     0.274 HD
HETATM   15  H           1      -2.636  -2.189  -3.717  0.00  0.00     0.274 HD
ENDBRANCH  11  12
ENDBRANCH  10  11
ENDBRANCH   9  10
ENDBRANCH   5   9
ENDBRANCH   2   5
BRANCH   1  16
HETATM   16  C           1       0.299   1.869   2.524  0.00  0.00     0.274 C 
BRANCH  16  17
HETATM   17  C           1       1.483   2.348   3.355  0.00  0.00     0.045 C 
BRANCH  17  18
HETATM   18 Se           1       2.565   0.817   3.888  0.00  0.00     0.000 Se
HETATM   19  H           1       3.550   1.624   4.626  0.00  0.00     0.000 HD
ENDBRANCH  17  18
ENDBRANCH  16  17
BRANCH  16  20
HETATM   20  N           1      -0.535   0.927   3.341  0.00  0.00    -0.067 N 
HETATM   21  H           1      -0.884   1.419   4.194  0.00  0.00     0.275 HD
HETATM   22  H           1      -1.347   0.598   2.771  0.00  0.00     0.275 HD
HETATM   23  H           1       0.046   0.106   3.626  0.00  0.00     0.275 HD
ENDBRANCH  16  20
ENDBRANCH   1  16
TORSDOF 10
