REMARK  8 active torsions:
REMARK  status: ('A' for Active; 'I' for Inactive)
REMARK    1  A    between atoms: N_3  and  C_6 
REMARK    2  A    between atoms: Se_4  and  C_5 
REMARK    3  A    between atoms: C_5  and  C_6 
REMARK    4  A    between atoms: C_6  and  C_7 
REMARK       I    between atoms: C_7  and  N_8 
REMARK    5  A    between atoms: N_8  and  C_12 
REMARK    6  A    between atoms: C_11  and  C_12 
REMARK    7  A    between atoms: C_12  and  C_14 
REMARK    8  A    between atoms: C_14  and  C_15 
ROOT
HETATM    1  H           1       0.237  -0.980   0.168  0.00  0.00     0.163 HD
HETATM    2  O           1      -0.018   1.531  -1.695  0.00  0.00    -0.271 OA
HETATM    3  C           1      -0.188   0.396  -1.318  0.00  0.00     0.249 C 
HETATM    4  N           1       0.379  -0.029  -0.147  0.00  0.00    -0.344 N 
ENDROOT
BRANCH   3   5
HETATM    5  C           1      -1.026  -0.553  -2.139  0.00  0.00     0.274 C 
BRANCH   5   6
HETATM    6  N           1      -2.193  -1.024  -1.321  0.00  0.00    -0.067 N 
HETATM    7  H           1      -2.774  -1.682  -1.889  0.00  0.00     0.275 HD
HETATM    8  H           1      -1.843  -1.516  -0.468  0.00  0.00     0.275 HD
HETATM    9  H           1      -2.773  -0.203  -1.037  0.00  0.00     0.275 HD
ENDBRANCH   5   6
BRANCH   5  10
HETATM   10  C           1      -1.536   0.163  -3.383  0.00  0.00     0.045 C 
BRANCH  10  11
HETATM   11 Se           1      -2.619   1.694  -2.854  0.00  0.00     0.000 Se
HETATM   12  H           1      -2.915   2.109  -4.235  0.00  0.00     0.000 HD
ENDBRANCH  10  11
ENDBRANCH   5  10
ENDBRANCH   3   5
BRANCH   4  13
HETATM   13  C           1       1.185   0.883   0.641  0.00  0.00     0.189 C 
BRANCH  13  14
HETATM   14  C           1       2.358   1.357  -0.182  0.00  0.00     0.197 C 
HETATM   15  O           1       3.525   1.132   0.206  0.00  0.00    -0.646 OA
HETATM   16  O           1       2.162   1.974  -1.251  0.00  0.00    -0.646 OA
ENDBRANCH  13  14
BRANCH  13  17
HETATM   17  C           1       1.693   0.165   1.884  0.00  0.00     0.014 C 
HETATM   18  C           1       1.186   0.884   3.128  0.00  0.00     0.012 C 
BRANCH  17  19
HETATM   19  C           1       1.185  -1.271   1.884  0.00  0.00     0.002 C 
HETATM   20  C           1      -0.338  -1.271   1.884  0.00  0.00     0.005 C 
ENDBRANCH  17  19
ENDBRANCH  13  17
ENDBRANCH   4  13
TORSDOF 8
