REMARK  3 active torsions:
REMARK  status: ('A' for Active; 'I' for Inactive)
REMARK    1  A    between atoms: C_5  and  C_6 
REMARK    2  A    between atoms: C_6  and  N_14 
REMARK       I    between atoms: N_14  and  C_15 
REMARK    3  A    between atoms: C_15  and  C_16 
ROOT
HETATM    1  H           1       0.186  -1.893   2.414  0.00  0.00     0.275 HD
HETATM    2  H           1      -1.206  -1.399   1.560  0.00  0.00     0.275 HD
HETATM    3  H           1       0.188  -1.892   0.707  0.00  0.00     0.275 HD
HETATM    4  N           1      -0.161  -1.400   1.560  0.00  0.00    -0.067 N 
HETATM    5  C           1       2.585  -3.020  -1.362  0.00  0.00     0.000 C 
HETATM    6 Se           1       1.721  -2.542   0.319  0.00  0.00     0.000 Se
HETATM    7  C           1       0.339   0.015   1.561  0.00  0.00     0.274 C 
HETATM    8  C           1       1.862   0.014   1.562  0.00  0.00     0.042 C 
HETATM    9  C           1       2.371  -0.705   0.320  0.00  0.00     0.003 C 
ENDROOT
BRANCH   7  10
HETATM   10  C           1      -0.163   0.725   0.328  0.00  0.00     0.249 C 
HETATM   11  O           1       0.622   1.184  -0.467  0.00  0.00    -0.271 OA
HETATM   12  N           1      -1.509   0.851   0.110  0.00  0.00    -0.345 N 
HETATM   13  H           1      -2.167   0.467   0.777  0.00  0.00     0.163 HD
BRANCH  12  14
HETATM   14  C           1      -1.992   1.534  -1.074  0.00  0.00     0.181 C 
HETATM   15  C           1      -3.515   1.534  -1.074  0.00  0.00     0.043 C 
BRANCH  14  16
HETATM   16  C           1      -1.488   2.956  -1.074  0.00  0.00     0.196 C 
HETATM   17  O           1      -2.300   3.907  -1.074  0.00  0.00    -0.646 OA
HETATM   18  O           1      -0.259   3.184  -1.074  0.00  0.00    -0.646 OA
ENDBRANCH  14  16
ENDBRANCH  12  14
ENDBRANCH   7  10
TORSDOF 3
