REMARK  9 active torsions:
REMARK  status: ('A' for Active; 'I' for Inactive)
REMARK    1  A    between atoms: N_3  and  C_7 
REMARK    2  A    between atoms: Se_5  and  C_19 
REMARK    3  A    between atoms: C_7  and  C_8 
REMARK    4  A    between atoms: C_7  and  C_20 
REMARK       I    between atoms: C_8  and  N_9 
REMARK    5  A    between atoms: N_9  and  C_13 
REMARK    6  A    between atoms: C_12  and  C_13 
REMARK    7  A    between atoms: C_13  and  C_14 
REMARK    8  A    between atoms: C_14  and  O_15 
REMARK    9  A    between atoms: C_19  and  C_20 
ROOT
HETATM    1  H           1      -0.246  -2.230   0.712  0.00  0.00     0.163 HD
HETATM    2  O           1      -0.669   0.879   0.711  0.00  0.00    -0.271 OA
HETATM    3  C           1      -0.066  -0.168   0.712  0.00  0.00     0.249 C 
HETATM    4  N           1      -0.751  -1.353   0.712  0.00  0.00    -0.343 N 
ENDROOT
BRANCH   3   5
HETATM    5  C           1       1.443  -0.169   0.713  0.00  0.00     0.274 C 
BRANCH   5   6
HETATM    6  N           1       1.943  -0.877  -0.512  0.00  0.00    -0.067 N 
HETATM    7  H           1       2.988  -0.878  -0.513  0.00  0.00     0.275 HD
HETATM    8  H           1       1.593  -1.861  -0.512  0.00  0.00     0.275 HD
HETATM    9  H           1       1.595  -0.383  -1.365  0.00  0.00     0.275 HD
ENDBRANCH   5   6
BRANCH   5  10
HETATM   10  C           1       1.953   1.266   0.713  0.00  0.00     0.042 C 
BRANCH  10  11
HETATM   11  C           1       1.448   1.985  -0.531  0.00  0.00     0.003 C 
BRANCH  11  12
HETATM   12 Se           1       2.965   2.595  -1.591  0.00  0.00     0.000 Se
HETATM   13  C           1       1.873   3.404  -2.989  0.00  0.00     0.000 C 
ENDBRANCH  11  12
ENDBRANCH  10  11
ENDBRANCH   5  10
ENDBRANCH   3   5
BRANCH   4  14
HETATM   14  C           1      -2.201  -1.351   0.711  0.00  0.00     0.209 C 
BRANCH  14  15
HETATM   15  C           1      -2.704  -0.639   1.943  0.00  0.00     0.198 C 
HETATM   16  O           1      -3.423  -1.246   2.766  0.00  0.00    -0.646 OA
HETATM   17  O           1      -2.401   0.558   2.140  0.00  0.00    -0.646 OA
ENDBRANCH  14  15
BRANCH  14  18
HETATM   18  C           1      -2.710  -2.787   0.711  0.00  0.00     0.200 C 
BRANCH  18  19
HETATM   19  O           1      -4.112  -2.787   0.711  0.00  0.00    -0.398 OA
HETATM   20  H           1      -4.386  -3.688   0.711  0.00  0.00     0.209 HD
ENDBRANCH  18  19
ENDBRANCH  14  18
ENDBRANCH   4  14
TORSDOF 9
