REMARK  9 active torsions:
REMARK  status: ('A' for Active; 'I' for Inactive)
REMARK    1  A    between atoms: C_4  and  C_20 
REMARK    2  A    between atoms: C_4  and  Se_5 
REMARK    3  A    between atoms: N_6  and  C_20 
REMARK    4  A    between atoms: S_13  and  C_14 
REMARK    5  A    between atoms: C_14  and  C_15 
REMARK    6  A    between atoms: C_15  and  C_16 
REMARK    7  A    between atoms: C_16  and  C_17 
REMARK    8  A    between atoms: C_16  and  N_18 
REMARK       I    between atoms: N_18  and  C_19 
REMARK    9  A    between atoms: C_19  and  C_20 
ROOT
HETATM    1  O           1       1.774  -1.259  -0.919  0.00  0.00    -0.271 OA
HETATM    2  H           1      -1.144  -0.250  -0.366  0.00  0.00     0.163 HD
HETATM    3  N           1      -0.154  -0.387  -0.207  0.00  0.00    -0.345 N 
HETATM    4  C           1       0.593  -1.096  -1.109  0.00  0.00     0.249 C 
ENDROOT
BRANCH   3   5
HETATM    5  C           1       0.473   0.170   0.976  0.00  0.00     0.186 C 
BRANCH   5   6
HETATM    6  C           1      -0.571   0.906   1.805  0.00  0.00     0.046 C 
BRANCH   6   7
HETATM    7  C           1       0.087   1.490   3.048  0.00  0.00     0.076 C 
BRANCH   7   8
HETATM    8  S           1      -0.112   3.294   3.048  0.00  0.00    -0.173 SA
HETATM    9  C           1      -1.927   3.294   3.048  0.00  0.00     0.089 C 
ENDBRANCH   7   8
ENDBRANCH   6   7
ENDBRANCH   5   6
BRANCH   5  10
HETATM   10  C           1       1.074  -0.945   1.797  0.00  0.00     0.196 C 
HETATM   11  O           1       1.958  -1.678   1.303  0.00  0.00    -0.646 OA
HETATM   12  O           1       0.689  -1.134   2.971  0.00  0.00    -0.646 OA
ENDBRANCH   5  10
ENDBRANCH   3   5
BRANCH   4  13
HETATM   13  C           1      -0.061  -1.675  -2.340  0.00  0.00     0.274 C 
BRANCH  13  14
HETATM   14  C           1       0.982  -2.412  -3.170  0.00  0.00     0.045 C 
BRANCH  14  15
HETATM   15 Se           1       2.385  -1.169  -3.704  0.00  0.00     0.000 Se
HETATM   16  H           1       3.160  -2.180  -4.441  0.00  0.00     0.000 HD
ENDBRANCH  14  15
ENDBRANCH  13  14
BRANCH  13  17
HETATM   17  N           1      -0.657  -0.567  -3.156  0.00  0.00    -0.067 N 
HETATM   18  H           1       0.095   0.099  -3.441  0.00  0.00     0.275 HD
HETATM   19  H           1      -1.373  -0.062  -2.587  0.00  0.00     0.275 HD
HETATM   20  H           1      -1.110  -0.967  -4.009  0.00  0.00     0.275 HD
ENDBRANCH  13  17
ENDBRANCH   4  13
TORSDOF 9
