REMARK  9 active torsions:
REMARK  status: ('A' for Active; 'I' for Inactive)
REMARK    1  A    between atoms: C_1  and  C_19 
REMARK       I    between atoms: C_5  and  N_6 
REMARK    2  A    between atoms: C_5  and  C_7 
REMARK    3  A    between atoms: C_7  and  C_18 
REMARK    4  A    between atoms: N_12  and  C_15 
REMARK    5  A    between atoms: Se_13  and  C_14 
REMARK    6  A    between atoms: C_14  and  C_15 
REMARK    7  A    between atoms: C_15  and  C_16 
REMARK       I    between atoms: C_16  and  N_17 
REMARK    8  A    between atoms: N_17  and  C_19 
REMARK    9  A    between atoms: C_18  and  C_19 
ROOT
HETATM    1  H           1      -0.030   1.455  -0.961  0.00  0.00     0.163 HD
HETATM    2  O           1      -0.939   0.124   1.730  0.00  0.00    -0.271 OA
HETATM    3  C           1      -0.932   0.923   0.824  0.00  0.00     0.249 C 
HETATM    4  N           1      -0.036   0.786  -0.202  0.00  0.00    -0.345 N 
ENDROOT
BRANCH   4   5
HETATM    5  C           1       0.905  -0.317  -0.201  0.00  0.00     0.186 C 
BRANCH   5   6
HETATM    6  C           1       1.771  -0.238   1.031  0.00  0.00     0.196 C 
HETATM    7  O           1       1.249  -0.285   2.166  0.00  0.00    -0.646 OA
HETATM    8  O           1       3.011  -0.125   0.918  0.00  0.00    -0.646 OA
ENDBRANCH   5   6
BRANCH   5   9
HETATM    9  C           1       1.781  -0.238  -1.445  0.00  0.00     0.045 C 
BRANCH   9  10
HETATM   10  C           1       2.770  -1.396  -1.445  0.00  0.00     0.105 C 
BRANCH  10  11
HETATM   11  C           1       2.015  -2.703  -1.445  0.00  0.00     0.215 C 
HETATM   12  O           1       0.807  -2.703  -1.445  0.00  0.00    -0.274 OA
HETATM   13  N           1       2.700  -3.888  -1.445  0.00  0.00    -0.370 N 
HETATM   14  H           1       3.712  -3.888  -1.445  0.00  0.00     0.159 HD
HETATM   15  H           1       2.194  -4.765  -1.445  0.00  0.00     0.159 HD
ENDBRANCH  10  11
ENDBRANCH   9  10
ENDBRANCH   5   9
ENDBRANCH   4   5
BRANCH   3  16
HETATM   16  C           1      -1.911   2.071   0.823  0.00  0.00     0.274 C 
BRANCH  16  17
HETATM   17  N           1      -2.773   1.992  -0.402  0.00  0.00    -0.067 N 
HETATM   18  H           1      -3.451   2.787  -0.403  0.00  0.00     0.275 HD
HETATM   19  H           1      -2.171   2.046  -1.255  0.00  0.00     0.275 HD
HETATM   20  H           1      -3.296   1.087  -0.401  0.00  0.00     0.275 HD
ENDBRANCH  16  17
BRANCH  16  21
HETATM   21  C           1      -2.787   1.993   2.066  0.00  0.00     0.045 C 
BRANCH  21  22
HETATM   22 Se           1      -3.765   0.307   2.067  0.00  0.00     0.000 Se
HETATM   23  H           1      -4.459   0.577   3.337  0.00  0.00     0.000 HD
ENDBRANCH  21  22
ENDBRANCH  16  21
ENDBRANCH   3  16
TORSDOF 9
