REMARK  11 active torsions:
REMARK  status: ('A' for Active; 'I' for Inactive)
REMARK    1  A    between atoms: N_3  and  C_6 
REMARK    2  A    between atoms: Se_4  and  C_5 
REMARK    3  A    between atoms: C_5  and  C_6 
REMARK    4  A    between atoms: C_6  and  C_7 
REMARK       I    between atoms: C_7  and  N_8 
REMARK    5  A    between atoms: N_8  and  C_21 
REMARK    6  A    between atoms: O_12  and  P_14 
REMARK    7  A    between atoms: P_14  and  O_15 
REMARK    8  A    between atoms: O_15  and  C_16 
REMARK    9  A    between atoms: C_19  and  C_20 
REMARK   10  A    between atoms: C_20  and  C_21 
REMARK   11  A    between atoms: C_21  and  C_23 
ROOT
HETATM    1  C           1       2.450   0.984  -1.247  0.00  0.00     0.189 C 
ENDROOT
BRANCH   1   2
HETATM    2  N           1       2.907   1.194   0.113  0.00  0.00    -0.344 N 
HETATM    3  C           1       2.274   0.566   1.152  0.00  0.00     0.249 C 
HETATM    4  O           1       2.647  -0.524   1.517  0.00  0.00    -0.271 OA
HETATM    5  H           1       3.694   1.804   0.294  0.00  0.00     0.163 HD
BRANCH   3   6
HETATM    6  C           1       1.112   1.236   1.843  0.00  0.00     0.274 C 
BRANCH   6   7
HETATM    7  N           1       0.016   1.483   0.848  0.00  0.00    -0.067 N 
HETATM    8  H           1      -0.790   1.947   1.325  0.00  0.00     0.275 HD
HETATM    9  H           1       0.372   2.103   0.086  0.00  0.00     0.275 HD
HETATM   10  H           1      -0.297   0.573   0.441  0.00  0.00     0.275 HD
ENDBRANCH   6   7
BRANCH   6  11
HETATM   11  C           1       0.592   0.333   2.954  0.00  0.00     0.045 C 
BRANCH  11  12
HETATM   12 Se           1       0.007  -1.363   2.195  0.00  0.00     0.000 Se
HETATM   13  H           1      -0.402  -1.934   3.489  0.00  0.00     0.000 HD
ENDBRANCH  11  12
ENDBRANCH   6  11
ENDBRANCH   3   6
ENDBRANCH   1   2
BRANCH   1  14
HETATM   14  C           1       1.001   1.438  -1.370  0.00  0.00     0.074 C 
BRANCH  14  15
HETATM   15  C           1       0.090   0.289  -1.065  0.00  0.00    -0.056 A 
HETATM   16  C           1      -1.293   0.464  -1.114  0.00  0.00     0.010 A 
HETATM   17  C           1      -2.141  -0.607  -0.830  0.00  0.00     0.038 A 
HETATM   18  C           1      -1.606  -1.851  -0.497  0.00  0.00     0.081 A 
HETATM   19  C           1      -0.223  -2.026  -0.449  0.00  0.00     0.038 A 
HETATM   20  C           1       0.625  -0.955  -0.733  0.00  0.00     0.010 A 
BRANCH  18  21
HETATM   21  O           1      -2.430  -2.891  -0.222  0.00  0.00    -0.247 OA
BRANCH  21  22
HETATM   22  P           1      -4.023  -2.635  -0.292  0.00  0.00     0.411 P 
HETATM   23  O           1      -4.739  -3.887   0.040  0.00  0.00    -0.624 OA
HETATM   24  O           1      -4.398  -1.581   0.677  0.00  0.00    -0.624 OA
BRANCH  22  25
HETATM   25  O           1      -4.426  -2.163  -1.783  0.00  0.00    -0.300 OA
HETATM   26  H           1      -5.359  -2.032  -1.754  0.00  0.00     0.223 HD
ENDBRANCH  22  25
ENDBRANCH  21  22
ENDBRANCH  18  21
ENDBRANCH  14  15
ENDBRANCH   1  14
BRANCH   1  27
HETATM   27  C           1       3.310   1.784  -2.195  0.00  0.00     0.197 C 
HETATM   28  O           1       2.792   2.660  -2.921  0.00  0.00    -0.646 OA
HETATM   29  O           1       4.540   1.570  -2.254  0.00  0.00    -0.646 OA
ENDBRANCH   1  27
TORSDOF 11
