REMARK  9 active torsions:
REMARK  status: ('A' for Active; 'I' for Inactive)
REMARK    1  A    between atoms: N_1  and  C_21 
REMARK       I    between atoms: N_1  and  C_10 
REMARK    2  A    between atoms: N_4  and  C_9 
REMARK    3  A    between atoms: Se_6  and  C_7 
REMARK    4  A    between atoms: C_7  and  C_8 
REMARK    5  A    between atoms: C_8  and  C_9 
REMARK    6  A    between atoms: C_9  and  C_10 
REMARK    7  A    between atoms: C_11  and  C_21 
REMARK    8  A    between atoms: C_21  and  C_22 
REMARK    9  A    between atoms: C_22  and  C_23 
ROOT
HETATM    1  N           1       2.523   1.248  -0.222  0.00  0.00    -0.344 N 
HETATM    2  O           1       2.263  -0.469   1.182  0.00  0.00    -0.271 OA
HETATM    3  C           1       1.891   0.620   0.818  0.00  0.00     0.249 C 
HETATM    4  H           1       3.310   1.858  -0.041  0.00  0.00     0.163 HD
ENDROOT
BRANCH   1   5
HETATM    5  C           1       2.066   1.039  -1.582  0.00  0.00     0.189 C 
BRANCH   5   6
HETATM    6  C           1       2.926   1.838  -2.529  0.00  0.00     0.197 C 
HETATM    7  O           1       4.156   1.624  -2.588  0.00  0.00    -0.646 OA
HETATM    8  O           1       2.408   2.714  -3.255  0.00  0.00    -0.646 OA
ENDBRANCH   5   6
BRANCH   5   9
HETATM    9  C           1       0.617   1.492  -1.705  0.00  0.00     0.074 C 
BRANCH   9  10
HETATM   10  C           1      -0.293   0.343  -1.400  0.00  0.00    -0.056 A 
HETATM   11  C           1      -1.676   0.518  -1.448  0.00  0.00     0.007 A 
HETATM   12  C           1      -2.525  -0.552  -1.165  0.00  0.00     0.001 A 
HETATM   13  C           1      -1.990  -1.797  -0.832  0.00  0.00     0.000 A 
HETATM   14  C           1      -0.607  -1.971  -0.784  0.00  0.00     0.001 A 
HETATM   15  C           1       0.241  -0.901  -1.067  0.00  0.00     0.007 A 
ENDBRANCH   9  10
ENDBRANCH   5   9
ENDBRANCH   1   5
BRANCH   3  16
HETATM   16  C           1       0.728   1.290   1.508  0.00  0.00     0.274 C 
BRANCH  16  17
HETATM   17  N           1      -0.368   1.538   0.514  0.00  0.00    -0.067 N 
HETATM   18  H           1      -1.174   2.001   0.991  0.00  0.00     0.275 HD
HETATM   19  H           1      -0.012   2.157  -0.249  0.00  0.00     0.275 HD
HETATM   20  H           1      -0.681   0.628   0.106  0.00  0.00     0.275 HD
ENDBRANCH  16  17
BRANCH  16  21
HETATM   21  C           1       0.208   0.388   2.620  0.00  0.00     0.042 C 
BRANCH  21  22
HETATM   22  C           1      -0.249  -0.938   2.026  0.00  0.00     0.003 C 
BRANCH  22  23
HETATM   23 Se           1      -2.141  -1.204   2.411  0.00  0.00     0.000 Se
HETATM   24  C           1      -2.251  -2.927   1.504  0.00  0.00     0.000 C 
ENDBRANCH  22  23
ENDBRANCH  21  22
ENDBRANCH  16  21
ENDBRANCH   3  16
TORSDOF 9
