REMARK  6 active torsions:
REMARK  status: ('A' for Active; 'I' for Inactive)
REMARK       I    between atoms: C_1  and  N_24 
REMARK    1  A    between atoms: C_1  and  C_2 
REMARK    2  A    between atoms: C_13  and  C_16 
REMARK    3  A    between atoms: C_16  and  C_20 
REMARK    4  A    between atoms: O_19  and  C_26 
REMARK    5  A    between atoms: C_20  and  C_21 
REMARK    6  A    between atoms: C_20  and  N_24 
ROOT
HETATM    1  C           1       0.255  -1.914  -0.775  0.00  0.00     0.189 C 
ENDROOT
BRANCH   1   2
HETATM    2  C           1       1.703  -2.367  -0.652  0.00  0.00     0.074 C 
BRANCH   2   3
HETATM    3  C           1       2.614  -1.219  -0.956  0.00  0.00    -0.056 A 
HETATM    4  C           1       3.997  -1.393  -0.908  0.00  0.00     0.010 A 
HETATM    5  C           1       4.845  -0.323  -1.191  0.00  0.00     0.037 A 
HETATM    6  C           1       4.311   0.921  -1.524  0.00  0.00     0.065 A 
HETATM    7  C           1       2.928   1.096  -1.573  0.00  0.00     0.037 A 
HETATM    8  C           1       2.079   0.026  -1.289  0.00  0.00     0.010 A 
BRANCH   6   9
HETATM    9  O           1       5.135   1.961  -1.800  0.00  0.00    -0.361 OA
HETATM   10  H           1       4.584   2.734  -2.007  0.00  0.00     0.217 HD
ENDBRANCH   6   9
ENDBRANCH   2   3
ENDBRANCH   1   2
BRANCH   1  11
HETATM   11  C           1      -0.603  -3.080  -1.201  0.00  0.00     0.197 C 
HETATM   12  O           1      -1.833  -2.925  -1.362  0.00  0.00    -0.646 OA
HETATM   13  O           1      -0.084  -4.201  -1.394  0.00  0.00    -0.646 OA
ENDBRANCH   1  11
BRANCH   1  14
HETATM   14  N           1      -0.207  -1.419   0.508  0.00  0.00    -0.344 N 
HETATM   15  C           1      -1.487  -0.954   0.642  0.00  0.00     0.249 C 
HETATM   16  O           1      -2.233  -0.956  -0.309  0.00  0.00    -0.271 OA
HETATM   17  H           1       0.418  -1.418   1.304  0.00  0.00     0.163 HD
BRANCH  15  18
HETATM   18  C           1      -1.968  -0.440   1.976  0.00  0.00     0.274 C 
HETATM   19  C           1      -3.416   0.014   1.855  0.00  0.00     0.042 C 
HETATM   20  C           1      -3.516   1.125   0.817  0.00  0.00     0.003 C 
HETATM   21 Se           1      -2.409   2.631   1.368  0.00  0.00     0.000 Se
HETATM   22  C           1      -2.842   3.728  -0.184  0.00  0.00     0.000 C 
HETATM   23  H           1      -1.184   1.481   1.688  0.00  0.00     0.275 HD
HETATM   24  N           1      -1.115   0.720   2.400  0.00  0.00    -0.067 N 
HETATM   25  H           1      -1.447   1.077   3.324  0.00  0.00     0.275 HD
HETATM   26  H           1      -0.121   0.408   2.484  0.00  0.00     0.275 HD
ENDBRANCH  15  18
ENDBRANCH   1  14
TORSDOF 6
