REMARK  5 active torsions:
REMARK  status: ('A' for Active; 'I' for Inactive)
REMARK    1  A    between atoms: C_3  and  C_4 
REMARK    2  A    between atoms: C_4  and  C_5 
REMARK    3  A    between atoms: C_4  and  N_19 
REMARK    4  A    between atoms: C_5  and  C_7 
REMARK    5  A    between atoms: C_8  and  C_18 
REMARK       I    between atoms: C_18  and  N_19 
ROOT
HETATM    1  H           1       0.109   0.903   1.486  0.00  0.00     0.163 HD
HETATM    2  O           1       1.433  -0.972  -0.652  0.00  0.00    -0.271 OA
HETATM    3  C           1       1.141  -0.558   0.445  0.00  0.00     0.249 C 
HETATM    4  N           1       0.354   0.556   0.568  0.00  0.00    -0.345 N 
ENDROOT
BRANCH   3   5
HETATM    5  C           1       1.643  -1.267   1.678  0.00  0.00     0.274 C 
HETATM    6  C           1       2.489  -2.464   1.267  0.00  0.00     0.042 C 
HETATM    7  C           1       1.644  -3.424   0.439  0.00  0.00     0.003 C 
HETATM    8 Se           1       0.127  -4.035   1.499  0.00  0.00     0.000 Se
HETATM    9  C           1      -0.607  -5.169   0.094  0.00  0.00     0.000 C 
HETATM   10  H           1      -0.104  -2.395   1.925  0.00  0.00     0.275 HD
HETATM   11  N           1       0.475  -1.737   2.494  0.00  0.00    -0.067 N 
HETATM   12  H           1       0.822  -2.228   3.349  0.00  0.00     0.275 HD
HETATM   13  H           1      -0.105  -0.915   2.777  0.00  0.00     0.275 HD
ENDBRANCH   3   5
BRANCH   4  14
HETATM   14  C           1      -0.129   1.237  -0.618  0.00  0.00     0.185 C 
BRANCH  14  15
HETATM   15  C           1       1.046   1.709  -1.439  0.00  0.00     0.196 C 
HETATM   16  O           1       1.872   0.882  -1.881  0.00  0.00    -0.646 OA
HETATM   17  O           1       1.192   2.928  -1.676  0.00  0.00    -0.646 OA
ENDBRANCH  14  15
BRANCH  14  18
HETATM   18  C           1      -0.975   2.434  -0.205  0.00  0.00     0.040 C 
BRANCH  18  19
HETATM   19  C           1      -1.482   3.152  -1.449  0.00  0.00    -0.020 C 
HETATM   20  C           1      -3.005   3.152  -1.449  0.00  0.00     0.009 C 
HETATM   21  C           1      -0.974   4.587  -1.449  0.00  0.00     0.009 C 
ENDBRANCH  18  19
ENDBRANCH  14  18
ENDBRANCH   4  14
TORSDOF 5
