REMARK  9 active torsions:
REMARK  status: ('A' for Active; 'I' for Inactive)
REMARK    1  A    between atoms: C_1  and  C_11 
REMARK    2  A    between atoms: C_1  and  C_2 
REMARK    3  A    between atoms: C_1  and  N_4 
REMARK    4  A    between atoms: C_2  and  Se_3 
REMARK       I    between atoms: C_11  and  N_12 
REMARK    5  A    between atoms: N_12  and  C_16 
REMARK    6  A    between atoms: C_15  and  C_16 
REMARK    7  A    between atoms: C_16  and  C_17 
REMARK    8  A    between atoms: C_17  and  C_18 
REMARK    9  A    between atoms: C_18  and  C_20 
ROOT
HETATM    1  O           1      -0.731  -0.178   1.631  0.00  0.00    -0.271 OA
HETATM    2  H           1       0.177   1.153  -1.061  0.00  0.00     0.163 HD
HETATM    3  C           1      -0.725   0.621   0.724  0.00  0.00     0.249 C 
HETATM    4  N           1       0.171   0.484  -0.302  0.00  0.00    -0.345 N 
ENDROOT
BRANCH   4   5
HETATM    5  C           1       1.112  -0.619  -0.301  0.00  0.00     0.186 C 
BRANCH   5   6
HETATM    6  C           1       1.978  -0.540   0.932  0.00  0.00     0.196 C 
HETATM    7  O           1       3.218  -0.427   0.818  0.00  0.00    -0.646 OA
HETATM    8  O           1       1.457  -0.587   2.067  0.00  0.00    -0.646 OA
ENDBRANCH   5   6
BRANCH   5   9
HETATM    9  C           1       1.988  -0.540  -1.544  0.00  0.00     0.046 C 
BRANCH   9  10
HETATM   10  C           1       2.977  -1.698  -1.544  0.00  0.00     0.116 C 
BRANCH  10  11
HETATM   11  C           1       2.222  -3.005  -1.544  0.00  0.00     0.172 C 
HETATM   12  O           1       2.847  -4.087  -1.544  0.00  0.00    -0.648 OA
HETATM   13  O           1       0.972  -3.005  -1.544  0.00  0.00    -0.648 OA
ENDBRANCH  10  11
ENDBRANCH   9  10
ENDBRANCH   5   9
ENDBRANCH   4   5
BRANCH   3  14
HETATM   14  C           1      -1.703   1.769   0.724  0.00  0.00     0.274 C 
BRANCH  14  15
HETATM   15  C           1      -2.580   1.691   1.966  0.00  0.00     0.045 C 
BRANCH  15  16
HETATM   16 Se           1      -3.558   0.005   1.967  0.00  0.00     0.000 Se
HETATM   17  H           1      -4.252   0.275   3.238  0.00  0.00     0.000 HD
ENDBRANCH  15  16
ENDBRANCH  14  15
BRANCH  14  18
HETATM   18  N           1      -2.565   1.690  -0.501  0.00  0.00    -0.067 N 
HETATM   19  H           1      -3.244   2.485  -0.503  0.00  0.00     0.275 HD
HETATM   20  H           1      -1.964   1.744  -1.354  0.00  0.00     0.275 HD
HETATM   21  H           1      -3.089   0.785  -0.501  0.00  0.00     0.275 HD
ENDBRANCH  14  18
ENDBRANCH   3  14
TORSDOF 9
