REMARK  8 active torsions:
REMARK  status: ('A' for Active; 'I' for Inactive)
REMARK    1  A    between atoms: C_1  and  C_2 
REMARK    2  A    between atoms: C_1  and  C_13 
REMARK    3  A    between atoms: C_1  and  N_10 
REMARK    4  A    between atoms: C_2  and  C_15 
REMARK    5  A    between atoms: N_5  and  C_8 
REMARK    6  A    between atoms: Se_6  and  C_7 
REMARK    7  A    between atoms: C_7  and  C_8 
REMARK    8  A    between atoms: C_8  and  C_9 
REMARK       I    between atoms: C_9  and  N_10 
ROOT
HETATM    1  O           1       1.389  -1.810  -0.622  0.00  0.00    -0.271 OA
HETATM    2  C           1       1.097  -1.395   0.474  0.00  0.00     0.249 C 
HETATM    3  N           1       0.310  -0.282   0.597  0.00  0.00    -0.345 N 
HETATM    4  H           1       0.065   0.066   1.516  0.00  0.00     0.163 HD
ENDROOT
BRANCH   2   5
HETATM    5  C           1       1.599  -2.104   1.708  0.00  0.00     0.274 C 
BRANCH   5   6
HETATM    6  N           1       0.431  -2.574   2.523  0.00  0.00    -0.067 N 
HETATM    7  H           1       0.778  -3.066   3.378  0.00  0.00     0.275 HD
HETATM    8  H           1      -0.149  -1.753   2.806  0.00  0.00     0.275 HD
HETATM    9  H           1      -0.148  -3.232   1.955  0.00  0.00     0.275 HD
ENDBRANCH   5   6
BRANCH   5  10
HETATM   10  C           1       2.445  -3.302   1.296  0.00  0.00     0.045 C 
BRANCH  10  11
HETATM   11 Se           1       1.364  -4.530   0.237  0.00  0.00     0.000 Se
HETATM   12  H           1       2.454  -5.499   0.037  0.00  0.00     0.000 HD
ENDBRANCH  10  11
ENDBRANCH   5  10
ENDBRANCH   2   5
BRANCH   3  13
HETATM   13  C           1      -0.173   0.400  -0.588  0.00  0.00     0.185 C 
BRANCH  13  14
HETATM   14  C           1      -1.019   1.597  -0.176  0.00  0.00     0.040 C 
BRANCH  14  15
HETATM   15  C           1      -1.526   2.314  -1.420  0.00  0.00    -0.020 C 
HETATM   16  C           1      -1.018   3.750  -1.420  0.00  0.00     0.009 C 
HETATM   17  C           1      -3.049   2.314  -1.420  0.00  0.00     0.009 C 
ENDBRANCH  14  15
ENDBRANCH  13  14
BRANCH  13  18
HETATM   18  C           1       1.002   0.872  -1.409  0.00  0.00     0.196 C 
HETATM   19  O           1       1.149   2.091  -1.647  0.00  0.00    -0.646 OA
HETATM   20  O           1       1.828   0.045  -1.852  0.00  0.00    -0.646 OA
ENDBRANCH  13  18
ENDBRANCH   3  13
TORSDOF 8
