REMARK  8 active torsions:
REMARK  status: ('A' for Active; 'I' for Inactive)
REMARK    1  A    between atoms: C_3  and  C_19 
REMARK    2  A    between atoms: N_6  and  C_19 
REMARK       I    between atoms: N_6  and  C_7 
REMARK    3  A    between atoms: C_7  and  C_8 
REMARK    4  A    between atoms: C_8  and  C_9 
REMARK    5  A    between atoms: C_8  and  N_11 
REMARK    6  A    between atoms: C_9  and  Se_10 
REMARK    7  A    between atoms: Se_17  and  C_18 
REMARK    8  A    between atoms: C_18  and  C_19 
ROOT
HETATM    1  N           1      -0.327  -0.644   0.119  0.00  0.00    -0.345 N 
HETATM    2  C           1       0.359   0.541   0.119  0.00  0.00     0.249 C 
HETATM    3  O           1      -0.244   1.588   0.119  0.00  0.00    -0.271 OA
HETATM    4  H           1       0.178  -1.521   0.120  0.00  0.00     0.163 HD
ENDROOT
BRANCH   2   5
HETATM    5  C           1       1.868   0.539   0.120  0.00  0.00     0.274 C 
BRANCH   5   6
HETATM    6  C           1       2.378   1.975   0.120  0.00  0.00     0.045 C 
BRANCH   6   7
HETATM    7 Se           1       1.731   2.895  -1.471  0.00  0.00     0.000 Se
HETATM    8  H           1       2.386   4.171  -1.141  0.00  0.00     0.000 HD
ENDBRANCH   6   7
ENDBRANCH   5   6
BRANCH   5   9
HETATM    9  N           1       2.367  -0.168  -1.105  0.00  0.00    -0.067 N 
HETATM   10  H           1       3.412  -0.169  -1.105  0.00  0.00     0.275 HD
HETATM   11  H           1       2.018  -1.153  -1.105  0.00  0.00     0.275 HD
HETATM   12  H           1       2.019   0.326  -1.958  0.00  0.00     0.275 HD
ENDBRANCH   5   9
ENDBRANCH   2   5
BRANCH   1  13
HETATM   13  C           1      -1.777  -0.642   0.118  0.00  0.00     0.185 C 
BRANCH  13  14
HETATM   14  C           1      -2.279   0.070   1.350  0.00  0.00     0.196 C 
HETATM   15  O           1      -1.976   1.266   1.547  0.00  0.00    -0.646 OA
HETATM   16  O           1      -2.998  -0.537   2.173  0.00  0.00    -0.646 OA
ENDBRANCH  13  14
BRANCH  13  17
HETATM   17  C           1      -2.285  -2.078   0.118  0.00  0.00     0.039 C 
BRANCH  17  18
HETATM   18 Se           1      -4.234  -2.078   0.118  0.00  0.00     0.000 Se
HETATM   19  H           1      -4.350  -3.546   0.118  0.00  0.00     0.000 HD
ENDBRANCH  17  18
ENDBRANCH  13  17
ENDBRANCH   1  13
TORSDOF 8
