REMARK  6 active torsions:
REMARK  status: ('A' for Active; 'I' for Inactive)
REMARK    1  A    between atoms: C_1  and  C_2 
REMARK    2  A    between atoms: C_1  and  C_19 
REMARK    3  A    between atoms: C_1  and  N_15 
REMARK       I    between atoms: C_2  and  N_3 
REMARK    4  A    between atoms: C_4  and  C_6 
REMARK    5  A    between atoms: Se_17  and  C_18 
REMARK    6  A    between atoms: C_18  and  C_19 
ROOT
HETATM    1  C           1       0.008   0.099   0.872  0.00  0.00     0.251 C 
HETATM    2  N           1      -0.899  -0.924   0.800  0.00  0.00    -0.336 N 
HETATM    3  C           1      -2.325  -0.872   1.110  0.00  0.00     0.188 C 
HETATM    4  C           1      -2.963  -1.713   0.018  0.00  0.00     0.038 C 
HETATM    5  C           1      -1.863  -2.660  -0.448  0.00  0.00     0.022 C 
HETATM    6  C           1      -0.651  -2.305   0.395  0.00  0.00     0.127 C 
HETATM    7  O           1      -0.347   1.197   1.227  0.00  0.00    -0.271 OA
ENDROOT
BRANCH   1   8
HETATM    8  C           1       1.452  -0.146   0.509  0.00  0.00     0.275 C 
BRANCH   8   9
HETATM    9  C           1       2.244   1.144   0.674  0.00  0.00     0.042 C 
BRANCH   9  10
HETATM   10  C           1       1.666   2.216  -0.241  0.00  0.00     0.003 C 
BRANCH  10  11
HETATM   11 Se           1       3.037   2.812  -1.491  0.00  0.00     0.000 Se
HETATM   12  C           1       1.886   4.101  -2.393  0.00  0.00     0.000 C 
ENDBRANCH  10  11
ENDBRANCH   9  10
ENDBRANCH   8   9
BRANCH   8  13
HETATM   13  N           1       1.538  -0.606  -0.916  0.00  0.00    -0.067 N 
HETATM   14  H           1       2.538  -0.776  -1.169  0.00  0.00     0.275 HD
HETATM   15  H           1       0.995  -1.492  -1.029  0.00  0.00     0.275 HD
HETATM   16  H           1       1.140   0.129  -1.544  0.00  0.00     0.275 HD
ENDBRANCH   8  13
ENDBRANCH   1   8
BRANCH   3  17
HETATM   17  C           1      -2.600  -1.460   2.472  0.00  0.00     0.196 C 
HETATM   18  O           1      -1.658  -1.906   3.162  0.00  0.00    -0.646 OA
HETATM   19  O           1      -3.770  -1.502   2.910  0.00  0.00    -0.646 OA
ENDBRANCH   3  17
TORSDOF 6
