REMARK  9 active torsions:
REMARK  status: ('A' for Active; 'I' for Inactive)
REMARK    1  A    between atoms: C_1  and  C_2 
REMARK    2  A    between atoms: C_2  and  C_4 
REMARK    3  A    between atoms: C_2  and  N_17 
REMARK    4  A    between atoms: C_4  and  C_5 
REMARK    5  A    between atoms: C_7  and  C_11 
REMARK    6  A    between atoms: C_7  and  C_8 
REMARK    7  A    between atoms: C_7  and  N_21 
REMARK    8  A    between atoms: C_8  and  C_9 
REMARK    9  A    between atoms: C_9  and  Se_10 
REMARK       I    between atoms: C_11  and  N_17 
ROOT
HETATM    1  C           1       0.457   0.019  -0.907  0.00  0.00     0.249 C 
HETATM    2  H           1       0.882  -1.357   0.580  0.00  0.00     0.163 HD
HETATM    3  O           1       0.627   1.154  -1.283  0.00  0.00    -0.271 OA
HETATM    4  N           1       1.024  -0.406   0.264  0.00  0.00    -0.344 N 
ENDROOT
BRANCH   1   5
HETATM    5  C           1      -0.381  -0.930  -1.727  0.00  0.00     0.274 C 
BRANCH   5   6
HETATM    6  C           1      -0.891  -0.214  -2.971  0.00  0.00     0.042 C 
BRANCH   6   7
HETATM    7  C           1      -1.737   0.983  -2.557  0.00  0.00     0.003 C 
BRANCH   7   8
HETATM    8 Se           1      -3.543   0.777  -3.263  0.00  0.00     0.000 Se
HETATM    9  C           1      -4.202   2.451  -2.514  0.00  0.00     0.000 C 
ENDBRANCH   7   8
ENDBRANCH   6   7
ENDBRANCH   5   6
BRANCH   5  10
HETATM   10  N           1      -1.548  -1.401  -0.909  0.00  0.00    -0.067 N 
HETATM   11  H           1      -2.128  -0.579  -0.626  0.00  0.00     0.275 HD
HETATM   12  H           1      -1.198  -1.893  -0.056  0.00  0.00     0.275 HD
HETATM   13  H           1      -2.129  -2.058  -1.477  0.00  0.00     0.275 HD
ENDBRANCH   5  10
ENDBRANCH   1   5
BRANCH   4  14
HETATM   14  C           1       1.830   0.506   1.053  0.00  0.00     0.189 C 
BRANCH  14  15
HETATM   15  C           1       3.003   0.980   0.230  0.00  0.00     0.197 C 
HETATM   16  O           1       2.807   1.597  -0.839  0.00  0.00    -0.646 OA
HETATM   17  O           1       4.170   0.756   0.618  0.00  0.00    -0.646 OA
ENDBRANCH  14  15
BRANCH  14  18
HETATM   18  C           1       2.338  -0.212   2.296  0.00  0.00     0.014 C 
HETATM   19  C           1       1.831   0.507   3.540  0.00  0.00     0.012 C 
BRANCH  18  20
HETATM   20  C           1       1.830  -1.647   2.296  0.00  0.00     0.002 C 
HETATM   21  C           1       0.307  -1.647   2.296  0.00  0.00     0.005 C 
ENDBRANCH  18  20
ENDBRANCH  14  18
ENDBRANCH   4  14
TORSDOF 9
