REMARK  11 active torsions:
REMARK  status: ('A' for Active; 'I' for Inactive)
REMARK    1  A    between atoms: N_6  and  C_9 
REMARK    2  A    between atoms: Se_7  and  C_8 
REMARK    3  A    between atoms: C_8  and  C_9 
REMARK    4  A    between atoms: C_9  and  C_10 
REMARK       I    between atoms: C_10  and  N_11 
REMARK    5  A    between atoms: N_11  and  C_15 
REMARK    6  A    between atoms: C_14  and  C_15 
REMARK    7  A    between atoms: C_15  and  C_16 
REMARK    8  A    between atoms: C_16  and  C_17 
REMARK    9  A    between atoms: C_17  and  C_18 
REMARK   10  A    between atoms: C_18  and  C_19 
REMARK   11  A    between atoms: C_19  and  N_20 
ROOT
HETATM    1  H           1      -1.224  -0.446   0.263  0.00  0.00     0.163 HD
HETATM    2  O           1      -0.799   2.662   0.262  0.00  0.00    -0.271 OA
HETATM    3  C           1      -1.403   1.616   0.263  0.00  0.00     0.249 C 
HETATM    4  N           1      -0.718   0.430   0.263  0.00  0.00    -0.345 N 
ENDROOT
BRANCH   4   5
HETATM    5  C           1       0.732   0.430   0.263  0.00  0.00     0.185 C 
BRANCH   5   6
HETATM    6  C           1       1.234   1.141  -0.970  0.00  0.00     0.196 C 
HETATM    7  O           1       1.952   0.534  -1.793  0.00  0.00    -0.646 OA
HETATM    8  O           1       0.932   2.338  -1.167  0.00  0.00    -0.646 OA
ENDBRANCH   5   6
BRANCH   5   9
HETATM    9  C           1       1.239  -1.006   0.263  0.00  0.00     0.036 C 
BRANCH   9  10
HETATM   10  C           1       2.762  -1.008   0.262  0.00  0.00     0.004 C 
BRANCH  10  11
HETATM   11  C           1       3.269  -1.727  -0.981  0.00  0.00     0.027 C 
BRANCH  11  12
HETATM   12  C           1       2.760  -3.162  -0.981  0.00  0.00     0.229 C 
BRANCH  12  13
HETATM   13  N           1       1.260  -3.162  -0.981  0.00  0.00    -0.079 N 
HETATM   14  H           1       0.912  -2.670  -1.834  0.00  0.00     0.274 HD
HETATM   15  H           1       0.913  -2.670  -0.127  0.00  0.00     0.274 HD
HETATM   16  H           1       0.912  -4.147  -0.981  0.00  0.00     0.274 HD
ENDBRANCH  12  13
ENDBRANCH  11  12
ENDBRANCH  10  11
ENDBRANCH   9  10
ENDBRANCH   5   9
ENDBRANCH   4   5
BRANCH   3  17
HETATM   17  C           1      -2.912   1.616   0.263  0.00  0.00     0.274 C 
BRANCH  17  18
HETATM   18  N           1      -3.411   0.909   1.488  0.00  0.00    -0.067 N 
HETATM   19  H           1      -4.456   0.909   1.489  0.00  0.00     0.275 HD
HETATM   20  H           1      -3.062  -0.076   1.488  0.00  0.00     0.275 HD
HETATM   21  H           1      -3.062   1.403   2.341  0.00  0.00     0.275 HD
ENDBRANCH  17  18
BRANCH  17  22
HETATM   22  C           1      -3.420   3.051   0.262  0.00  0.00     0.045 C 
BRANCH  22  23
HETATM   23 Se           1      -2.771   3.971   1.853  0.00  0.00     0.000 Se
HETATM   24  H           1      -3.425   5.248   1.523  0.00  0.00     0.000 HD
ENDBRANCH  22  23
ENDBRANCH  17  22
ENDBRANCH   3  17
TORSDOF 11
