REMARK  6 active torsions:
REMARK  status: ('A' for Active; 'I' for Inactive)
REMARK    1  A    between atoms: C_7  and  C_8 
REMARK       I    between atoms: C_8  and  N_9 
REMARK    2  A    between atoms: N_9  and  C_13 
REMARK    3  A    between atoms: C_12  and  C_13 
REMARK    4  A    between atoms: C_13  and  C_15 
REMARK    5  A    between atoms: C_15  and  C_16 
REMARK    6  A    between atoms: C_16  and  S_17 
ROOT
HETATM    1  O           1       1.337  -1.344  -0.194  0.00  0.00    -0.271 OA
HETATM    2  C           1       0.155  -1.181  -0.384  0.00  0.00     0.249 C 
HETATM    3  N           1      -0.592  -0.472   0.518  0.00  0.00    -0.345 N 
HETATM    4  H           1      -1.582  -0.335   0.359  0.00  0.00     0.163 HD
ENDROOT
BRANCH   2   5
HETATM    5  C           1      -0.498  -1.760  -1.615  0.00  0.00     0.274 C 
HETATM    6  N           1      -1.095  -0.652  -2.431  0.00  0.00    -0.067 N 
HETATM    7  H           1      -1.547  -1.052  -3.284  0.00  0.00     0.275 HD
HETATM    8  H           1      -1.811  -0.147  -1.862  0.00  0.00     0.275 HD
HETATM    9  H           1      -0.342   0.014  -2.716  0.00  0.00     0.275 HD
HETATM   10 Se           1       0.866  -0.086  -3.923  0.00  0.00     0.000 Se
HETATM   11  C           1       2.558   0.840  -4.201  0.00  0.00     0.000 C 
HETATM   12  C           1       1.641  -1.526  -2.862  0.00  0.00     0.003 C 
HETATM   13  C           1       0.545  -2.497  -2.445  0.00  0.00     0.042 C 
ENDBRANCH   2   5
BRANCH   3  14
HETATM   14  C           1       0.036   0.085   1.701  0.00  0.00     0.186 C 
BRANCH  14  15
HETATM   15  C           1       0.637  -1.030   2.522  0.00  0.00     0.196 C 
HETATM   16  O           1       0.251  -1.219   3.696  0.00  0.00    -0.646 OA
HETATM   17  O           1       1.520  -1.763   2.028  0.00  0.00    -0.646 OA
ENDBRANCH  14  15
BRANCH  14  18
HETATM   18  C           1      -1.008   0.821   2.530  0.00  0.00     0.046 C 
BRANCH  18  19
HETATM   19  C           1      -0.350   1.405   3.773  0.00  0.00     0.076 C 
BRANCH  19  20
HETATM   20  S           1      -0.549   3.209   3.773  0.00  0.00    -0.173 SA
HETATM   21  C           1      -2.364   3.209   3.773  0.00  0.00     0.089 C 
ENDBRANCH  19  20
ENDBRANCH  18  19
ENDBRANCH  14  18
ENDBRANCH   3  14
TORSDOF 6
