REMARK  10 active torsions:
REMARK  status: ('A' for Active; 'I' for Inactive)
REMARK    1  A    between atoms: C_1  and  C_21 
REMARK    2  A    between atoms: C_1  and  C_2 
REMARK    3  A    between atoms: C_1  and  N_6 
REMARK    4  A    between atoms: C_2  and  C_3 
REMARK    5  A    between atoms: C_3  and  Se_4 
REMARK       I    between atoms: C_10  and  N_11 
REMARK    6  A    between atoms: C_10  and  C_12 
REMARK    7  A    between atoms: C_12  and  C_13 
REMARK    8  A    between atoms: C_13  and  C_14 
REMARK    9  A    between atoms: C_14  and  C_15 
REMARK   10  A    between atoms: C_14  and  N_20 
REMARK       I    between atoms: N_20  and  C_21 
ROOT
HETATM    1  O           1      -0.084   0.217   1.429  0.00  0.00    -0.271 OA
HETATM    2  N           1       0.818   0.879  -0.503  0.00  0.00    -0.345 N 
HETATM    3  C           1      -0.078   1.016   0.523  0.00  0.00     0.249 C 
HETATM    4  H           1       0.824   1.548  -1.262  0.00  0.00     0.163 HD
ENDROOT
BRANCH   2   5
HETATM    5  C           1       1.759  -0.225  -0.502  0.00  0.00     0.186 C 
BRANCH   5   6
HETATM    6  C           1       2.635  -0.145  -1.746  0.00  0.00     0.045 C 
BRANCH   6   7
HETATM    7  C           1       3.624  -1.303  -1.746  0.00  0.00     0.105 C 
BRANCH   7   8
HETATM    8  C           1       2.869  -2.610  -1.746  0.00  0.00     0.215 C 
HETATM    9  O           1       1.661  -2.610  -1.746  0.00  0.00    -0.274 OA
HETATM   10  N           1       3.554  -3.795  -1.746  0.00  0.00    -0.370 N 
HETATM   11  H           1       4.566  -3.795  -1.746  0.00  0.00     0.159 HD
HETATM   12  H           1       3.048  -4.672  -1.746  0.00  0.00     0.159 HD
ENDBRANCH   7   8
ENDBRANCH   6   7
ENDBRANCH   5   6
BRANCH   5  13
HETATM   13  C           1       2.625  -0.145   0.731  0.00  0.00     0.196 C 
HETATM   14  O           1       2.103  -0.192   1.865  0.00  0.00    -0.646 OA
HETATM   15  O           1       3.865  -0.032   0.617  0.00  0.00    -0.646 OA
ENDBRANCH   5  13
ENDBRANCH   2   5
BRANCH   3  16
HETATM   16  C           1      -1.057   2.164   0.522  0.00  0.00     0.274 C 
BRANCH  16  17
HETATM   17  C           1      -1.933   2.086   1.765  0.00  0.00     0.042 C 
BRANCH  17  18
HETATM   18  C           1      -2.697   0.768   1.766  0.00  0.00     0.003 C 
BRANCH  18  19
HETATM   19 Se           1      -4.613   1.128   1.765  0.00  0.00     0.000 Se
HETATM   20  C           1      -5.131  -0.751   1.766  0.00  0.00     0.000 C 
ENDBRANCH  18  19
ENDBRANCH  17  18
ENDBRANCH  16  17
BRANCH  16  21
HETATM   21  N           1      -1.919   2.085  -0.703  0.00  0.00    -0.067 N 
HETATM   22  H           1      -2.597   2.880  -0.704  0.00  0.00     0.275 HD
HETATM   23  H           1      -1.317   2.139  -1.555  0.00  0.00     0.275 HD
HETATM   24  H           1      -2.442   1.180  -0.702  0.00  0.00     0.275 HD
ENDBRANCH  16  21
ENDBRANCH   3  16
TORSDOF 10
