REMARK  9 active torsions:
REMARK  status: ('A' for Active; 'I' for Inactive)
REMARK    1  A    between atoms: N_2  and  C_19 
REMARK       I    between atoms: N_2  and  C_3 
REMARK    2  A    between atoms: C_3  and  C_10 
REMARK    3  A    between atoms: N_7  and  C_10 
REMARK    4  A    between atoms: Se_8  and  C_9 
REMARK    5  A    between atoms: C_9  and  C_10 
REMARK    6  A    between atoms: O_11  and  C_12 
REMARK    7  A    between atoms: C_15  and  C_18 
REMARK    8  A    between atoms: C_18  and  C_19 
REMARK    9  A    between atoms: C_19  and  C_20 
ROOT
HETATM    1  C           1      -0.223  -1.387  -0.777  0.00  0.00     0.189 C 
ENDROOT
BRANCH   1   2
HETATM    2  N           1      -0.685  -0.892   0.506  0.00  0.00    -0.344 N 
HETATM    3  C           1      -1.965  -0.427   0.639  0.00  0.00     0.249 C 
HETATM    4  O           1      -2.711  -0.429  -0.311  0.00  0.00    -0.271 OA
HETATM    5  H           1      -0.060  -0.891   1.302  0.00  0.00     0.163 HD
BRANCH   3   6
HETATM    6  C           1      -2.446   0.088   1.974  0.00  0.00     0.274 C 
BRANCH   6   7
HETATM    7  N           1      -1.593   1.247   2.398  0.00  0.00    -0.067 N 
HETATM    8  H           1      -1.925   1.604   3.322  0.00  0.00     0.275 HD
HETATM    9  H           1      -0.599   0.936   2.482  0.00  0.00     0.275 HD
HETATM   10  H           1      -1.662   2.008   1.685  0.00  0.00     0.275 HD
ENDBRANCH   6   7
BRANCH   6  11
HETATM   11  C           1      -3.894   0.541   1.853  0.00  0.00     0.045 C 
BRANCH  11  12
HETATM   12 Se           1      -4.022   1.962   0.525  0.00  0.00     0.000 Se
HETATM   13  H           1      -5.477   2.131   0.676  0.00  0.00     0.000 HD
ENDBRANCH  11  12
ENDBRANCH   6  11
ENDBRANCH   3   6
ENDBRANCH   1   2
BRANCH   1  14
HETATM   14  C           1       1.225  -1.840  -0.654  0.00  0.00     0.074 C 
BRANCH  14  15
HETATM   15  C           1       2.136  -0.692  -0.958  0.00  0.00    -0.056 A 
HETATM   16  C           1       3.519  -0.866  -0.910  0.00  0.00     0.010 A 
HETATM   17  C           1       4.367   0.204  -1.194  0.00  0.00     0.037 A 
HETATM   18  C           1       3.833   1.449  -1.526  0.00  0.00     0.065 A 
HETATM   19  C           1       2.450   1.623  -1.575  0.00  0.00     0.037 A 
HETATM   20  C           1       1.601   0.553  -1.291  0.00  0.00     0.010 A 
BRANCH  18  21
HETATM   21  O           1       4.657   2.488  -1.802  0.00  0.00    -0.361 OA
HETATM   22  H           1       4.106   3.262  -2.009  0.00  0.00     0.217 HD
ENDBRANCH  18  21
ENDBRANCH  14  15
ENDBRANCH   1  14
BRANCH   1  23
HETATM   23  C           1      -1.081  -2.553  -1.204  0.00  0.00     0.197 C 
HETATM   24  O           1      -0.562  -3.673  -1.396  0.00  0.00    -0.646 OA
HETATM   25  O           1      -2.311  -2.398  -1.365  0.00  0.00    -0.646 OA
ENDBRANCH   1  23
TORSDOF 9
