REMARK  9 active torsions:
REMARK  status: ('A' for Active; 'I' for Inactive)
REMARK    1  A    between atoms: Se_2  and  C_14 
REMARK       I    between atoms: C_3  and  N_4 
REMARK    2  A    between atoms: C_3  and  C_5 
REMARK    3  A    between atoms: C_5  and  C_6 
REMARK    4  A    between atoms: C_6  and  C_7 
REMARK    5  A    between atoms: C_6  and  N_10 
REMARK       I    between atoms: N_10  and  C_11 
REMARK    6  A    between atoms: C_11  and  C_12 
REMARK    7  A    between atoms: C_12  and  C_13 
REMARK    8  A    between atoms: C_12  and  N_19 
REMARK    9  A    between atoms: C_13  and  C_14 
ROOT
HETATM    1  N           1       0.751  -0.766   0.649  0.00  0.00    -0.344 N 
HETATM    2  C           1       0.068   0.420   0.649  0.00  0.00     0.249 C 
HETATM    3  H           1       1.763  -0.767   0.649  0.00  0.00     0.163 HD
HETATM    4  O           1      -1.140   0.421   0.648  0.00  0.00    -0.271 OA
ENDROOT
BRANCH   1   5
HETATM    5  C           1       0.025  -2.021   0.648  0.00  0.00     0.194 C 
BRANCH   5   6
HETATM    6  C           1       1.014  -3.179   0.648  0.00  0.00     0.138 C 
BRANCH   6   7
HETATM    7  C           1       0.260  -4.486   0.648  0.00  0.00     0.217 C 
HETATM    8  O           1      -0.948  -4.486   0.648  0.00  0.00    -0.274 OA
HETATM    9  N           1       0.944  -5.672   0.648  0.00  0.00    -0.370 N 
HETATM   10  H           1       1.956  -5.672   0.648  0.00  0.00     0.159 HD
HETATM   11  H           1       0.438  -6.548   0.648  0.00  0.00     0.159 HD
ENDBRANCH   6   7
ENDBRANCH   5   6
BRANCH   5  12
HETATM   12  C           1      -0.843  -2.100   1.880  0.00  0.00     0.197 C 
HETATM   13  O           1      -1.728  -1.239   2.077  0.00  0.00    -0.646 OA
HETATM   14  O           1      -0.677  -3.026   2.703  0.00  0.00    -0.646 OA
ENDBRANCH   5  12
ENDBRANCH   1   5
BRANCH   2  15
HETATM   15  C           1       0.824   1.726   0.650  0.00  0.00     0.274 C 
BRANCH  15  16
HETATM   16  C           1      -0.164   2.885   0.650  0.00  0.00     0.042 C 
BRANCH  16  17
HETATM   17  C           1      -1.040   2.807  -0.594  0.00  0.00     0.003 C 
BRANCH  17  18
HETATM   18 Se           1      -0.810   4.426  -1.654  0.00  0.00     0.000 Se
HETATM   19  C           1      -2.056   3.885  -3.051  0.00  0.00     0.000 C 
ENDBRANCH  17  18
ENDBRANCH  16  17
ENDBRANCH  15  16
BRANCH  15  20
HETATM   20  N           1       1.686   1.805  -0.575  0.00  0.00    -0.067 N 
HETATM   21  H           1       2.210   2.709  -0.575  0.00  0.00     0.275 HD
HETATM   22  H           1       2.364   1.010  -0.575  0.00  0.00     0.275 HD
HETATM   23  H           1       1.085   1.751  -1.428  0.00  0.00     0.275 HD
ENDBRANCH  15  20
ENDBRANCH   2  15
TORSDOF 9
