REMARK  10 active torsions:
REMARK  status: ('A' for Active; 'I' for Inactive)
REMARK    1  A    between atoms: C_1  and  C_22 
REMARK    2  A    between atoms: C_1  and  C_2 
REMARK    3  A    between atoms: C_1  and  N_6 
REMARK    4  A    between atoms: C_2  and  C_3 
REMARK    5  A    between atoms: C_3  and  Se_4 
REMARK    6  A    between atoms: C_10  and  C_12 
REMARK    7  A    between atoms: C_12  and  C_13 
REMARK    8  A    between atoms: C_13  and  C_14 
REMARK    9  A    between atoms: C_14  and  C_18 
REMARK   10  A    between atoms: C_14  and  N_21 
REMARK       I    between atoms: N_21  and  C_22 
ROOT
HETATM    1  O           1       0.136  -0.028   1.330  0.00  0.00    -0.271 OA
HETATM    2  H           1       1.044   1.303  -1.362  0.00  0.00     0.163 HD
HETATM    3  N           1       1.038   0.634  -0.603  0.00  0.00    -0.345 N 
HETATM    4  C           1       0.143   0.771   0.423  0.00  0.00     0.249 C 
ENDROOT
BRANCH   3   5
HETATM    5  C           1       1.979  -0.469  -0.602  0.00  0.00     0.186 C 
BRANCH   5   6
HETATM    6  C           1       2.855  -0.390  -1.845  0.00  0.00     0.046 C 
BRANCH   6   7
HETATM    7  C           1       3.844  -1.548  -1.845  0.00  0.00     0.116 C 
BRANCH   7   8
HETATM    8  C           1       3.090  -2.855  -1.845  0.00  0.00     0.172 C 
HETATM    9  O           1       1.840  -2.855  -1.845  0.00  0.00    -0.648 OA
HETATM   10  O           1       3.715  -3.937  -1.845  0.00  0.00    -0.648 OA
ENDBRANCH   7   8
ENDBRANCH   6   7
ENDBRANCH   5   6
BRANCH   5  11
HETATM   11  C           1       2.846  -0.390   0.631  0.00  0.00     0.196 C 
HETATM   12  O           1       2.324  -0.437   1.766  0.00  0.00    -0.646 OA
HETATM   13  O           1       4.085  -0.277   0.517  0.00  0.00    -0.646 OA
ENDBRANCH   5  11
ENDBRANCH   3   5
BRANCH   4  14
HETATM   14  C           1      -0.836   1.919   0.423  0.00  0.00     0.274 C 
BRANCH  14  15
HETATM   15  C           1      -1.713   1.841   1.665  0.00  0.00     0.042 C 
BRANCH  15  16
HETATM   16  C           1      -2.477   0.524   1.666  0.00  0.00     0.003 C 
BRANCH  16  17
HETATM   17 Se           1      -4.393   0.883   1.665  0.00  0.00     0.000 Se
HETATM   18  C           1      -4.911  -0.996   1.666  0.00  0.00     0.000 C 
ENDBRANCH  16  17
ENDBRANCH  15  16
ENDBRANCH  14  15
BRANCH  14  19
HETATM   19  N           1      -1.698   1.840  -0.802  0.00  0.00    -0.067 N 
HETATM   20  H           1      -2.376   2.635  -0.804  0.00  0.00     0.275 HD
HETATM   21  H           1      -1.097   1.894  -1.655  0.00  0.00     0.275 HD
HETATM   22  H           1      -2.222   0.935  -0.801  0.00  0.00     0.275 HD
ENDBRANCH  14  19
ENDBRANCH   4  14
TORSDOF 10
