REMARK  4 active torsions:
REMARK  status: ('A' for Active; 'I' for Inactive)
REMARK    1  A    between atoms: C_8  and  C_10 
REMARK    2  A    between atoms: C_10  and  C_11 
REMARK    3  A    between atoms: C_10  and  N_14 
REMARK       I    between atoms: N_14  and  C_15 
REMARK    4  A    between atoms: C_15  and  C_18 
ROOT
HETATM    1  H           1       0.466   0.996  -1.414  0.00  0.00     0.163 HD
HETATM    2  O           1       0.717  -1.514   0.451  0.00  0.00    -0.271 OA
HETATM    3  N           1       0.322   0.045  -1.098  0.00  0.00    -0.344 N 
HETATM    4  C           1       0.889  -0.379   0.074  0.00  0.00     0.249 C 
ENDROOT
BRANCH   4   5
HETATM    5  C           1       1.728   0.570   0.894  0.00  0.00     0.274 C 
HETATM    6  N           1       0.894   1.748   1.302  0.00  0.00    -0.067 N 
HETATM    7  H           1       1.474   2.406   1.870  0.00  0.00     0.275 HD
HETATM    8  H           1       0.546   2.240   0.447  0.00  0.00     0.275 HD
HETATM    9  H           1       0.081   1.420   1.871  0.00  0.00     0.275 HD
HETATM   10 Se           1      -0.032   0.908   3.499  0.00  0.00     0.000 Se
HETATM   11  C           1       1.051  -0.624   2.970  0.00  0.00     0.003 C 
HETATM   12  C           1      -1.342  -0.150   4.480  0.00  0.00     0.000 C 
HETATM   13  C           1       2.235  -0.146   2.139  0.00  0.00     0.042 C 
ENDBRANCH   4   5
BRANCH   3  14
HETATM   14  C           1      -0.484  -0.866  -1.886  0.00  0.00     0.189 C 
BRANCH  14  15
HETATM   15  C           1      -0.991  -0.149  -3.130  0.00  0.00     0.010 C 
HETATM   16  C           1      -2.514  -0.149  -3.130  0.00  0.00     0.012 C 
HETATM   17  C           1      -0.482   1.286  -3.130  0.00  0.00     0.012 C 
ENDBRANCH  14  15
BRANCH  14  18
HETATM   18  C           1       0.355  -2.053  -2.295  0.00  0.00     0.197 C 
HETATM   19  O           1       0.871  -2.784  -1.422  0.00  0.00    -0.646 OA
HETATM   20  O           1       0.533  -2.304  -3.506  0.00  0.00    -0.646 OA
ENDBRANCH  14  18
ENDBRANCH   3  14
TORSDOF 4
