REMARK  12 active torsions:
REMARK  status: ('A' for Active; 'I' for Inactive)
REMARK    1  A    between atoms: C_1  and  C_2 
REMARK    2  A    between atoms: C_1  and  C_20 
REMARK    3  A    between atoms: C_1  and  N_17 
REMARK    4  A    between atoms: C_2  and  C_3 
REMARK    5  A    between atoms: C_3  and  C_4 
REMARK    6  A    between atoms: C_4  and  C_5 
REMARK    7  A    between atoms: C_5  and  N_21 
REMARK    8  A    between atoms: N_10  and  C_15 
REMARK    9  A    between atoms: Se_12  and  C_13 
REMARK   10  A    between atoms: C_13  and  C_14 
REMARK   11  A    between atoms: C_14  and  C_15 
REMARK   12  A    between atoms: C_15  and  C_16 
REMARK       I    between atoms: C_16  and  N_17 
ROOT
HETATM    1  O           1      -0.359   1.998  -0.229  0.00  0.00    -0.271 OA
HETATM    2  C           1      -0.963   0.952  -0.229  0.00  0.00     0.249 C 
HETATM    3  N           1      -0.279  -0.234  -0.229  0.00  0.00    -0.345 N 
HETATM    4  H           1      -0.785  -1.110  -0.229  0.00  0.00     0.163 HD
ENDROOT
BRANCH   3   5
HETATM    5  C           1       1.171  -0.234  -0.229  0.00  0.00     0.185 C 
BRANCH   5   6
HETATM    6  C           1       1.678  -1.670  -0.229  0.00  0.00     0.036 C 
BRANCH   6   7
HETATM    7  C           1       3.201  -1.671  -0.230  0.00  0.00     0.004 C 
BRANCH   7   8
HETATM    8  C           1       3.708  -2.390  -1.473  0.00  0.00     0.027 C 
BRANCH   8   9
HETATM    9  C           1       3.200  -3.826  -1.473  0.00  0.00     0.229 C 
BRANCH   9  10
HETATM   10  N           1       1.700  -3.826  -1.473  0.00  0.00    -0.079 N 
HETATM   11  H           1       1.352  -3.333  -2.326  0.00  0.00     0.274 HD
HETATM   12  H           1       1.352  -3.334  -0.619  0.00  0.00     0.274 HD
HETATM   13  H           1       1.351  -4.811  -1.473  0.00  0.00     0.274 HD
ENDBRANCH   9  10
ENDBRANCH   8   9
ENDBRANCH   7   8
ENDBRANCH   6   7
ENDBRANCH   5   6
BRANCH   5  14
HETATM   14  C           1       1.674   0.478  -1.461  0.00  0.00     0.196 C 
HETATM   15  O           1       2.391  -0.130  -2.285  0.00  0.00    -0.646 OA
HETATM   16  O           1       1.372   1.674  -1.659  0.00  0.00    -0.646 OA
ENDBRANCH   5  14
ENDBRANCH   3   5
BRANCH   2  17
HETATM   17  C           1      -2.472   0.952  -0.229  0.00  0.00     0.274 C 
BRANCH  17  18
HETATM   18  N           1      -2.971   0.246   0.996  0.00  0.00    -0.067 N 
HETATM   19  H           1      -4.016   0.245   0.997  0.00  0.00     0.275 HD
HETATM   20  H           1      -2.623  -0.740   0.996  0.00  0.00     0.275 HD
HETATM   21  H           1      -2.623   0.739   1.849  0.00  0.00     0.275 HD
ENDBRANCH  17  18
BRANCH  17  22
HETATM   22  C           1      -2.981   2.388  -0.230  0.00  0.00     0.042 C 
BRANCH  22  23
HETATM   23  C           1      -2.474   3.107   1.014  0.00  0.00     0.003 C 
BRANCH  23  24
HETATM   24 Se           1      -3.990   3.719   2.075  0.00  0.00     0.000 Se
HETATM   25  C           1      -2.896   4.527   3.471  0.00  0.00     0.000 C 
ENDBRANCH  23  24
ENDBRANCH  22  23
ENDBRANCH  17  22
ENDBRANCH   2  17
TORSDOF 12
