REMARK  5 active torsions:
REMARK  status: ('A' for Active; 'I' for Inactive)
REMARK    1  A    between atoms: C_2  and  C_3 
REMARK       I    between atoms: C_3  and  N_4 
REMARK    2  A    between atoms: N_4  and  C_20 
REMARK    3  A    between atoms: C_18  and  O_19 
REMARK    4  A    between atoms: C_18  and  C_20 
REMARK    5  A    between atoms: C_20  and  C_21 
ROOT
HETATM    1  C           1       0.846  -0.265  -0.110  0.00  0.00     0.249 C 
HETATM    2  N           1       0.280   0.160  -1.282  0.00  0.00    -0.343 N 
HETATM    3  H           1       0.424   1.111  -1.598  0.00  0.00     0.163 HD
HETATM    4  O           1       0.674  -1.400   0.267  0.00  0.00    -0.271 OA
ENDROOT
BRANCH   1   5
HETATM    5  C           1       1.685   0.684   0.710  0.00  0.00     0.274 C 
HETATM    6  C           1       2.192  -0.032   1.955  0.00  0.00     0.042 C 
HETATM    7  C           1       1.008  -0.509   2.785  0.00  0.00     0.003 C 
HETATM    8 Se           1      -0.075   1.023   3.314  0.00  0.00     0.000 Se
HETATM    9  C           1      -1.385  -0.035   4.295  0.00  0.00     0.000 C 
HETATM   10  H           1       0.039   1.535   1.687  0.00  0.00     0.275 HD
HETATM   11  N           1       0.851   1.863   1.117  0.00  0.00    -0.067 N 
HETATM   12  H           1       1.431   2.521   1.685  0.00  0.00     0.275 HD
HETATM   13  H           1       0.503   2.355   0.263  0.00  0.00     0.275 HD
ENDBRANCH   1   5
BRANCH   2  14
HETATM   14  C           1      -0.526  -0.752  -2.070  0.00  0.00     0.214 C 
BRANCH  14  15
HETATM   15  C           1      -1.033  -0.035  -3.314  0.00  0.00     0.147 C 
HETATM   16  C           1      -2.556  -0.035  -3.314  0.00  0.00     0.042 C 
BRANCH  15  17
HETATM   17  O           1      -0.565   1.287  -3.314  0.00  0.00    -0.393 OA
HETATM   18  H           1       0.376   1.244  -3.314  0.00  0.00     0.210 HD
ENDBRANCH  15  17
ENDBRANCH  14  15
BRANCH  14  19
HETATM   19  C           1       0.312  -1.938  -2.479  0.00  0.00     0.199 C 
HETATM   20  O           1       0.490  -2.190  -3.690  0.00  0.00    -0.646 OA
HETATM   21  O           1       0.828  -2.669  -1.606  0.00  0.00    -0.646 OA
ENDBRANCH  14  19
ENDBRANCH   2  14
TORSDOF 5
