REMARK  10 active torsions:
REMARK  status: ('A' for Active; 'I' for Inactive)
REMARK    1  A    between atoms: C_4  and  C_23 
REMARK    2  A    between atoms: N_11  and  C_14 
REMARK    3  A    between atoms: Se_12  and  C_13 
REMARK    4  A    between atoms: C_13  and  C_14 
REMARK    5  A    between atoms: C_14  and  C_15 
REMARK       I    between atoms: C_15  and  N_16 
REMARK    6  A    between atoms: N_16  and  C_23 
REMARK    7  A    between atoms: O_18  and  P_20 
REMARK    8  A    between atoms: P_20  and  O_21 
REMARK    9  A    between atoms: O_21  and  C_22 
REMARK   10  A    between atoms: C_22  and  C_23 
ROOT
HETATM    1  H           1       0.551  -2.039  -0.221  0.00  0.00     0.163 HD
HETATM    2  O           1       1.325   0.735   1.023  0.00  0.00    -0.271 OA
HETATM    3  C           1       1.329  -0.175   0.228  0.00  0.00     0.249 C 
HETATM    4  N           1       0.547  -1.278   0.446  0.00  0.00    -0.343 N 
ENDROOT
BRANCH   4   5
HETATM    5  C           1      -0.285  -1.354   1.630  0.00  0.00     0.210 C 
BRANCH   5   6
HETATM    6  C           1      -1.040  -2.661   1.630  0.00  0.00     0.198 C 
HETATM    7  O           1      -0.415  -3.743   1.630  0.00  0.00    -0.646 OA
HETATM    8  O           1      -2.290  -2.661   1.630  0.00  0.00    -0.646 OA
ENDBRANCH   5   6
BRANCH   5   9
HETATM    9  C           1      -1.274  -0.196   1.630  0.00  0.00     0.217 C 
BRANCH   9  10
HETATM   10  O           1      -2.081  -0.269   0.486  0.00  0.00    -0.287 OA
BRANCH  10  11
HETATM   11  P           1      -3.192   0.891   0.327  0.00  0.00     0.406 P 
HETATM   12  O           1      -4.115   0.851   1.484  0.00  0.00    -0.624 OA
HETATM   13  O           1      -2.525   2.211   0.275  0.00  0.00    -0.624 OA
BRANCH  11  14
HETATM   14  O           1      -4.025   0.656  -1.036  0.00  0.00    -0.300 OA
HETATM   15  H           1      -4.649   1.361  -1.066  0.00  0.00     0.223 HD
ENDBRANCH  11  14
ENDBRANCH  10  11
ENDBRANCH   9  10
ENDBRANCH   5   9
ENDBRANCH   4   5
BRANCH   3  16
HETATM   16  C           1       2.195  -0.095  -1.005  0.00  0.00     0.274 C 
BRANCH  16  17
HETATM   17  N           1       1.331  -0.174  -2.228  0.00  0.00    -0.067 N 
HETATM   18  H           1       0.653   0.621  -2.227  0.00  0.00     0.275 HD
HETATM   19  H           1       0.809  -1.079  -2.228  0.00  0.00     0.275 HD
HETATM   20  H           1       1.931  -0.119  -3.082  0.00  0.00     0.275 HD
ENDBRANCH  16  17
BRANCH  16  21
HETATM   21  C           1       2.958   1.223  -1.006  0.00  0.00     0.045 C 
BRANCH  21  22
HETATM   22 Se           1       1.693   2.706  -1.005  0.00  0.00     0.000 Se
HETATM   23  H           1       2.734   3.746  -1.007  0.00  0.00     0.000 HD
ENDBRANCH  21  22
ENDBRANCH  16  21
ENDBRANCH   3  16
TORSDOF 10
