REMARK  9 active torsions:
REMARK  status: ('A' for Active; 'I' for Inactive)
REMARK    1  A    between atoms: C_1  and  C_2 
REMARK    2  A    between atoms: C_1  and  C_8 
REMARK    3  A    between atoms: C_1  and  N_14 
REMARK       I    between atoms: C_2  and  N_3 
REMARK    4  A    between atoms: N_3  and  C_21 
REMARK    5  A    between atoms: Se_6  and  C_7 
REMARK    6  A    between atoms: C_7  and  C_8 
REMARK    7  A    between atoms: C_10  and  C_21 
REMARK    8  A    between atoms: C_18  and  C_20 
REMARK    9  A    between atoms: C_20  and  C_21 
ROOT
HETATM    1  C           1       0.146   0.035   0.690  0.00  0.00     0.249 C 
HETATM    2  N           1       0.829  -1.151   0.689  0.00  0.00    -0.344 N 
HETATM    3  O           1      -1.062   0.036   0.689  0.00  0.00    -0.271 OA
HETATM    4  H           1       1.841  -1.152   0.690  0.00  0.00     0.163 HD
ENDROOT
BRANCH   1   5
HETATM    5  C           1       0.902   1.341   0.690  0.00  0.00     0.274 C 
BRANCH   5   6
HETATM    6  C           1      -0.086   2.500   0.690  0.00  0.00     0.042 C 
BRANCH   6   7
HETATM    7  C           1      -0.962   2.422  -0.553  0.00  0.00     0.003 C 
BRANCH   7   8
HETATM    8 Se           1      -0.732   4.041  -1.614  0.00  0.00     0.000 Se
HETATM    9  C           1      -1.978   3.500  -3.011  0.00  0.00     0.000 C 
ENDBRANCH   7   8
ENDBRANCH   6   7
ENDBRANCH   5   6
BRANCH   5  10
HETATM   10  N           1       1.764   1.420  -0.535  0.00  0.00    -0.067 N 
HETATM   11  H           1       2.288   2.324  -0.535  0.00  0.00     0.275 HD
HETATM   12  H           1       2.442   0.625  -0.534  0.00  0.00     0.275 HD
HETATM   13  H           1       1.163   1.366  -1.388  0.00  0.00     0.275 HD
ENDBRANCH   5  10
ENDBRANCH   1   5
BRANCH   2  14
HETATM   14  C           1       0.103  -2.406   0.689  0.00  0.00     0.195 C 
BRANCH  14  15
HETATM   15  C           1      -0.765  -2.485   1.920  0.00  0.00     0.197 C 
HETATM   16  O           1      -0.599  -3.411   2.744  0.00  0.00    -0.646 OA
HETATM   17  O           1      -1.650  -1.624   2.118  0.00  0.00    -0.646 OA
ENDBRANCH  14  15
BRANCH  14  18
HETATM   18  C           1       1.092  -3.564   0.689  0.00  0.00     0.149 C 
BRANCH  18  19
HETATM   19  C           1       0.338  -4.871   0.689  0.00  0.00     0.175 C 
HETATM   20  O           1      -0.912  -4.871   0.689  0.00  0.00    -0.648 OA
HETATM   21  O           1       0.963  -5.954   0.689  0.00  0.00    -0.648 OA
ENDBRANCH  18  19
ENDBRANCH  14  18
ENDBRANCH   2  14
TORSDOF 9
