REMARK  9 active torsions:
REMARK  status: ('A' for Active; 'I' for Inactive)
REMARK    1  A    between atoms: C_4  and  C_25 
REMARK    2  A    between atoms: C_4  and  C_5 
REMARK    3  A    between atoms: C_5  and  Se_6 
REMARK    4  A    between atoms: N_8  and  C_25 
REMARK    5  A    between atoms: C_12  and  C_13 
REMARK    6  A    between atoms: C_12  and  C_17 
REMARK    7  A    between atoms: C_13  and  C_15 
REMARK    8  A    between atoms: C_13  and  N_23 
REMARK       I    between atoms: N_23  and  C_24 
REMARK    9  A    between atoms: C_24  and  C_25 
ROOT
HETATM    1  O           1       2.040   0.186   0.714  0.00  0.00    -0.271 OA
HETATM    2  H           1       1.892   2.900  -0.072  0.00  0.00     0.163 HD
HETATM    3  N           1       1.368   2.063  -0.292  0.00  0.00    -0.344 N 
HETATM    4  C           1       1.227   1.077   0.647  0.00  0.00     0.249 C 
ENDROOT
BRANCH   3   5
HETATM    5  C           1       0.766   1.908  -1.602  0.00  0.00     0.191 C 
BRANCH   5   6
HETATM    6  C           1      -0.742   1.754  -1.452  0.00  0.00     0.094 C 
BRANCH   6   7
HETATM    7  C           1      -1.085   0.304  -1.307  0.00  0.00     0.028 A 
HETATM    8  C           1      -0.168  -0.719  -1.311  0.00  0.00     0.114 A 
HETATM    9  N           1      -0.908  -1.859  -1.155  0.00  0.00    -0.360 N 
HETATM   10  H           1      -0.536  -2.840  -1.113  0.00  0.00     0.166 HD
HETATM   11  C           1      -2.219  -1.487  -1.064  0.00  0.00     0.180 A 
HETATM   12  N           1      -2.356  -0.184  -1.153  0.00  0.00    -0.354 N 
ATOM     13  HN          1      -3.224   0.351  -1.115  1.00  0.00     0.166 HD
ENDBRANCH   6   7
ENDBRANCH   5   6
BRANCH   5  14
HETATM   14  C           1       1.067   3.126  -2.440  0.00  0.00     0.197 C 
HETATM   15  O           1       0.131   3.824  -2.888  0.00  0.00    -0.646 OA
HETATM   16  O           1       2.252   3.436  -2.688  0.00  0.00    -0.646 OA
ENDBRANCH   5  14
ENDBRANCH   3   5
BRANCH   4  17
HETATM   17  C           1       0.057   1.104   1.600  0.00  0.00     0.274 C 
BRANCH  17  18
HETATM   18  C           1       0.135  -0.096   2.535  0.00  0.00     0.042 C 
BRANCH  18  19
HETATM   19  C           1       0.095  -1.381   1.718  0.00  0.00     0.003 C 
BRANCH  19  20
HETATM   20 Se           1       1.724  -2.404   2.034  0.00  0.00     0.000 Se
HETATM   21  C           1       1.231  -3.866   0.843  0.00  0.00     0.000 C 
ENDBRANCH  19  20
ENDBRANCH  18  19
ENDBRANCH  17  18
BRANCH  17  22
HETATM   22  N           1      -1.223   1.046   0.820  0.00  0.00    -0.067 N 
HETATM   23  H           1      -1.250   0.165   0.259  0.00  0.00     0.275 HD
HETATM   24  H           1      -1.277   1.869   0.179  0.00  0.00     0.275 HD
HETATM   25  H           1      -2.034   1.064   1.479  0.00  0.00     0.275 HD
ENDBRANCH  17  22
ENDBRANCH   4  17
TORSDOF 9
