REMARK  8 active torsions:
REMARK  status: ('A' for Active; 'I' for Inactive)
REMARK    1  A    between atoms: C_2  and  C_4 
REMARK    2  A    between atoms: C_4  and  C_5 
REMARK    3  A    between atoms: C_4  and  N_12 
REMARK    4  A    between atoms: C_5  and  C_18 
REMARK    5  A    between atoms: N_7  and  C_10 
REMARK    6  A    between atoms: Se_8  and  C_9 
REMARK    7  A    between atoms: C_9  and  C_10 
REMARK    8  A    between atoms: C_10  and  C_11 
REMARK       I    between atoms: C_11  and  N_12 
ROOT
HETATM    1  O           1       1.968  -0.891   1.427  0.00  0.00    -0.271 OA
HETATM    2  C           1       1.595   0.199   1.062  0.00  0.00     0.249 C 
HETATM    3  N           1       2.228   0.826   0.023  0.00  0.00    -0.344 N 
HETATM    4  H           1       3.015   1.436   0.204  0.00  0.00     0.163 HD
ENDROOT
BRANCH   3   5
HETATM    5  C           1       1.770   0.617  -1.337  0.00  0.00     0.189 C 
BRANCH   5   6
HETATM    6  C           1       2.630   1.416  -2.285  0.00  0.00     0.197 C 
HETATM    7  O           1       3.861   1.203  -2.344  0.00  0.00    -0.646 OA
HETATM    8  O           1       2.113   2.292  -3.011  0.00  0.00    -0.646 OA
ENDBRANCH   5   6
BRANCH   5   9
HETATM    9  C           1       0.322   1.070  -1.460  0.00  0.00     0.074 C 
BRANCH   9  10
HETATM   10  C           1      -0.589  -0.078  -1.155  0.00  0.00    -0.056 A 
HETATM   11  C           1      -1.972   0.096  -1.204  0.00  0.00     0.007 A 
HETATM   12  C           1      -2.820  -0.974  -0.920  0.00  0.00     0.001 A 
HETATM   13  C           1      -2.286  -2.219  -0.587  0.00  0.00     0.000 A 
HETATM   14  C           1      -0.903  -2.393  -0.539  0.00  0.00     0.001 A 
HETATM   15  C           1      -0.054  -1.323  -0.823  0.00  0.00     0.007 A 
ENDBRANCH   9  10
ENDBRANCH   5   9
ENDBRANCH   3   5
BRANCH   2  16
HETATM   16  C           1       0.432   0.868   1.753  0.00  0.00     0.274 C 
BRANCH  16  17
HETATM   17  N           1      -0.663   1.116   0.758  0.00  0.00    -0.067 N 
HETATM   18  H           1      -1.469   1.580   1.235  0.00  0.00     0.275 HD
HETATM   19  H           1      -0.307   1.736  -0.004  0.00  0.00     0.275 HD
HETATM   20  H           1      -0.976   0.206   0.351  0.00  0.00     0.275 HD
ENDBRANCH  16  17
BRANCH  16  21
HETATM   21  C           1      -0.087  -0.034   2.864  0.00  0.00     0.045 C 
BRANCH  21  22
HETATM   22 Se           1      -0.673  -1.731   2.105  0.00  0.00     0.000 Se
HETATM   23  H           1      -1.082  -2.301   3.399  0.00  0.00     0.000 HD
ENDBRANCH  21  22
ENDBRANCH  16  21
ENDBRANCH   2  16
TORSDOF 8
