REMARK  9 active torsions:
REMARK  status: ('A' for Active; 'I' for Inactive)
REMARK    1  A    between atoms: C_1  and  C_25 
REMARK    2  A    between atoms: C_1  and  C_2 
REMARK    3  A    between atoms: C_1  and  N_6 
REMARK    4  A    between atoms: C_2  and  C_3 
REMARK    5  A    between atoms: C_3  and  Se_4 
REMARK    6  A    between atoms: C_11  and  C_13 
REMARK    7  A    between atoms: C_13  and  C_14 
REMARK    8  A    between atoms: C_13  and  N_24 
REMARK    9  A    between atoms: C_14  and  C_15 
REMARK       I    between atoms: N_24  and  C_25 
ROOT
HETATM    1  C           1      -2.328   0.399   1.757  0.00  0.00     0.190 C 
ENDROOT
BRANCH   1   2
HETATM    2  C           1      -3.353   1.068   2.639  0.00  0.00     0.197 C 
HETATM    3  O           1      -4.274   0.394   3.150  0.00  0.00    -0.646 OA
HETATM    4  O           1      -3.282   2.297   2.860  0.00  0.00    -0.646 OA
ENDBRANCH   1   2
BRANCH   1   5
HETATM    5  C           1      -1.325   1.436   1.267  0.00  0.00     0.077 C 
BRANCH   5   6
HETATM    6  C           1       0.004   0.782   1.052  0.00  0.00    -0.028 A 
HETATM    7  C           1       0.298  -0.547   1.258  0.00  0.00     0.096 A 
HETATM    8  N           1       1.618  -0.737   0.946  0.00  0.00    -0.365 N 
HETATM    9  H           1       2.123  -1.655   1.008  0.00  0.00     0.165 HD
HETATM   10  C           1       2.187   0.449   0.540  0.00  0.00     0.042 A 
HETATM   11  C           1       3.495   0.731   0.130  0.00  0.00     0.030 A 
HETATM   12  C           1       1.190   1.423   0.598  0.00  0.00    -0.002 A 
HETATM   13  C           1       3.790   2.049  -0.231  0.00  0.00     0.002 A 
HETATM   14  C           1       2.814   3.043  -0.184  0.00  0.00     0.001 A 
HETATM   15  C           1       1.510   2.744   0.229  0.00  0.00     0.014 A 
ENDBRANCH   5   6
ENDBRANCH   1   5
BRANCH   1  16
HETATM   16  N           1      -2.992  -0.206   0.619  0.00  0.00    -0.344 N 
HETATM   17  H           1      -3.997  -0.134   0.522  0.00  0.00     0.163 HD
HETATM   18  C           1      -2.260  -0.874  -0.325  0.00  0.00     0.249 C 
HETATM   19  O           1      -2.052  -2.058  -0.202  0.00  0.00    -0.271 OA
BRANCH  18  20
HETATM   20  C           1      -1.712  -0.132  -1.520  0.00  0.00     0.274 C 
BRANCH  20  21
HETATM   21  C           1      -0.942  -1.099  -2.409  0.00  0.00     0.042 C 
BRANCH  21  22
HETATM   22  C           1       0.209  -1.709  -1.620  0.00  0.00     0.003 C 
BRANCH  22  23
HETATM   23 Se           1      -0.002  -3.645  -1.553  0.00  0.00     0.000 Se
HETATM   24  C           1       1.612  -3.949  -0.503  0.00  0.00     0.000 C 
ENDBRANCH  22  23
ENDBRANCH  21  22
ENDBRANCH  20  21
BRANCH  20  25
HETATM   25  N           1      -0.793   0.957  -1.052  0.00  0.00    -0.067 N 
HETATM   26  H           1      -0.413   1.472  -1.879  0.00  0.00     0.275 HD
HETATM   27  H           1      -1.322   1.621  -0.442  0.00  0.00     0.275 HD
HETATM   28  H           1      -0.004   0.538  -0.510  0.00  0.00     0.275 HD
ENDBRANCH  20  25
ENDBRANCH  18  20
ENDBRANCH   1  16
TORSDOF 9
