REMARK  7 active torsions:
REMARK  status: ('A' for Active; 'I' for Inactive)
REMARK    1  A    between atoms: N_1  and  C_6 
REMARK    2  A    between atoms: C_3  and  C_16 
REMARK    3  A    between atoms: C_3  and  N_4 
REMARK       I    between atoms: N_4  and  C_5 
REMARK    4  A    between atoms: C_5  and  C_6 
REMARK    5  A    between atoms: C_6  and  C_7 
REMARK    6  A    between atoms: C_7  and  C_8 
REMARK    7  A    between atoms: C_8  and  Se_9 
ROOT
HETATM    1  C           1      -0.940   0.449  -0.958  0.00  0.00     0.274 C 
ENDROOT
BRANCH   1   2
HETATM    2  N           1      -1.802   0.369   0.267  0.00  0.00    -0.067 N 
HETATM    3  H           1      -2.481   1.164   0.268  0.00  0.00     0.275 HD
HETATM    4  H           1      -2.325  -0.535   0.267  0.00  0.00     0.275 HD
HETATM    5  H           1      -1.200   0.425   1.120  0.00  0.00     0.275 HD
ENDBRANCH   1   2
BRANCH   1   6
HETATM    6  C           1       0.040  -0.699  -0.958  0.00  0.00     0.248 C 
HETATM    7  O           1       1.228  -0.479  -0.958  0.00  0.00    -0.271 OA
HETATM    8  N           1      -0.417  -1.989  -0.958  0.00  0.00    -0.349 N 
HETATM    9  H           1      -1.412  -2.174  -0.958  0.00  0.00     0.163 HD
BRANCH   8  10
HETATM   10  C           1       0.524  -3.092  -0.958  0.00  0.00     0.235 C 
BRANCH  10  11
HETATM   11  C           1      -0.230  -4.399  -0.958  0.00  0.00     0.191 C 
HETATM   12  O           1       0.395  -5.481  -0.958  0.00  0.00    -0.647 OA
HETATM   13  O           1      -1.480  -4.399  -0.958  0.00  0.00    -0.647 OA
ENDBRANCH  10  11
ENDBRANCH   8  10
ENDBRANCH   1   6
BRANCH   1  14
HETATM   14  C           1      -0.179   1.767  -0.958  0.00  0.00     0.042 C 
BRANCH  14  15
HETATM   15  C           1       0.697   1.849   0.285  0.00  0.00     0.003 C 
BRANCH  15  16
HETATM   16 Se           1       0.178   3.399   1.346  0.00  0.00     0.000 Se
HETATM   17  C           1       1.503   3.092   2.742  0.00  0.00     0.000 C 
ENDBRANCH  15  16
ENDBRANCH  14  15
ENDBRANCH   1  14
TORSDOF 7
