REMARK  7 active torsions:
REMARK  status: ('A' for Active; 'I' for Inactive)
REMARK    1  A    between atoms: C_1  and  C_8 
REMARK    2  A    between atoms: C_1  and  O_2 
REMARK    3  A    between atoms: O_2  and  P_3 
REMARK    4  A    between atoms: P_3  and  O_10 
REMARK    5  A    between atoms: C_6  and  C_8 
REMARK    6  A    between atoms: C_8  and  N_23 
REMARK    7  A    between atoms: C_21  and  C_22 
REMARK       I    between atoms: C_22  and  N_23 
ROOT
HETATM    1  O           1       1.299   0.155   1.341  0.00  0.00    -0.271 OA
HETATM    2  C           1       1.303  -0.754   0.546  0.00  0.00     0.249 C 
HETATM    3  N           1       0.522  -1.857   0.763  0.00  0.00    -0.343 N 
HETATM    4  H           1       0.525  -2.619   0.097  0.00  0.00     0.163 HD
ENDROOT
BRANCH   3   5
HETATM    5  C           1      -0.311  -1.934   1.948  0.00  0.00     0.210 C 
BRANCH   5   6
HETATM    6  C           1      -1.300  -0.776   1.948  0.00  0.00     0.217 C 
BRANCH   6   7
HETATM    7  O           1      -2.107  -0.849   0.803  0.00  0.00    -0.287 OA
BRANCH   7   8
HETATM    8  P           1      -3.218   0.312   0.645  0.00  0.00     0.406 P 
HETATM    9  O           1      -2.550   1.632   0.592  0.00  0.00    -0.624 OA
HETATM   10  O           1      -4.141   0.272   1.801  0.00  0.00    -0.624 OA
BRANCH   8  11
HETATM   11  O           1      -4.051   0.076  -0.719  0.00  0.00    -0.300 OA
HETATM   12  H           1      -4.675   0.781  -0.748  0.00  0.00     0.223 HD
ENDBRANCH   8  11
ENDBRANCH   7   8
ENDBRANCH   6   7
ENDBRANCH   5   6
BRANCH   5  13
HETATM   13  C           1      -1.065  -3.241   1.948  0.00  0.00     0.198 C 
HETATM   14  O           1      -2.315  -3.241   1.948  0.00  0.00    -0.646 OA
HETATM   15  O           1      -0.440  -4.323   1.948  0.00  0.00    -0.646 OA
ENDBRANCH   5  13
ENDBRANCH   3   5
BRANCH   2  16
HETATM   16  C           1       2.170  -0.675  -0.687  0.00  0.00     0.274 C 
HETATM   17  N           1       1.306  -0.753  -1.911  0.00  0.00    -0.067 N 
HETATM   18  H           1       1.905  -0.698  -2.765  0.00  0.00     0.275 HD
HETATM   19  H           1       0.783  -1.658  -1.910  0.00  0.00     0.275 HD
HETATM   20  H           1       0.627   0.042  -1.909  0.00  0.00     0.275 HD
HETATM   21 Se           1       0.821   1.700  -2.278  0.00  0.00     0.000 Se
HETATM   22  C           1      -0.214   3.295  -1.849  0.00  0.00     0.000 C 
HETATM   23  C           1       1.943   1.802  -0.688  0.00  0.00     0.003 C 
HETATM   24  C           1       2.932   0.644  -0.688  0.00  0.00     0.042 C 
ENDBRANCH   2  16
TORSDOF 7
