REMARK  5 active torsions:
REMARK  status: ('A' for Active; 'I' for Inactive)
REMARK       I    between atoms: N_1  and  C_2 
REMARK    1  A    between atoms: C_2  and  C_3 
REMARK    2  A    between atoms: C_3  and  C_4 
REMARK    3  A    between atoms: C_3  and  N_6 
REMARK    4  A    between atoms: C_4  and  Se_5 
REMARK    5  A    between atoms: C_16  and  C_18 
ROOT
HETATM    1  N           1      -0.551  -0.175   0.383  0.00  0.00    -0.336 N 
HETATM    2  C           1       0.356   0.848   0.455  0.00  0.00     0.251 C 
HETATM    3  O           1       0.001   1.946   0.810  0.00  0.00    -0.271 OA
HETATM    4  C           1      -0.303  -1.556  -0.022  0.00  0.00     0.127 C 
HETATM    5  C           1      -1.515  -1.911  -0.865  0.00  0.00     0.022 C 
HETATM    6  C           1      -2.615  -0.964  -0.399  0.00  0.00     0.038 C 
HETATM    7  C           1      -1.977  -0.123   0.693  0.00  0.00     0.188 C 
ENDROOT
BRANCH   2   8
HETATM    8  C           1       1.800   0.603   0.092  0.00  0.00     0.275 C 
BRANCH   8   9
HETATM    9  C           1       2.592   1.893   0.257  0.00  0.00     0.045 C 
BRANCH   9  10
HETATM   10 Se           1       1.852   3.264  -0.914  0.00  0.00     0.000 Se
HETATM   11  H           1       2.815   4.299  -0.503  0.00  0.00     0.000 HD
ENDBRANCH   9  10
ENDBRANCH   8   9
BRANCH   8  12
HETATM   12  N           1       1.886   0.143  -1.333  0.00  0.00    -0.067 N 
HETATM   13  H           1       2.886  -0.027  -1.586  0.00  0.00     0.275 HD
HETATM   14  H           1       1.343  -0.743  -1.446  0.00  0.00     0.275 HD
HETATM   15  H           1       1.488   0.878  -1.961  0.00  0.00     0.275 HD
ENDBRANCH   8  12
ENDBRANCH   2   8
BRANCH   7  16
HETATM   16  C           1      -2.252  -0.711   2.055  0.00  0.00     0.196 C 
HETATM   17  O           1      -3.422  -0.753   2.493  0.00  0.00    -0.646 OA
HETATM   18  O           1      -1.310  -1.157   2.745  0.00  0.00    -0.646 OA
ENDBRANCH   7  16
TORSDOF 5
