REMARK  8 active torsions:
REMARK  status: ('A' for Active; 'I' for Inactive)
REMARK    1  A    between atoms: C_2  and  C_4 
REMARK    2  A    between atoms: C_4  and  C_23 
REMARK    3  A    between atoms: C_4  and  N_16 
REMARK       I    between atoms: N_16  and  C_17 
REMARK    4  A    between atoms: C_17  and  C_18 
REMARK    5  A    between atoms: C_18  and  C_19 
REMARK    6  A    between atoms: C_18  and  N_21 
REMARK    7  A    between atoms: C_19  and  Se_20 
REMARK    8  A    between atoms: C_23  and  C_24 
ROOT
HETATM    1  C           1       0.941   1.300  -1.442  0.00  0.00     0.191 C 
ENDROOT
BRANCH   1   2
HETATM    2  C           1       1.242   2.518  -2.281  0.00  0.00     0.197 C 
HETATM    3  O           1       2.428   2.829  -2.528  0.00  0.00    -0.646 OA
HETATM    4  O           1       0.307   3.216  -2.728  0.00  0.00    -0.646 OA
ENDBRANCH   1   2
BRANCH   1   5
HETATM    5  C           1      -0.567   1.147  -1.292  0.00  0.00     0.094 C 
BRANCH   5   6
HETATM    6  C           1      -0.909  -0.303  -1.147  0.00  0.00     0.028 A 
HETATM    7  C           1       0.008  -1.327  -1.152  0.00  0.00     0.114 A 
HETATM    8  N           1      -0.732  -2.466  -0.995  0.00  0.00    -0.360 N 
HETATM    9  H           1      -0.361  -3.447  -0.953  0.00  0.00     0.166 HD
HETATM   10  C           1      -2.043  -2.095  -0.904  0.00  0.00     0.180 A 
HETATM   11  N           1      -2.181  -0.792  -0.993  0.00  0.00    -0.354 N 
ATOM     12  HN          1      -3.049  -0.258  -0.956  1.00  0.00     0.166 HD
ENDBRANCH   5   6
ENDBRANCH   1   5
BRANCH   1  13
HETATM   13  N           1       1.543   1.456  -0.132  0.00  0.00    -0.344 N 
HETATM   14  H           1       2.067   2.293   0.088  0.00  0.00     0.163 HD
HETATM   15  C           1       1.403   0.470   0.807  0.00  0.00     0.249 C 
HETATM   16  O           1       2.215  -0.422   0.874  0.00  0.00    -0.271 OA
BRANCH  15  17
HETATM   17  C           1       0.232   0.496   1.760  0.00  0.00     0.274 C 
BRANCH  17  18
HETATM   18  C           1       0.311  -0.704   2.695  0.00  0.00     0.045 C 
BRANCH  18  19
HETATM   19 Se           1       0.259  -2.348   1.649  0.00  0.00     0.000 Se
HETATM   20  H           1       0.350  -3.233   2.822  0.00  0.00     0.000 HD
ENDBRANCH  18  19
ENDBRANCH  17  18
BRANCH  17  21
HETATM   21  N           1      -1.048   0.438   0.980  0.00  0.00    -0.067 N 
HETATM   22  H           1      -1.074  -0.443   0.419  0.00  0.00     0.275 HD
HETATM   23  H           1      -1.102   1.262   0.338  0.00  0.00     0.275 HD
HETATM   24  H           1      -1.859   0.457   1.638  0.00  0.00     0.275 HD
ENDBRANCH  17  21
ENDBRANCH  15  17
ENDBRANCH   1  13
TORSDOF 8
