REMARK  6 active torsions:
REMARK  status: ('A' for Active; 'I' for Inactive)
REMARK    1  A    between atoms: C_1  and  C_2 
REMARK       I    between atoms: C_2  and  N_3 
REMARK    2  A    between atoms: N_3  and  C_10 
REMARK    3  A    between atoms: Se_7  and  C_19 
REMARK    4  A    between atoms: C_9  and  C_10 
REMARK    5  A    between atoms: C_10  and  C_11 
REMARK    6  A    between atoms: C_11  and  C_19 
ROOT
HETATM    1  C           1       0.140  -1.197  -0.384  0.00  0.00     0.249 C 
HETATM    2  N           1      -0.588  -0.468   0.518  0.00  0.00    -0.345 N 
HETATM    3  O           1       1.317  -1.391  -0.194  0.00  0.00    -0.271 OA
HETATM    4  H           1      -1.574  -0.306   0.359  0.00  0.00     0.163 HD
ENDROOT
BRANCH   1   5
HETATM    5  C           1      -0.528  -1.759  -1.615  0.00  0.00     0.274 C 
HETATM    6  C           1       0.495  -2.522  -2.445  0.00  0.00     0.042 C 
HETATM    7  C           1       1.617  -1.580  -2.862  0.00  0.00     0.003 C 
HETATM    8 Se           1       0.880  -0.121  -3.923  0.00  0.00     0.000 Se
HETATM    9  C           1       2.595   0.761  -4.201  0.00  0.00     0.000 C 
HETATM   10  H           1      -0.325   0.011  -2.716  0.00  0.00     0.275 HD
HETATM   11  N           1      -1.095  -0.636  -2.431  0.00  0.00    -0.067 N 
HETATM   12  H           1      -1.558  -1.024  -3.284  0.00  0.00     0.275 HD
HETATM   13  H           1      -1.798  -0.112  -1.862  0.00  0.00     0.275 HD
ENDBRANCH   1   5
BRANCH   2  14
HETATM   14  C           1       0.054   0.072   1.701  0.00  0.00     0.185 C 
BRANCH  14  15
HETATM   15  C           1       0.626  -1.058   2.522  0.00  0.00     0.196 C 
HETATM   16  O           1       1.490  -1.815   2.028  0.00  0.00    -0.646 OA
HETATM   17  O           1       0.235  -1.238   3.696  0.00  0.00    -0.646 OA
ENDBRANCH  14  15
BRANCH  14  18
HETATM   18  C           1      -0.970   0.835   2.530  0.00  0.00     0.036 C 
BRANCH  18  19
HETATM   19  C           1      -0.297   1.402   3.773  0.00  0.00     0.003 C 
BRANCH  19  20
HETATM   20 Se           1      -0.460   3.344   3.773  0.00  0.00     0.000 Se
HETATM   21  C           1      -2.409   3.344   3.773  0.00  0.00     0.000 C 
ENDBRANCH  19  20
ENDBRANCH  18  19
ENDBRANCH  14  18
ENDBRANCH   2  14
TORSDOF 6
