REMARK  6 active torsions:
REMARK  status: ('A' for Active; 'I' for Inactive)
REMARK    1  A    between atoms: C_2  and  C_3 
REMARK    2  A    between atoms: C_2  and  N_6 
REMARK       I    between atoms: N_6  and  C_7 
REMARK    3  A    between atoms: C_7  and  C_8 
REMARK    4  A    between atoms: C_8  and  C_9 
REMARK    5  A    between atoms: C_8  and  N_11 
REMARK    6  A    between atoms: C_9  and  Se_10 
ROOT
HETATM    1  N           1      -0.927   0.231  -0.152  0.00  0.00    -0.345 N 
HETATM    2  C           1       0.418   0.106   0.065  0.00  0.00     0.249 C 
HETATM    3  O           1       1.204   0.564  -0.730  0.00  0.00    -0.271 OA
HETATM    4  H           1      -1.585  -0.153   0.514  0.00  0.00     0.163 HD
ENDROOT
BRANCH   2   5
HETATM    5  C           1       0.921  -0.605   1.298  0.00  0.00     0.274 C 
BRANCH   5   6
HETATM    6  C           1       2.444  -0.605   1.299  0.00  0.00     0.045 C 
BRANCH   6   7
HETATM    7 Se           1       3.095  -1.525  -0.291  0.00  0.00     0.000 Se
HETATM    8  H           1       4.517  -1.335   0.040  0.00  0.00     0.000 HD
ENDBRANCH   6   7
ENDBRANCH   5   6
BRANCH   5   9
HETATM    9  N           1       0.421  -2.019   1.297  0.00  0.00    -0.067 N 
HETATM   10  H           1       0.768  -2.512   2.151  0.00  0.00     0.275 HD
HETATM   11  H           1      -0.624  -2.018   1.297  0.00  0.00     0.275 HD
HETATM   12  H           1       0.770  -2.511   0.444  0.00  0.00     0.275 HD
ENDBRANCH   5   9
ENDBRANCH   2   5
BRANCH   1  13
HETATM   13  C           1      -1.410   0.914  -1.337  0.00  0.00     0.181 C 
HETATM   14  C           1      -2.933   0.914  -1.337  0.00  0.00     0.043 C 
BRANCH  13  15
HETATM   15  C           1      -0.906   2.337  -1.337  0.00  0.00     0.196 C 
HETATM   16  O           1       0.323   2.564  -1.337  0.00  0.00    -0.646 OA
HETATM   17  O           1      -1.718   3.287  -1.337  0.00  0.00    -0.646 OA
ENDBRANCH  13  15
ENDBRANCH   1  13
TORSDOF 6
