REMARK  8 active torsions:
REMARK  status: ('A' for Active; 'I' for Inactive)
REMARK    1  A    between atoms: C_4  and  C_6 
REMARK    2  A    between atoms: C_6  and  C_7 
REMARK    3  A    between atoms: C_6  and  N_26 
REMARK    4  A    between atoms: C_7  and  C_8 
REMARK    5  A    between atoms: Se_11  and  C_23 
REMARK    6  A    between atoms: N_12  and  C_24 
REMARK    7  A    between atoms: C_23  and  C_24 
REMARK    8  A    between atoms: C_24  and  C_25 
REMARK       I    between atoms: C_25  and  N_26 
ROOT
HETATM    1  C           1      -2.133  -0.114   1.668  0.00  0.00     0.190 C 
ENDROOT
BRANCH   1   2
HETATM    2  C           1      -3.158   0.555   2.551  0.00  0.00     0.197 C 
HETATM    3  O           1      -4.079  -0.119   3.062  0.00  0.00    -0.646 OA
HETATM    4  O           1      -3.087   1.784   2.771  0.00  0.00    -0.646 OA
ENDBRANCH   1   2
BRANCH   1   5
HETATM    5  C           1      -1.130   0.923   1.178  0.00  0.00     0.077 C 
BRANCH   5   6
HETATM    6  C           1       0.199   0.269   0.963  0.00  0.00    -0.028 A 
HETATM    7  C           1       1.385   0.910   0.509  0.00  0.00    -0.002 A 
HETATM    8  C           1       2.382  -0.064   0.451  0.00  0.00     0.042 A 
HETATM    9  C           1       1.705   2.231   0.140  0.00  0.00     0.014 A 
HETATM   10  N           1       1.813  -1.250   0.857  0.00  0.00    -0.365 N 
HETATM   11  C           1       3.690   0.218   0.041  0.00  0.00     0.030 A 
HETATM   12  C           1       0.493  -1.060   1.169  0.00  0.00     0.096 A 
HETATM   13  H           1       2.318  -2.168   0.919  0.00  0.00     0.165 HD
HETATM   14  C           1       3.985   1.536  -0.320  0.00  0.00     0.002 A 
HETATM   15  C           1       3.009   2.530  -0.272  0.00  0.00     0.001 A 
ENDBRANCH   5   6
ENDBRANCH   1   5
BRANCH   1  16
HETATM   16  N           1      -2.797  -0.719   0.530  0.00  0.00    -0.344 N 
HETATM   17  H           1      -3.802  -0.647   0.434  0.00  0.00     0.163 HD
HETATM   18  C           1      -2.065  -1.387  -0.414  0.00  0.00     0.249 C 
HETATM   19  O           1      -1.857  -2.571  -0.291  0.00  0.00    -0.271 OA
BRANCH  18  20
HETATM   20  C           1      -1.517  -0.645  -1.608  0.00  0.00     0.274 C 
BRANCH  20  21
HETATM   21  N           1      -0.598   0.444  -1.141  0.00  0.00    -0.067 N 
HETATM   22  H           1      -0.218   0.959  -1.968  0.00  0.00     0.275 HD
HETATM   23  H           1      -1.127   1.108  -0.531  0.00  0.00     0.275 HD
HETATM   24  H           1       0.191   0.025  -0.599  0.00  0.00     0.275 HD
ENDBRANCH  20  21
BRANCH  20  25
HETATM   25  C           1      -0.747  -1.612  -2.498  0.00  0.00     0.045 C 
BRANCH  25  26
HETATM   26 Se           1       0.726  -2.392  -1.488  0.00  0.00     0.000 Se
HETATM   27  H           1       1.208  -3.219  -2.606  0.00  0.00     0.000 HD
ENDBRANCH  25  26
ENDBRANCH  20  25
ENDBRANCH  18  20
ENDBRANCH   1  16
TORSDOF 8
