REMARK  7 active torsions:
REMARK  status: ('A' for Active; 'I' for Inactive)
REMARK    1  A    between atoms: C_3  and  C_24 
REMARK    2  A    between atoms: C_8  and  C_9 
REMARK    3  A    between atoms: C_8  and  C_22 
REMARK    4  A    between atoms: C_9  and  C_18 
REMARK    5  A    between atoms: C_12  and  C_22 
REMARK    6  A    between atoms: N_17  and  C_18 
REMARK    7  A    between atoms: C_22  and  N_23 
REMARK       I    between atoms: N_23  and  C_24 
ROOT
HETATM    1  O           1       1.609   1.184   0.387  0.00  0.00    -0.271 OA
HETATM    2  H           1      -1.463   0.868  -0.165  0.00  0.00     0.163 HD
HETATM    3  N           1      -0.468   0.774  -0.324  0.00  0.00    -0.345 N 
HETATM    4  C           1       0.421   1.295   0.577  0.00  0.00     0.249 C 
ENDROOT
BRANCH   3   5
HETATM    5  C           1       0.016   0.090  -1.507  0.00  0.00     0.185 C 
BRANCH   5   6
HETATM    6  C           1      -1.169  -0.389  -2.336  0.00  0.00     0.038 C 
BRANCH   6   7
HETATM    7  C           1      -0.662  -1.108  -3.580  0.00  0.00     0.030 C 
BRANCH   7   8
HETATM    8  C           1      -1.170  -2.543  -3.580  0.00  0.00     0.230 C 
BRANCH   8   9
HETATM    9  N           1      -2.670  -2.543  -3.580  0.00  0.00    -0.079 N 
HETATM   10  H           1      -3.018  -2.051  -4.433  0.00  0.00     0.274 HD
HETATM   11  H           1      -3.018  -2.051  -2.726  0.00  0.00     0.274 HD
HETATM   12  H           1      -3.019  -3.528  -3.580  0.00  0.00     0.274 HD
ENDBRANCH   8   9
ENDBRANCH   7   8
ENDBRANCH   6   7
ENDBRANCH   5   6
BRANCH   5  13
HETATM   13  C           1       0.855   1.037  -2.328  0.00  0.00     0.196 C 
HETATM   14  O           1       0.523   1.310  -3.502  0.00  0.00    -0.646 OA
HETATM   15  O           1       1.883   1.550  -1.835  0.00  0.00    -0.646 OA
ENDBRANCH   5  13
ENDBRANCH   3   5
BRANCH   4  16
HETATM   16  C           1      -0.083   2.008   1.808  0.00  0.00     0.274 C 
HETATM   17  C           1       1.101   2.487   2.638  0.00  0.00     0.042 C 
HETATM   18  C           1       1.946   1.291   3.055  0.00  0.00     0.003 C 
HETATM   19 Se           1       0.863   0.066   4.116  0.00  0.00     0.000 Se
HETATM   20  C           1       2.299  -1.222   4.395  0.00  0.00     0.000 C 
HETATM   21  H           1      -0.336   0.245   2.910  0.00  0.00     0.275 HD
HETATM   22  N           1      -0.917   1.065   2.625  0.00  0.00    -0.067 N 
HETATM   23  H           1      -1.729   0.737   2.055  0.00  0.00     0.275 HD
HETATM   24  H           1      -1.266   1.558   3.477  0.00  0.00     0.275 HD
ENDBRANCH   4  16
TORSDOF 7
