REMARK  8 active torsions:
REMARK  status: ('A' for Active; 'I' for Inactive)
REMARK    1  A    between atoms: C_2  and  C_10 
REMARK    2  A    between atoms: N_8  and  C_10 
REMARK       I    between atoms: N_8  and  C_14 
REMARK    3  A    between atoms: C_10  and  C_13 
REMARK    4  A    between atoms: C_11  and  C_13 
REMARK    5  A    between atoms: C_14  and  C_15 
REMARK    6  A    between atoms: C_15  and  C_23 
REMARK    7  A    between atoms: C_15  and  N_27 
REMARK    8  A    between atoms: C_23  and  O_24 
ROOT
HETATM    1  C           1      -2.111  -0.132   1.669  0.00  0.00     0.190 C 
ENDROOT
BRANCH   1   2
HETATM    2  C           1      -3.136   0.537   2.552  0.00  0.00     0.197 C 
HETATM    3  O           1      -4.056  -0.137   3.062  0.00  0.00    -0.646 OA
HETATM    4  O           1      -3.065   1.766   2.772  0.00  0.00    -0.646 OA
ENDBRANCH   1   2
BRANCH   1   5
HETATM    5  N           1      -2.775  -0.736   0.531  0.00  0.00    -0.344 N 
HETATM    6  H           1      -3.779  -0.665   0.434  0.00  0.00     0.163 HD
HETATM    7  C           1      -2.042  -1.405  -0.413  0.00  0.00     0.251 C 
HETATM    8  O           1      -1.835  -2.588  -0.290  0.00  0.00    -0.271 OA
BRANCH   7   9
HETATM    9  C           1      -1.495  -0.663  -1.608  0.00  0.00     0.297 C 
BRANCH   9  10
HETATM   10  C           1      -0.724  -1.630  -2.497  0.00  0.00     0.206 C 
BRANCH  10  11
HETATM   11  O           1       0.335  -2.191  -1.770  0.00  0.00    -0.398 OA
HETATM   12  H           1       0.785  -2.780  -2.352  0.00  0.00     0.209 HD
ENDBRANCH  10  11
ENDBRANCH   9  10
BRANCH   9  13
HETATM   13  N           1      -0.575   0.426  -1.140  0.00  0.00    -0.064 N 
HETATM   14  H           1      -1.104   1.090  -0.530  0.00  0.00     0.275 HD
HETATM   15  H           1       0.214   0.007  -0.598  0.00  0.00     0.275 HD
HETATM   16  H           1      -0.195   0.941  -1.967  0.00  0.00     0.275 HD
ENDBRANCH   9  13
ENDBRANCH   7   9
ENDBRANCH   1   5
BRANCH   1  17
HETATM   17  C           1      -1.108   0.905   1.179  0.00  0.00     0.077 C 
BRANCH  17  18
HETATM   18  C           1       0.222   0.251   0.964  0.00  0.00    -0.028 A 
HETATM   19  C           1       0.515  -1.078   1.170  0.00  0.00     0.096 A 
HETATM   20  N           1       1.835  -1.268   0.858  0.00  0.00    -0.365 N 
HETATM   21  H           1       2.341  -2.186   0.920  0.00  0.00     0.165 HD
HETATM   22  C           1       2.405  -0.082   0.452  0.00  0.00     0.042 A 
HETATM   23  C           1       3.713   0.200   0.042  0.00  0.00     0.030 A 
HETATM   24  C           1       1.407   0.892   0.510  0.00  0.00    -0.002 A 
HETATM   25  C           1       4.007   1.519  -0.319  0.00  0.00     0.002 A 
HETATM   26  C           1       3.031   2.512  -0.271  0.00  0.00     0.001 A 
HETATM   27  C           1       1.728   2.213   0.141  0.00  0.00     0.014 A 
ENDBRANCH  17  18
ENDBRANCH   1  17
TORSDOF 8
