REMARK  8 active torsions:
REMARK  status: ('A' for Active; 'I' for Inactive)
REMARK    1  A    between atoms: N_1  and  C_6 
REMARK    2  A    between atoms: C_5  and  C_6 
REMARK    3  A    between atoms: C_5  and  O_12 
REMARK    4  A    between atoms: C_6  and  C_8 
REMARK    5  A    between atoms: O_7  and  C_14 
REMARK       I    between atoms: C_8  and  N_11 
REMARK    6  A    between atoms: N_11  and  C_17 
REMARK    7  A    between atoms: C_14  and  C_17 
REMARK    8  A    between atoms: C_17  and  C_18 
ROOT
HETATM    1  C           1       0.320   0.555   0.095  0.00  0.00     0.251 C 
HETATM    2  N           1      -0.366  -0.630   0.095  0.00  0.00    -0.343 N 
HETATM    3  H           1       0.139  -1.507   0.096  0.00  0.00     0.163 HD
HETATM    4  O           1      -0.283   1.602   0.095  0.00  0.00    -0.271 OA
ENDROOT
BRANCH   1   5
HETATM    5  C           1       1.829   0.553   0.096  0.00  0.00     0.297 C 
BRANCH   5   6
HETATM    6  N           1       2.328  -0.154  -1.129  0.00  0.00    -0.064 N 
HETATM    7  H           1       3.373  -0.155  -1.129  0.00  0.00     0.275 HD
HETATM    8  H           1       1.979  -1.139  -1.129  0.00  0.00     0.275 HD
HETATM    9  H           1       1.980   0.340  -1.982  0.00  0.00     0.275 HD
ENDBRANCH   5   6
BRANCH   5  10
HETATM   10  C           1       2.338   1.988   0.096  0.00  0.00     0.206 C 
BRANCH  10  11
HETATM   11  O           1       1.873   2.650  -1.049  0.00  0.00    -0.398 OA
HETATM   12  H           1       2.208   3.530  -1.012  0.00  0.00     0.209 HD
ENDBRANCH  10  11
ENDBRANCH   5  10
ENDBRANCH   1   5
BRANCH   2  13
HETATM   13  C           1      -1.816  -0.629   0.094  0.00  0.00     0.209 C 
BRANCH  13  14
HETATM   14  C           1      -2.325  -2.064   0.094  0.00  0.00     0.200 C 
BRANCH  14  15
HETATM   15  O           1      -3.727  -2.064   0.094  0.00  0.00    -0.398 OA
HETATM   16  H           1      -4.000  -2.965   0.094  0.00  0.00     0.209 HD
ENDBRANCH  14  15
ENDBRANCH  13  14
BRANCH  13  17
HETATM   17  C           1      -2.318   0.084   1.326  0.00  0.00     0.198 C 
HETATM   18  O           1      -3.037  -0.523   2.149  0.00  0.00    -0.646 OA
HETATM   19  O           1      -2.016   1.280   1.523  0.00  0.00    -0.646 OA
ENDBRANCH  13  17
ENDBRANCH   2  13
TORSDOF 8
