REMARK  11 active torsions:
REMARK  status: ('A' for Active; 'I' for Inactive)
REMARK    1  A    between atoms: C_2  and  N_19 
REMARK    2  A    between atoms: C_2  and  C_17 
REMARK    3  A    between atoms: C_4  and  C_10 
REMARK    4  A    between atoms: C_4  and  O_5 
REMARK    5  A    between atoms: N_6  and  C_10 
REMARK       I    between atoms: C_7  and  N_8 
REMARK    6  A    between atoms: C_7  and  C_10 
REMARK    7  A    between atoms: N_8  and  C_21 
REMARK    8  A    between atoms: C_9  and  C_17 
REMARK    9  A    between atoms: C_9  and  C_22 
REMARK   10  A    between atoms: C_21  and  C_22 
REMARK   11  A    between atoms: C_21  and  C_24 
ROOT
HETATM    1  C           1      -1.401   1.641   0.279  0.00  0.00     0.251 C 
HETATM    2  N           1      -0.717   0.455   0.280  0.00  0.00    -0.345 N 
HETATM    3  O           1      -0.797   2.687   0.279  0.00  0.00    -0.271 OA
HETATM    4  H           1      -1.223  -0.421   0.280  0.00  0.00     0.163 HD
ENDROOT
BRANCH   2   5
HETATM    5  C           1       0.733   0.455   0.280  0.00  0.00     0.185 C 
BRANCH   5   6
HETATM    6  C           1       1.240  -0.981   0.280  0.00  0.00     0.036 C 
BRANCH   6   7
HETATM    7  C           1       2.763  -0.982   0.279  0.00  0.00     0.004 C 
BRANCH   7   8
HETATM    8  C           1       3.270  -1.701  -0.964  0.00  0.00     0.027 C 
BRANCH   8   9
HETATM    9  C           1       2.762  -3.137  -0.964  0.00  0.00     0.229 C 
BRANCH   9  10
HETATM   10  N           1       1.262  -3.137  -0.964  0.00  0.00    -0.079 N 
HETATM   11  H           1       0.914  -2.645  -0.111  0.00  0.00     0.274 HD
HETATM   12  H           1       0.914  -2.644  -1.818  0.00  0.00     0.274 HD
HETATM   13  H           1       0.913  -4.122  -0.964  0.00  0.00     0.274 HD
ENDBRANCH   9  10
ENDBRANCH   8   9
ENDBRANCH   7   8
ENDBRANCH   6   7
ENDBRANCH   5   6
BRANCH   5  14
HETATM   14  C           1       1.236   1.167  -0.953  0.00  0.00     0.196 C 
HETATM   15  O           1       1.953   0.559  -1.776  0.00  0.00    -0.646 OA
HETATM   16  O           1       0.934   2.363  -1.150  0.00  0.00    -0.646 OA
ENDBRANCH   5  14
ENDBRANCH   2   5
BRANCH   1  17
HETATM   17  C           1      -2.910   1.641   0.279  0.00  0.00     0.297 C 
BRANCH  17  18
HETATM   18  C           1      -3.419   3.077   0.279  0.00  0.00     0.206 C 
BRANCH  18  19
HETATM   19  O           1      -2.952   3.738   1.423  0.00  0.00    -0.398 OA
HETATM   20  H           1      -3.286   4.618   1.386  0.00  0.00     0.209 HD
ENDBRANCH  18  19
ENDBRANCH  17  18
BRANCH  17  21
HETATM   21  N           1      -3.410   0.935   1.505  0.00  0.00    -0.064 N 
HETATM   22  H           1      -4.455   0.934   1.506  0.00  0.00     0.275 HD
HETATM   23  H           1      -3.061  -0.051   1.505  0.00  0.00     0.275 HD
HETATM   24  H           1      -3.061   1.428   2.357  0.00  0.00     0.275 HD
ENDBRANCH  17  21
ENDBRANCH   1  17
TORSDOF 11
