REMARK  5 active torsions:
REMARK  status: ('A' for Active; 'I' for Inactive)
REMARK       I    between atoms: N_2  and  C_12 
REMARK    1  A    between atoms: O_6  and  C_15 
REMARK    2  A    between atoms: C_9  and  C_14 
REMARK    3  A    between atoms: N_11  and  C_16 
REMARK    4  A    between atoms: C_12  and  C_16 
REMARK    5  A    between atoms: C_15  and  C_16 
ROOT
HETATM    1  N           1      -0.454  -0.002   0.352  0.00  0.00    -0.336 N 
HETATM    2  C           1      -0.207  -1.383  -0.052  0.00  0.00     0.127 C 
HETATM    3  C           1      -1.419  -1.737  -0.896  0.00  0.00     0.022 C 
HETATM    4  C           1      -2.519  -0.791  -0.430  0.00  0.00     0.038 C 
HETATM    5  C           1       0.453   1.021   0.424  0.00  0.00     0.253 C 
HETATM    6  C           1      -1.880   0.051   0.662  0.00  0.00     0.188 C 
HETATM    7  O           1       0.097   2.120   0.779  0.00  0.00    -0.271 OA
ENDROOT
BRANCH   5   8
HETATM    8  C           1       1.897   0.776   0.061  0.00  0.00     0.298 C 
BRANCH   8   9
HETATM    9  N           1       1.982   0.317  -1.364  0.00  0.00    -0.064 N 
HETATM   10  H           1       1.585   1.052  -1.991  0.00  0.00     0.275 HD
HETATM   11  H           1       2.982   0.147  -1.617  0.00  0.00     0.275 HD
HETATM   12  H           1       1.440  -0.569  -1.477  0.00  0.00     0.275 HD
ENDBRANCH   8   9
BRANCH   8  13
HETATM   13  C           1       2.689   2.067   0.226  0.00  0.00     0.206 C 
BRANCH  13  14
HETATM   14  O           1       2.156   3.053  -0.616  0.00  0.00    -0.398 OA
ATOM     15  HO          1       1.247   3.208  -0.387  1.00  0.00     0.209 HD
ENDBRANCH  13  14
ENDBRANCH   8  13
ENDBRANCH   5   8
BRANCH   6  16
HETATM   16  C           1      -2.155  -0.538   2.024  0.00  0.00     0.196 C 
HETATM   17  O           1      -3.325  -0.579   2.462  0.00  0.00    -0.646 OA
HETATM   18  O           1      -1.214  -0.984   2.714  0.00  0.00    -0.646 OA
ENDBRANCH   6  16
TORSDOF 5
