REMARK  10 active torsions:
REMARK  status: ('A' for Active; 'I' for Inactive)
REMARK       I    between atoms: C_6  and  N_12 
REMARK    1  A    between atoms: C_6  and  C_7 
REMARK    2  A    between atoms: C_7  and  C_8 
REMARK    3  A    between atoms: C_7  and  N_13 
REMARK    4  A    between atoms: C_8  and  O_15 
REMARK    5  A    between atoms: O_10  and  P_22 
REMARK    6  A    between atoms: N_12  and  C_21 
REMARK    7  A    between atoms: C_16  and  C_21 
REMARK    8  A    between atoms: C_20  and  C_21 
REMARK    9  A    between atoms: C_20  and  O_23 
REMARK   10  A    between atoms: P_22  and  O_23 
ROOT
HETATM    1  O           1       1.319   0.772   1.023  0.00  0.00    -0.271 OA
HETATM    2  C           1       1.323  -0.138   0.228  0.00  0.00     0.251 C 
HETATM    3  N           1       0.541  -1.240   0.446  0.00  0.00    -0.343 N 
HETATM    4  H           1       0.545  -2.002  -0.221  0.00  0.00     0.163 HD
ENDROOT
BRANCH   3   5
HETATM    5  C           1      -0.291  -1.317   1.630  0.00  0.00     0.210 C 
BRANCH   5   6
HETATM    6  C           1      -1.046  -2.624   1.630  0.00  0.00     0.198 C 
HETATM    7  O           1      -2.296  -2.624   1.630  0.00  0.00    -0.646 OA
HETATM    8  O           1      -0.421  -3.706   1.630  0.00  0.00    -0.646 OA
ENDBRANCH   5   6
BRANCH   5   9
HETATM    9  C           1      -1.280  -0.159   1.630  0.00  0.00     0.217 C 
BRANCH   9  10
HETATM   10  O           1      -2.087  -0.232   0.486  0.00  0.00    -0.287 OA
BRANCH  10  11
HETATM   11  P           1      -3.199   0.929   0.327  0.00  0.00     0.406 P 
HETATM   12  O           1      -4.121   0.889   1.484  0.00  0.00    -0.624 OA
HETATM   13  O           1      -2.531   2.248   0.275  0.00  0.00    -0.624 OA
BRANCH  11  14
HETATM   14  O           1      -4.031   0.693  -1.036  0.00  0.00    -0.300 OA
HETATM   15  H           1      -4.655   1.398  -1.066  0.00  0.00     0.223 HD
ENDBRANCH  11  14
ENDBRANCH  10  11
ENDBRANCH   9  10
ENDBRANCH   5   9
ENDBRANCH   3   5
BRANCH   2  16
HETATM   16  C           1       2.189  -0.058  -1.005  0.00  0.00     0.297 C 
BRANCH  16  17
HETATM   17  C           1       2.952   1.261  -1.006  0.00  0.00     0.206 C 
BRANCH  17  18
HETATM   18  O           1       2.042   2.327  -1.005  0.00  0.00    -0.398 OA
HETATM   19  H           1       2.550   3.121  -1.006  0.00  0.00     0.209 HD
ENDBRANCH  17  18
ENDBRANCH  16  17
BRANCH  16  20
HETATM   20  N           1       1.325  -0.136  -2.228  0.00  0.00    -0.064 N 
HETATM   21  H           1       0.803  -1.041  -2.228  0.00  0.00     0.275 HD
HETATM   22  H           1       1.925  -0.081  -3.082  0.00  0.00     0.275 HD
HETATM   23  H           1       0.647   0.659  -2.227  0.00  0.00     0.275 HD
ENDBRANCH  16  20
ENDBRANCH   2  16
TORSDOF 10
