REMARK  9 active torsions:
REMARK  status: ('A' for Active; 'I' for Inactive)
REMARK    1  A    between atoms: N_1  and  C_5 
REMARK       I    between atoms: N_1  and  C_23 
REMARK    2  A    between atoms: C_2  and  C_18 
REMARK    3  A    between atoms: C_2  and  O_3 
REMARK    4  A    between atoms: C_4  and  C_10 
REMARK    5  A    between atoms: C_4  and  C_5 
REMARK    6  A    between atoms: C_5  and  C_16 
REMARK       I    between atoms: N_6  and  C_21 
REMARK    7  A    between atoms: C_10  and  C_21 
REMARK    8  A    between atoms: C_18  and  C_23 
REMARK    9  A    between atoms: C_18  and  N_22 
ROOT
HETATM    1  N           1      -0.059   0.765  -0.186  0.00  0.00    -0.345 N 
HETATM    2  O           1      -0.962   0.103   1.746  0.00  0.00    -0.271 OA
HETATM    3  H           1      -0.053   1.434  -0.946  0.00  0.00     0.163 HD
HETATM    4  C           1      -0.955   0.901   0.840  0.00  0.00     0.251 C 
ENDROOT
BRANCH   1   5
HETATM    5  C           1       0.882  -0.339  -0.186  0.00  0.00     0.186 C 
BRANCH   5   6
HETATM    6  C           1       1.758  -0.259  -1.429  0.00  0.00     0.045 C 
BRANCH   6   7
HETATM    7  C           1       2.747  -1.417  -1.429  0.00  0.00     0.105 C 
BRANCH   7   8
HETATM    8  C           1       1.992  -2.724  -1.429  0.00  0.00     0.215 C 
HETATM    9  N           1       2.677  -3.910  -1.429  0.00  0.00    -0.370 N 
HETATM   10  H           1       3.689  -3.910  -1.429  0.00  0.00     0.159 HD
HETATM   11  H           1       2.171  -4.786  -1.429  0.00  0.00     0.159 HD
HETATM   12  O           1       0.784  -2.724  -1.429  0.00  0.00    -0.274 OA
ENDBRANCH   7   8
ENDBRANCH   6   7
ENDBRANCH   5   6
BRANCH   5  13
HETATM   13  C           1       1.748  -0.259   1.047  0.00  0.00     0.196 C 
HETATM   14  O           1       1.226  -0.307   2.182  0.00  0.00    -0.646 OA
HETATM   15  O           1       2.988  -0.146   0.933  0.00  0.00    -0.646 OA
ENDBRANCH   5  13
ENDBRANCH   1   5
BRANCH   4  16
HETATM   16  C           1      -1.934   2.050   0.839  0.00  0.00     0.297 C 
BRANCH  16  17
HETATM   17  C           1      -2.810   1.971   2.082  0.00  0.00     0.206 C 
BRANCH  17  18
HETATM   18  O           1      -3.514   0.759   2.083  0.00  0.00    -0.398 OA
HETATM   19  H           1      -4.042   0.749   2.863  0.00  0.00     0.209 HD
ENDBRANCH  17  18
ENDBRANCH  16  17
BRANCH  16  20
HETATM   20  N           1      -2.796   1.970  -0.386  0.00  0.00    -0.064 N 
HETATM   21  H           1      -3.319   1.066  -0.385  0.00  0.00     0.275 HD
HETATM   22  H           1      -2.194   2.024  -1.239  0.00  0.00     0.275 HD
HETATM   23  H           1      -3.474   2.765  -0.388  0.00  0.00     0.275 HD
ENDBRANCH  16  20
ENDBRANCH   4  16
TORSDOF 9
