REMARK  9 active torsions:
REMARK  status: ('A' for Active; 'I' for Inactive)
REMARK    1  A    between atoms: N_1  and  C_8 
REMARK       I    between atoms: N_1  and  C_3 
REMARK    2  A    between atoms: C_2  and  C_13 
REMARK    3  A    between atoms: C_2  and  C_8 
REMARK    4  A    between atoms: C_3  and  C_7 
REMARK    5  A    between atoms: O_4  and  C_11 
REMARK    6  A    between atoms: C_7  and  C_11 
REMARK    7  A    between atoms: C_7  and  N_18 
REMARK    8  A    between atoms: C_8  and  C_20 
REMARK    9  A    between atoms: C_13  and  Se_14 
ROOT
HETATM    1  N           1      -0.115  -0.392  -0.224  0.00  0.00    -0.345 N 
HETATM    2  C           1       0.613  -1.121  -1.126  0.00  0.00     0.251 C 
HETATM    3  H           1      -1.101  -0.230  -0.383  0.00  0.00     0.163 HD
HETATM    4  O           1       1.790  -1.315  -0.936  0.00  0.00    -0.271 OA
ENDROOT
BRANCH   1   5
HETATM    5  C           1       0.527   0.148   0.959  0.00  0.00     0.185 C 
BRANCH   5   6
HETATM    6  C           1      -0.497   0.911   1.788  0.00  0.00     0.036 C 
BRANCH   6   7
HETATM    7  C           1       0.176   1.478   3.031  0.00  0.00     0.003 C 
BRANCH   7   8
HETATM    8 Se           1       0.013   3.420   3.031  0.00  0.00     0.000 Se
HETATM    9  C           1      -1.936   3.420   3.031  0.00  0.00     0.000 C 
ENDBRANCH   7   8
ENDBRANCH   6   7
ENDBRANCH   5   6
BRANCH   5  10
HETATM   10  C           1       1.099  -0.982   1.780  0.00  0.00     0.196 C 
HETATM   11  O           1       1.963  -1.739   1.286  0.00  0.00    -0.646 OA
HETATM   12  O           1       0.708  -1.161   2.953  0.00  0.00    -0.646 OA
ENDBRANCH   5  10
ENDBRANCH   1   5
BRANCH   2  13
HETATM   13  C           1      -0.055  -1.683  -2.357  0.00  0.00     0.297 C 
BRANCH  13  14
HETATM   14  C           1       0.968  -2.446  -3.187  0.00  0.00     0.206 C 
BRANCH  14  15
HETATM   15  O           1       2.001  -1.579  -3.571  0.00  0.00    -0.398 OA
HETATM   16  H           1       2.610  -2.086  -4.080  0.00  0.00     0.209 HD
ENDBRANCH  14  15
ENDBRANCH  13  14
BRANCH  13  17
HETATM   17  N           1      -0.622  -0.559  -3.173  0.00  0.00    -0.064 N 
HETATM   18  H           1      -1.085  -0.947  -4.026  0.00  0.00     0.275 HD
HETATM   19  H           1      -1.325  -0.036  -2.604  0.00  0.00     0.275 HD
HETATM   20  H           1       0.148   0.087  -3.458  0.00  0.00     0.275 HD
ENDBRANCH  13  17
ENDBRANCH   2  13
TORSDOF 9
