REMARK  8 active torsions:
REMARK  status: ('A' for Active; 'I' for Inactive)
REMARK    1  A    between atoms: Se_2  and  C_3 
REMARK    2  A    between atoms: C_3  and  C_4 
REMARK    3  A    between atoms: C_4  and  C_5 
REMARK    4  A    between atoms: C_4  and  N_10 
REMARK    5  A    between atoms: C_7  and  C_8 
REMARK    6  A    between atoms: C_7  and  C_16 
REMARK    7  A    between atoms: C_7  and  N_14 
REMARK       I    between atoms: C_8  and  N_10 
REMARK    8  A    between atoms: O_9  and  C_16 
ROOT
HETATM    1  C           1       0.357   0.578   0.095  0.00  0.00     0.251 C 
HETATM    2  N           1      -0.329  -0.607   0.095  0.00  0.00    -0.345 N 
HETATM    3  O           1      -0.246   1.624   0.095  0.00  0.00    -0.271 OA
HETATM    4  H           1       0.176  -1.484   0.096  0.00  0.00     0.163 HD
ENDROOT
BRANCH   1   5
HETATM    5  C           1       1.866   0.576   0.096  0.00  0.00     0.297 C 
BRANCH   5   6
HETATM    6  C           1       2.376   2.011   0.096  0.00  0.00     0.206 C 
BRANCH   6   7
HETATM    7  O           1       1.911   2.673  -1.049  0.00  0.00    -0.398 OA
HETATM    8  H           1       2.246   3.553  -1.012  0.00  0.00     0.209 HD
ENDBRANCH   6   7
ENDBRANCH   5   6
BRANCH   5   9
HETATM    9  N           1       2.365  -0.131  -1.129  0.00  0.00    -0.064 N 
HETATM   10  H           1       3.410  -0.133  -1.129  0.00  0.00     0.275 HD
HETATM   11  H           1       2.018   0.362  -1.982  0.00  0.00     0.275 HD
HETATM   12  H           1       2.016  -1.116  -1.129  0.00  0.00     0.275 HD
ENDBRANCH   5   9
ENDBRANCH   1   5
BRANCH   2  13
HETATM   13  C           1      -1.779  -0.606   0.094  0.00  0.00     0.185 C 
BRANCH  13  14
HETATM   14  C           1      -2.287  -2.042   0.094  0.00  0.00     0.039 C 
BRANCH  14  15
HETATM   15 Se           1      -4.236  -2.042   0.094  0.00  0.00     0.000 Se
HETATM   16  H           1      -4.352  -3.509   0.094  0.00  0.00     0.000 HD
ENDBRANCH  14  15
ENDBRANCH  13  14
BRANCH  13  17
HETATM   17  C           1      -2.281   0.106   1.326  0.00  0.00     0.196 C 
HETATM   18  O           1      -1.978   1.303   1.523  0.00  0.00    -0.646 OA
HETATM   19  O           1      -3.000  -0.500   2.149  0.00  0.00    -0.646 OA
ENDBRANCH  13  17
ENDBRANCH   2  13
TORSDOF 8
