REMARK  11 active torsions:
REMARK  status: ('A' for Active; 'I' for Inactive)
REMARK    1  A    between atoms: C_2  and  C_9 
REMARK    2  A    between atoms: C_5  and  C_9 
REMARK    3  A    between atoms: C_5  and  C_28 
REMARK    4  A    between atoms: O_6  and  C_12 
REMARK    5  A    between atoms: O_6  and  P_7 
REMARK    6  A    between atoms: P_7  and  O_19 
REMARK    7  A    between atoms: C_8  and  C_24 
REMARK    8  A    between atoms: C_8  and  C_11 
REMARK    9  A    between atoms: C_8  and  N_16 
REMARK   10  A    between atoms: C_9  and  N_14 
REMARK   11  A    between atoms: C_11  and  O_15 
REMARK       I    between atoms: N_14  and  C_24 
ROOT
HETATM    1  C           1       2.439   0.959  -1.243  0.00  0.00     0.189 C 
ENDROOT
BRANCH   1   2
HETATM    2  C           1       3.299   1.758  -2.191  0.00  0.00     0.197 C 
HETATM    3  O           1       2.781   2.634  -2.917  0.00  0.00    -0.646 OA
HETATM    4  O           1       4.529   1.545  -2.250  0.00  0.00    -0.646 OA
ENDBRANCH   1   2
BRANCH   1   5
HETATM    5  C           1       0.990   1.412  -1.366  0.00  0.00     0.074 C 
BRANCH   5   6
HETATM    6  C           1       0.080   0.264  -1.061  0.00  0.00    -0.056 A 
HETATM    7  C           1      -1.303   0.438  -1.110  0.00  0.00     0.010 A 
HETATM    8  C           1      -2.152  -0.632  -0.826  0.00  0.00     0.038 A 
HETATM    9  C           1      -1.617  -1.877  -0.493  0.00  0.00     0.081 A 
HETATM   10  C           1      -0.234  -2.051  -0.445  0.00  0.00     0.038 A 
HETATM   11  C           1       0.614  -0.981  -0.729  0.00  0.00     0.010 A 
BRANCH   9  12
HETATM   12  O           1      -2.441  -2.916  -0.218  0.00  0.00    -0.247 OA
BRANCH  12  13
HETATM   13  P           1      -4.034  -2.660  -0.288  0.00  0.00     0.411 P 
HETATM   14  O           1      -4.750  -3.912   0.044  0.00  0.00    -0.624 OA
HETATM   15  O           1      -4.409  -1.606   0.681  0.00  0.00    -0.624 OA
BRANCH  13  16
HETATM   16  O           1      -4.437  -2.188  -1.779  0.00  0.00    -0.300 OA
HETATM   17  H           1      -5.370  -2.058  -1.750  0.00  0.00     0.223 HD
ENDBRANCH  13  16
ENDBRANCH  12  13
ENDBRANCH   9  12
ENDBRANCH   5   6
ENDBRANCH   1   5
BRANCH   1  18
HETATM   18  N           1       2.896   1.168   0.117  0.00  0.00    -0.344 N 
HETATM   19  C           1       2.264   0.541   1.156  0.00  0.00     0.251 C 
HETATM   20  O           1       2.636  -0.549   1.521  0.00  0.00    -0.271 OA
HETATM   21  H           1       3.683   1.778   0.298  0.00  0.00     0.163 HD
BRANCH  19  22
HETATM   22  C           1       1.101   1.210   1.847  0.00  0.00     0.297 C 
BRANCH  22  23
HETATM   23  C           1       0.581   0.308   2.958  0.00  0.00     0.206 C 
BRANCH  23  24
HETATM   24  O           1       0.160  -0.913   2.412  0.00  0.00    -0.398 OA
HETATM   25  H           1      -0.152  -1.440   3.128  0.00  0.00     0.209 HD
ENDBRANCH  23  24
ENDBRANCH  22  23
BRANCH  22  26
HETATM   26  N           1       0.005   1.458   0.852  0.00  0.00    -0.064 N 
HETATM   27  H           1      -0.801   1.922   1.329  0.00  0.00     0.275 HD
HETATM   28  H           1       0.361   2.077   0.090  0.00  0.00     0.275 HD
HETATM   29  H           1      -0.308   0.548   0.445  0.00  0.00     0.275 HD
ENDBRANCH  22  26
ENDBRANCH  19  22
ENDBRANCH   1  18
TORSDOF 11
