REMARK  8 active torsions:
REMARK  status: ('A' for Active; 'I' for Inactive)
REMARK    1  A    between atoms: C_1  and  C_5 
REMARK    2  A    between atoms: C_5  and  C_12 
REMARK    3  A    between atoms: C_5  and  N_14 
REMARK    4  A    between atoms: O_6  and  C_12 
REMARK       I    between atoms: C_7  and  N_14 
REMARK    5  A    between atoms: C_7  and  C_10 
REMARK    6  A    between atoms: N_9  and  C_10 
REMARK    7  A    between atoms: C_10  and  C_11 
REMARK    8  A    between atoms: C_11  and  O_16 
ROOT
HETATM    1  C           1       0.627  -0.304   0.730  0.00  0.00     0.251 C 
HETATM    2  O           1       0.455  -1.439   1.107  0.00  0.00    -0.271 OA
HETATM    3  N           1       0.060   0.121  -0.442  0.00  0.00    -0.342 N 
HETATM    4  H           1       0.204   1.071  -0.758  0.00  0.00     0.163 HD
ENDROOT
BRANCH   1   5
HETATM    5  C           1       1.465   0.645   1.550  0.00  0.00     0.297 C 
BRANCH   5   6
HETATM    6  N           1       0.632   1.824   1.957  0.00  0.00    -0.064 N 
HETATM    7  H           1      -0.181   1.496   2.527  0.00  0.00     0.275 HD
HETATM    8  H           1       1.212   2.482   2.526  0.00  0.00     0.275 HD
HETATM    9  H           1       0.284   2.315   1.103  0.00  0.00     0.275 HD
ENDBRANCH   5   6
BRANCH   5  10
HETATM   10  C           1       1.973  -0.071   2.795  0.00  0.00     0.206 C 
BRANCH  10  11
HETATM   11  O           1       0.883  -0.510   3.559  0.00  0.00    -0.398 OA
HETATM   12  H           1       1.237  -0.946   4.316  0.00  0.00     0.209 HD
ENDBRANCH  10  11
ENDBRANCH   5  10
ENDBRANCH   1   5
BRANCH   3  13
HETATM   13  C           1      -0.746  -0.791  -1.230  0.00  0.00     0.214 C 
BRANCH  13  14
HETATM   14  C           1       0.093  -1.977  -1.639  0.00  0.00     0.199 C 
HETATM   15  O           1       0.609  -2.708  -0.766  0.00  0.00    -0.646 OA
HETATM   16  O           1       0.270  -2.229  -2.850  0.00  0.00    -0.646 OA
ENDBRANCH  13  14
BRANCH  13  17
HETATM   17  C           1      -1.253  -0.074  -2.474  0.00  0.00     0.147 C 
HETATM   18  C           1      -2.776  -0.074  -2.474  0.00  0.00     0.042 C 
BRANCH  17  19
HETATM   19  O           1      -0.785   1.248  -2.474  0.00  0.00    -0.393 OA
HETATM   20  H           1       0.156   1.205  -2.474  0.00  0.00     0.210 HD
ENDBRANCH  17  19
ENDBRANCH  13  17
ENDBRANCH   3  13
TORSDOF 8
