REMARK  8 active torsions:
REMARK  status: ('A' for Active; 'I' for Inactive)
REMARK    1  A    between atoms: O_4  and  C_5 
REMARK    2  A    between atoms: C_5  and  C_6 
REMARK    3  A    between atoms: C_6  and  C_12 
REMARK    4  A    between atoms: C_6  and  N_10 
REMARK    5  A    between atoms: C_9  and  C_19 
REMARK    6  A    between atoms: N_11  and  C_19 
REMARK       I    between atoms: N_11  and  C_12 
REMARK    7  A    between atoms: S_15  and  C_16 
REMARK    8  A    between atoms: C_16  and  C_19 
ROOT
HETATM    1  O           1      -0.256   1.619   0.095  0.00  0.00    -0.271 OA
HETATM    2  N           1      -0.338  -0.613   0.095  0.00  0.00    -0.344 N 
HETATM    3  C           1       0.347   0.572   0.095  0.00  0.00     0.251 C 
HETATM    4  H           1       0.167  -1.489   0.096  0.00  0.00     0.163 HD
ENDROOT
BRANCH   3   5
HETATM    5  C           1       1.856   0.571   0.096  0.00  0.00     0.297 C 
BRANCH   5   6
HETATM    6  C           1       2.366   2.006   0.096  0.00  0.00     0.206 C 
BRANCH   6   7
HETATM    7  O           1       1.901   2.668  -1.049  0.00  0.00    -0.398 OA
HETATM    8  H           1       2.236   3.547  -1.012  0.00  0.00     0.209 HD
ENDBRANCH   6   7
ENDBRANCH   5   6
BRANCH   5   9
HETATM    9  N           1       2.356  -0.136  -1.129  0.00  0.00    -0.064 N 
HETATM   10  H           1       3.401  -0.138  -1.129  0.00  0.00     0.275 HD
HETATM   11  H           1       2.006  -1.121  -1.129  0.00  0.00     0.275 HD
HETATM   12  H           1       2.008   0.357  -1.982  0.00  0.00     0.275 HD
ENDBRANCH   5   9
ENDBRANCH   3   5
BRANCH   2  13
HETATM   13  C           1      -1.788  -0.611   0.094  0.00  0.00     0.194 C 
BRANCH  13  14
HETATM   14  C           1      -2.291   0.101   1.326  0.00  0.00     0.197 C 
HETATM   15  O           1      -3.010  -0.505   2.149  0.00  0.00    -0.646 OA
HETATM   16  O           1      -1.988   1.298   1.523  0.00  0.00    -0.646 OA
ENDBRANCH  13  14
BRANCH  13  17
HETATM   17  C           1      -2.297  -2.047   0.094  0.00  0.00     0.106 C 
BRANCH  17  18
HETATM   18  S           1      -4.112  -2.047   0.094  0.00  0.00    -0.180 SA
HETATM   19  H           1      -4.252  -3.384   0.094  0.00  0.00     0.101 HD
ENDBRANCH  17  18
ENDBRANCH  13  17
ENDBRANCH   2  13
TORSDOF 8
