REMARK  6 active torsions:
REMARK  status: ('A' for Active; 'I' for Inactive)
REMARK    1  A    between atoms: N_2  and  C_5 
REMARK    2  A    between atoms: O_3  and  C_4 
REMARK    3  A    between atoms: C_4  and  C_5 
REMARK    4  A    between atoms: C_5  and  C_6 
REMARK       I    between atoms: C_6  and  N_7 
REMARK    5  A    between atoms: N_7  and  C_9 
REMARK    6  A    between atoms: C_9  and  C_15 
ROOT
HETATM    1  C           1      -0.547   1.201  -0.295  0.00  0.00     0.297 C 
ENDROOT
BRANCH   1   2
HETATM    2  N           1      -1.408   1.122   0.931  0.00  0.00    -0.064 N 
HETATM    3  H           1      -2.087   1.916   0.932  0.00  0.00     0.275 HD
HETATM    4  H           1      -1.931   0.217   0.930  0.00  0.00     0.275 HD
HETATM    5  H           1      -0.807   1.177   1.783  0.00  0.00     0.275 HD
ENDBRANCH   1   2
BRANCH   1   6
HETATM    6  C           1       0.215   2.520  -0.295  0.00  0.00     0.206 C 
BRANCH   6   7
HETATM    7  O           1       1.021   2.595   0.850  0.00  0.00    -0.398 OA
HETATM    8  H           1       1.473   3.420   0.813  0.00  0.00     0.209 HD
ENDBRANCH   6   7
ENDBRANCH   1   6
BRANCH   1   9
HETATM    9  C           1       0.433   0.054  -0.295  0.00  0.00     0.250 C 
HETATM   10  O           1       1.621   0.274  -0.295  0.00  0.00    -0.271 OA
HETATM   11  N           1      -0.024  -1.237  -0.295  0.00  0.00    -0.349 N 
HETATM   12  H           1      -1.019  -1.421  -0.295  0.00  0.00     0.163 HD
BRANCH  11  13
HETATM   13  C           1       0.918  -2.340  -0.295  0.00  0.00     0.235 C 
BRANCH  13  14
HETATM   14  C           1       0.164  -3.646  -0.295  0.00  0.00     0.191 C 
HETATM   15  O           1      -1.086  -3.646  -0.295  0.00  0.00    -0.647 OA
HETATM   16  O           1       0.789  -4.729  -0.295  0.00  0.00    -0.647 OA
ENDBRANCH  13  14
ENDBRANCH  11  13
ENDBRANCH   1   9
TORSDOF 6
