REMARK  9 active torsions:
REMARK  status: ('A' for Active; 'I' for Inactive)
REMARK    1  A    between atoms: O_1  and  C_18 
REMARK    2  A    between atoms: N_2  and  C_6 
REMARK    3  A    between atoms: O_3  and  C_4 
REMARK    4  A    between atoms: C_4  and  C_6 
REMARK    5  A    between atoms: C_6  and  C_17 
REMARK    6  A    between atoms: C_9  and  C_14 
REMARK    7  A    between atoms: C_12  and  C_23 
REMARK    8  A    between atoms: C_14  and  C_23 
REMARK    9  A    between atoms: N_16  and  C_23 
REMARK       I    between atoms: N_16  and  C_17 
ROOT
HETATM    1  C           1      -0.241  -1.367  -0.793  0.00  0.00     0.189 C 
ENDROOT
BRANCH   1   2
HETATM    2  C           1      -1.099  -2.532  -1.219  0.00  0.00     0.197 C 
HETATM    3  O           1      -2.329  -2.377  -1.380  0.00  0.00    -0.646 OA
HETATM    4  O           1      -0.580  -3.653  -1.412  0.00  0.00    -0.646 OA
ENDBRANCH   1   2
BRANCH   1   5
HETATM    5  C           1       1.208  -1.820  -0.670  0.00  0.00     0.074 C 
BRANCH   5   6
HETATM    6  C           1       2.118  -0.671  -0.974  0.00  0.00    -0.056 A 
HETATM    7  C           1       3.501  -0.846  -0.926  0.00  0.00     0.010 A 
HETATM    8  C           1       4.350   0.224  -1.209  0.00  0.00     0.037 A 
HETATM    9  C           1       3.815   1.469  -1.542  0.00  0.00     0.065 A 
HETATM   10  C           1       2.432   1.644  -1.590  0.00  0.00     0.037 A 
HETATM   11  C           1       1.583   0.573  -1.307  0.00  0.00     0.010 A 
BRANCH   9  12
HETATM   12  O           1       4.639   2.509  -1.818  0.00  0.00    -0.361 OA
HETATM   13  H           1       4.088   3.282  -2.025  0.00  0.00     0.217 HD
ENDBRANCH   9  12
ENDBRANCH   5   6
ENDBRANCH   1   5
BRANCH   1  14
HETATM   14  N           1      -0.703  -0.872   0.490  0.00  0.00    -0.344 N 
HETATM   15  H           1      -0.078  -0.870   1.286  0.00  0.00     0.163 HD
HETATM   16  C           1      -1.983  -0.407   0.624  0.00  0.00     0.251 C 
HETATM   17  O           1      -2.729  -0.409  -0.327  0.00  0.00    -0.271 OA
BRANCH  16  18
HETATM   18  C           1      -2.463   0.108   1.958  0.00  0.00     0.297 C 
BRANCH  18  19
HETATM   19  N           1      -1.611   1.267   2.382  0.00  0.00    -0.064 N 
HETATM   20  H           1      -1.943   1.625   3.306  0.00  0.00     0.275 HD
HETATM   21  H           1      -0.617   0.956   2.466  0.00  0.00     0.275 HD
HETATM   22  H           1      -1.679   2.029   1.670  0.00  0.00     0.275 HD
ENDBRANCH  18  19
BRANCH  18  23
HETATM   23  C           1      -3.912   0.562   1.837  0.00  0.00     0.206 C 
BRANCH  23  24
HETATM   24  O           1      -4.004   1.584   0.882  0.00  0.00    -0.398 OA
HETATM   25  H           1      -4.911   1.836   0.836  0.00  0.00     0.209 HD
ENDBRANCH  23  24
ENDBRANCH  18  23
ENDBRANCH  16  18
ENDBRANCH   1  14
TORSDOF 9
