REMARK  8 active torsions:
REMARK  status: ('A' for Active; 'I' for Inactive)
REMARK    1  A    between atoms: C_1  and  C_15 
REMARK    2  A    between atoms: C_1  and  O_16 
REMARK    3  A    between atoms: C_3  and  C_4 
REMARK    4  A    between atoms: C_4  and  C_5 
REMARK    5  A    between atoms: C_5  and  C_20 
REMARK    6  A    between atoms: C_5  and  N_17 
REMARK    7  A    between atoms: N_9  and  C_15 
REMARK    8  A    between atoms: C_15  and  C_22 
REMARK       I    between atoms: N_17  and  C_22 
ROOT
HETATM    1  C           1       0.941   1.265  -1.443  0.00  0.00     0.191 C 
ENDROOT
BRANCH   1   2
HETATM    2  C           1      -0.566   1.112  -1.293  0.00  0.00     0.094 C 
BRANCH   2   3
HETATM    3  C           1      -0.909  -0.338  -1.148  0.00  0.00     0.028 A 
HETATM    4  C           1       0.008  -1.362  -1.152  0.00  0.00     0.114 A 
HETATM    5  N           1      -0.732  -2.502  -0.996  0.00  0.00    -0.360 N 
HETATM    6  C           1      -2.043  -2.130  -0.905  0.00  0.00     0.180 A 
HETATM    7  H           1      -0.360  -3.483  -0.954  0.00  0.00     0.166 HD
HETATM    8  N           1      -2.181  -0.827  -0.994  0.00  0.00    -0.354 N 
ATOM      9  HN          1      -3.049  -0.293  -0.957  1.00  0.00     0.166 HD
ENDBRANCH   2   3
ENDBRANCH   1   2
BRANCH   1  10
HETATM   10  C           1       1.243   2.483  -2.282  0.00  0.00     0.197 C 
HETATM   11  O           1       2.428   2.793  -2.529  0.00  0.00    -0.646 OA
HETATM   12  O           1       0.307   3.181  -2.729  0.00  0.00    -0.646 OA
ENDBRANCH   1  10
BRANCH   1  13
HETATM   13  N           1       1.544   1.420  -0.133  0.00  0.00    -0.344 N 
HETATM   14  H           1       2.068   2.258   0.087  0.00  0.00     0.163 HD
HETATM   15  C           1       1.403   0.434   0.806  0.00  0.00     0.251 C 
HETATM   16  O           1       2.216  -0.457   0.873  0.00  0.00    -0.271 OA
BRANCH  15  17
HETATM   17  C           1       0.233   0.461   1.759  0.00  0.00     0.297 C 
BRANCH  17  18
HETATM   18  C           1       0.311  -0.739   2.694  0.00  0.00     0.206 C 
BRANCH  18  19
HETATM   19  O           1       0.274  -1.922   1.942  0.00  0.00    -0.398 OA
HETATM   20  H           1       0.324  -2.637   2.553  0.00  0.00     0.209 HD
ENDBRANCH  18  19
ENDBRANCH  17  18
BRANCH  17  21
HETATM   21  N           1      -1.047   0.403   0.979  0.00  0.00    -0.064 N 
HETATM   22  H           1      -1.858   0.421   1.638  0.00  0.00     0.275 HD
HETATM   23  H           1      -1.101   1.227   0.338  0.00  0.00     0.275 HD
HETATM   24  H           1      -1.074  -0.478   0.418  0.00  0.00     0.275 HD
ENDBRANCH  17  21
ENDBRANCH  15  17
ENDBRANCH   1  13
TORSDOF 8
