REMARK  8 active torsions:
REMARK  status: ('A' for Active; 'I' for Inactive)
REMARK    1  A    between atoms: O_3  and  C_20 
REMARK    2  A    between atoms: C_5  and  C_14 
REMARK    3  A    between atoms: C_5  and  C_7 
REMARK    4  A    between atoms: C_7  and  C_11 
REMARK    5  A    between atoms: C_7  and  N_15 
REMARK       I    between atoms: C_13  and  N_15 
REMARK    6  A    between atoms: C_13  and  C_17 
REMARK    7  A    between atoms: N_16  and  C_17 
REMARK    8  A    between atoms: C_17  and  C_20 
ROOT
HETATM    1  H           1       0.218  -0.954   0.159  0.00  0.00     0.163 HD
HETATM    2  O           1      -0.036   1.557  -1.704  0.00  0.00    -0.271 OA
HETATM    3  C           1      -0.207   0.422  -1.327  0.00  0.00     0.251 C 
HETATM    4  N           1       0.361  -0.003  -0.156  0.00  0.00    -0.344 N 
ENDROOT
BRANCH   3   5
HETATM    5  C           1      -1.045  -0.527  -2.148  0.00  0.00     0.297 C 
BRANCH   5   6
HETATM    6  N           1      -2.211  -0.998  -1.330  0.00  0.00    -0.064 N 
HETATM    7  H           1      -2.792  -1.655  -1.897  0.00  0.00     0.275 HD
HETATM    8  H           1      -1.862  -1.490  -0.477  0.00  0.00     0.275 HD
HETATM    9  H           1      -2.791  -0.177  -1.046  0.00  0.00     0.275 HD
ENDBRANCH   5   6
BRANCH   5  10
HETATM   10  C           1      -1.554   0.189  -3.391  0.00  0.00     0.206 C 
BRANCH  10  11
HETATM   11  O           1      -2.334   1.290  -3.011  0.00  0.00    -0.398 OA
HETATM   12  H           1      -2.628   1.705  -3.804  0.00  0.00     0.209 HD
ENDBRANCH  10  11
ENDBRANCH   5  10
ENDBRANCH   3   5
BRANCH   4  13
HETATM   13  C           1       1.166   0.909   0.632  0.00  0.00     0.189 C 
BRANCH  13  14
HETATM   14  C           1       1.675   0.191   1.875  0.00  0.00     0.014 C 
HETATM   15  C           1       1.168   0.910   3.119  0.00  0.00     0.012 C 
BRANCH  14  16
HETATM   16  C           1       1.166  -1.245   1.875  0.00  0.00     0.002 C 
HETATM   17  C           1      -0.357  -1.245   1.875  0.00  0.00     0.005 C 
ENDBRANCH  14  16
ENDBRANCH  13  14
BRANCH  13  18
HETATM   18  C           1       2.339   1.383  -0.191  0.00  0.00     0.197 C 
HETATM   19  O           1       3.506   1.158   0.197  0.00  0.00    -0.646 OA
HETATM   20  O           1       2.144   2.000  -1.260  0.00  0.00    -0.646 OA
ENDBRANCH  13  18
ENDBRANCH   4  13
TORSDOF 8
