REMARK  9 active torsions:
REMARK  status: ('A' for Active; 'I' for Inactive)
REMARK    1  A    between atoms: C_1  and  C_3 
REMARK    2  A    between atoms: C_3  and  C_9 
REMARK    3  A    between atoms: C_3  and  N_15 
REMARK    4  A    between atoms: S_7  and  C_8 
REMARK    5  A    between atoms: C_8  and  C_9 
REMARK    6  A    between atoms: O_11  and  C_16 
REMARK    7  A    between atoms: N_12  and  C_17 
REMARK       I    between atoms: N_15  and  C_18 
REMARK    8  A    between atoms: C_16  and  C_17 
REMARK    9  A    between atoms: C_17  and  C_18 
ROOT
HETATM    1  H           1      -1.114  -0.244  -0.383  0.00  0.00     0.163 HD
HETATM    2  N           1      -0.124  -0.381  -0.224  0.00  0.00    -0.345 N 
HETATM    3  C           1       0.623  -1.091  -1.126  0.00  0.00     0.251 C 
HETATM    4  O           1       1.805  -1.254  -0.936  0.00  0.00    -0.271 OA
ENDROOT
BRANCH   2   5
HETATM    5  C           1       0.504   0.175   0.959  0.00  0.00     0.186 C 
BRANCH   5   6
HETATM    6  C           1       1.105  -0.939   1.780  0.00  0.00     0.196 C 
HETATM    7  O           1       1.988  -1.673   1.286  0.00  0.00    -0.646 OA
HETATM    8  O           1       0.719  -1.129   2.953  0.00  0.00    -0.646 OA
ENDBRANCH   5   6
BRANCH   5   9
HETATM    9  C           1      -0.540   0.912   1.788  0.00  0.00     0.046 C 
BRANCH   9  10
HETATM   10  C           1       0.117   1.496   3.031  0.00  0.00     0.076 C 
BRANCH  10  11
HETATM   11  S           1      -0.082   3.300   3.031  0.00  0.00    -0.173 SA
HETATM   12  C           1      -1.897   3.300   3.031  0.00  0.00     0.089 C 
ENDBRANCH  10  11
ENDBRANCH   9  10
ENDBRANCH   5   9
ENDBRANCH   2   5
BRANCH   3  13
HETATM   13  C           1      -0.030  -1.670  -2.357  0.00  0.00     0.297 C 
BRANCH  13  14
HETATM   14  N           1      -0.627  -0.562  -3.173  0.00  0.00    -0.064 N 
HETATM   15  H           1       0.126   0.105  -3.458  0.00  0.00     0.275 HD
HETATM   16  H           1      -1.343  -0.057  -2.604  0.00  0.00     0.275 HD
HETATM   17  H           1      -1.080  -0.962  -4.026  0.00  0.00     0.275 HD
ENDBRANCH  13  14
BRANCH  13  18
HETATM   18  C           1       1.013  -2.406  -3.187  0.00  0.00     0.206 C 
BRANCH  18  19
HETATM   19  O           1       2.022  -1.512  -3.571  0.00  0.00    -0.398 OA
HETATM   20  H           1       2.644  -2.003  -4.080  0.00  0.00     0.209 HD
ENDBRANCH  18  19
ENDBRANCH  13  18
ENDBRANCH   3  13
TORSDOF 9
