REMARK  9 active torsions:
REMARK  status: ('A' for Active; 'I' for Inactive)
REMARK       I    between atoms: C_2  and  N_15 
REMARK    1  A    between atoms: C_2  and  C_8 
REMARK    2  A    between atoms: C_8  and  C_12 
REMARK    3  A    between atoms: C_8  and  N_10 
REMARK    4  A    between atoms: O_11  and  C_12 
REMARK    5  A    between atoms: C_13  and  C_21 
REMARK    6  A    between atoms: C_13  and  C_18 
REMARK    7  A    between atoms: N_15  and  C_19 
REMARK    8  A    between atoms: C_18  and  C_19 
REMARK    9  A    between atoms: C_19  and  C_20 
ROOT
HETATM    1  C           1      -0.749   0.598   0.741  0.00  0.00     0.251 C 
HETATM    2  H           1       0.152   1.130  -1.044  0.00  0.00     0.163 HD
HETATM    3  O           1      -0.756  -0.201   1.648  0.00  0.00    -0.271 OA
HETATM    4  N           1       0.146   0.461  -0.285  0.00  0.00    -0.345 N 
ENDROOT
BRANCH   4   5
HETATM    5  C           1       1.087  -0.642  -0.284  0.00  0.00     0.186 C 
BRANCH   5   6
HETATM    6  C           1       1.963  -0.563  -1.527  0.00  0.00     0.046 C 
BRANCH   6   7
HETATM    7  C           1       2.952  -1.721  -1.527  0.00  0.00     0.116 C 
BRANCH   7   8
HETATM    8  C           1       2.198  -3.028  -1.527  0.00  0.00     0.172 C 
HETATM    9  O           1       0.948  -3.028  -1.527  0.00  0.00    -0.648 OA
HETATM   10  O           1       2.823  -4.110  -1.527  0.00  0.00    -0.648 OA
ENDBRANCH   7   8
ENDBRANCH   6   7
ENDBRANCH   5   6
BRANCH   5  11
HETATM   11  C           1       1.954  -0.563   0.949  0.00  0.00     0.196 C 
HETATM   12  O           1       3.193  -0.450   0.835  0.00  0.00    -0.646 OA
HETATM   13  O           1       1.432  -0.610   2.084  0.00  0.00    -0.646 OA
ENDBRANCH   5  11
ENDBRANCH   4   5
BRANCH   1  14
HETATM   14  C           1      -1.728   1.746   0.740  0.00  0.00     0.297 C 
BRANCH  14  15
HETATM   15  C           1      -2.605   1.668   1.983  0.00  0.00     0.206 C 
BRANCH  15  16
HETATM   16  O           1      -3.308   0.455   1.984  0.00  0.00    -0.398 OA
HETATM   17  H           1      -3.836   0.445   2.764  0.00  0.00     0.209 HD
ENDBRANCH  15  16
ENDBRANCH  14  15
BRANCH  14  18
HETATM   18  N           1      -2.590   1.667  -0.485  0.00  0.00    -0.064 N 
HETATM   19  H           1      -3.268   2.462  -0.486  0.00  0.00     0.275 HD
HETATM   20  H           1      -1.989   1.721  -1.337  0.00  0.00     0.275 HD
HETATM   21  H           1      -3.114   0.762  -0.484  0.00  0.00     0.275 HD
ENDBRANCH  14  18
ENDBRANCH   1  14
TORSDOF 9
