REMARK  10 active torsions:
REMARK  status: ('A' for Active; 'I' for Inactive)
REMARK    1  A    between atoms: O_1  and  C_15 
REMARK    2  A    between atoms: C_7  and  C_12 
REMARK    3  A    between atoms: C_7  and  C_8 
REMARK    4  A    between atoms: C_8  and  C_24 
REMARK    5  A    between atoms: C_8  and  N_10 
REMARK       I    between atoms: C_9  and  N_10 
REMARK    6  A    between atoms: C_9  and  C_14 
REMARK    7  A    between atoms: C_12  and  C_20 
REMARK    8  A    between atoms: C_14  and  C_15 
REMARK    9  A    between atoms: C_14  and  N_19 
REMARK       I    between atoms: N_18  and  C_25 
REMARK   10  A    between atoms: C_20  and  N_28 
REMARK       I    between atoms: N_23  and  C_25 
ROOT
HETATM    1  C           1       1.509   0.718   0.192  0.00  0.00     0.185 C 
ENDROOT
BRANCH   1   2
HETATM    2  C           1       2.355  -0.479   0.607  0.00  0.00     0.038 C 
BRANCH   2   3
HETATM    3  C           1       1.508  -1.436   1.436  0.00  0.00     0.023 C 
BRANCH   3   4
HETATM    4  C           1       1.000  -0.718   2.680  0.00  0.00     0.138 C 
BRANCH   4   5
HETATM    5  N           1      -0.470  -0.718   2.680  0.00  0.00    -0.227 N 
HETATM    6  H           1      -0.995   0.191   2.680  0.00  0.00     0.177 HD
HETATM    7  C           1      -1.103  -1.814   2.680  0.00  0.00     0.665 C 
HETATM    8  N           1      -0.470  -2.911   2.680  0.00  0.00    -0.235 N 
HETATM    9  N           1      -2.403  -1.814   2.680  0.00  0.00    -0.235 N 
HETATM   10  H           1      -0.995  -3.820   2.680  0.00  0.00     0.174 HD
HETATM   11  H           1       0.580  -2.911   2.680  0.00  0.00     0.174 HD
HETATM   12  H           1      -2.925  -2.719   2.680  0.00  0.00     0.174 HD
HETATM   13  H           1      -2.925  -0.909   2.680  0.00  0.00     0.174 HD
ENDBRANCH   4   5
ENDBRANCH   3   4
ENDBRANCH   2   3
ENDBRANCH   1   2
BRANCH   1  14
HETATM   14  C           1       2.392   1.934   0.054  0.00  0.00     0.196 C 
HETATM   15  O           1       3.618   1.845   0.276  0.00  0.00    -0.646 OA
HETATM   16  O           1       1.895   3.031  -0.281  0.00  0.00    -0.646 OA
ENDBRANCH   1  14
BRANCH   1  17
HETATM   17  N           1       0.870   0.439  -1.080  0.00  0.00    -0.345 N 
HETATM   18  C           1       0.055   1.376  -1.656  0.00  0.00     0.251 C 
HETATM   19  O           1      -0.132   2.435  -1.106  0.00  0.00    -0.271 OA
HETATM   20  H           1       1.027  -0.448  -1.541  0.00  0.00     0.163 HD
BRANCH  18  21
HETATM   21  C           1      -0.610   1.086  -2.979  0.00  0.00     0.297 C 
BRANCH  21  22
HETATM   22  C           1      -1.456   2.282  -3.396  0.00  0.00     0.206 C 
BRANCH  22  23
HETATM   23  O           1      -2.436   2.523  -2.424  0.00  0.00    -0.398 OA
HETATM   24  H           1      -2.936   3.266  -2.717  0.00  0.00     0.209 HD
ENDBRANCH  22  23
ENDBRANCH  21  22
BRANCH  21  25
HETATM   25  N           1      -1.487  -0.123  -2.843  0.00  0.00    -0.064 N 
HETATM   26  H           1      -1.948  -0.325  -3.758  0.00  0.00     0.275 HD
HETATM   27  H           1      -0.907  -0.944  -2.557  0.00  0.00     0.275 HD
HETATM   28  H           1      -2.218   0.057  -2.117  0.00  0.00     0.275 HD
ENDBRANCH  21  25
ENDBRANCH  18  21
ENDBRANCH   1  17
TORSDOF 10
