REMARK  8 active torsions:
REMARK  status: ('A' for Active; 'I' for Inactive)
REMARK    1  A    between atoms: C_1  and  C_3 
REMARK    2  A    between atoms: C_1  and  C_15 
REMARK    3  A    between atoms: C_1  and  N_7 
REMARK    4  A    between atoms: C_2  and  C_14 
REMARK    5  A    between atoms: C_2  and  C_16 
REMARK    6  A    between atoms: C_2  and  N_4 
REMARK       I    between atoms: C_3  and  N_4 
REMARK    7  A    between atoms: C_6  and  C_14 
REMARK    8  A    between atoms: C_15  and  O_20 
ROOT
HETATM    1  C           1       1.095  -1.423   0.457  0.00  0.00     0.251 C 
HETATM    2  N           1       0.307  -0.310   0.580  0.00  0.00    -0.345 N 
HETATM    3  H           1       0.063   0.038   1.499  0.00  0.00     0.163 HD
HETATM    4  O           1       1.387  -1.838  -0.639  0.00  0.00    -0.271 OA
ENDROOT
BRANCH   1   5
HETATM    5  C           1       1.597  -2.132   1.691  0.00  0.00     0.297 C 
BRANCH   5   6
HETATM    6  C           1       2.443  -3.330   1.279  0.00  0.00     0.206 C 
BRANCH   6   7
HETATM    7  O           1       1.665  -4.213   0.518  0.00  0.00    -0.398 OA
HETATM    8  H           1       2.222  -4.937   0.284  0.00  0.00     0.209 HD
ENDBRANCH   6   7
ENDBRANCH   5   6
BRANCH   5   9
HETATM    9  N           1       0.429  -2.603   2.506  0.00  0.00    -0.064 N 
HETATM   10  H           1       0.776  -3.094   3.361  0.00  0.00     0.275 HD
HETATM   11  H           1      -0.151  -1.781   2.789  0.00  0.00     0.275 HD
HETATM   12  H           1      -0.150  -3.261   1.938  0.00  0.00     0.275 HD
ENDBRANCH   5   9
ENDBRANCH   1   5
BRANCH   2  13
HETATM   13  C           1      -0.175   0.372  -0.605  0.00  0.00     0.185 C 
BRANCH  13  14
HETATM   14  C           1      -1.021   1.569  -0.193  0.00  0.00     0.040 C 
BRANCH  14  15
HETATM   15  C           1      -1.528   2.286  -1.437  0.00  0.00    -0.020 C 
HETATM   16  C           1      -1.020   3.722  -1.437  0.00  0.00     0.009 C 
HETATM   17  C           1      -3.051   2.286  -1.437  0.00  0.00     0.009 C 
ENDBRANCH  14  15
ENDBRANCH  13  14
BRANCH  13  18
HETATM   18  C           1       0.999   0.844  -1.426  0.00  0.00     0.196 C 
HETATM   19  O           1       1.826   0.017  -1.869  0.00  0.00    -0.646 OA
HETATM   20  O           1       1.146   2.062  -1.664  0.00  0.00    -0.646 OA
ENDBRANCH  13  18
ENDBRANCH   2  13
TORSDOF 8
