REMARK  7 active torsions:
REMARK  status: ('A' for Active; 'I' for Inactive)
REMARK    1  A    between atoms: O_5  and  C_6 
REMARK    2  A    between atoms: C_6  and  C_19 
REMARK    3  A    between atoms: C_7  and  C_8 
REMARK    4  A    between atoms: C_8  and  C_10 
REMARK    5  A    between atoms: C_8  and  N_17 
REMARK    6  A    between atoms: N_11  and  C_19 
REMARK       I    between atoms: N_17  and  C_18 
REMARK    7  A    between atoms: C_18  and  C_19 
ROOT
HETATM    1  O           1       0.521  -1.573   1.272  0.00  0.00    -0.271 OA
HETATM    2  H           1       0.270   0.937  -0.593  0.00  0.00     0.163 HD
HETATM    3  N           1       0.126  -0.014  -0.277  0.00  0.00    -0.344 N 
HETATM    4  C           1       0.692  -0.439   0.895  0.00  0.00     0.251 C 
ENDROOT
BRANCH   4   5
HETATM    5  C           1       1.531   0.510   1.715  0.00  0.00     0.297 C 
BRANCH   5   6
HETATM    6  C           1       2.039  -0.206   2.960  0.00  0.00     0.206 C 
BRANCH   6   7
HETATM    7  O           1       0.949  -0.645   3.724  0.00  0.00    -0.398 OA
HETATM    8  H           1       1.303  -1.080   4.481  0.00  0.00     0.209 HD
ENDBRANCH   6   7
ENDBRANCH   5   6
BRANCH   5   9
HETATM    9  N           1       0.698   1.689   2.122  0.00  0.00    -0.064 N 
HETATM   10  H           1       1.278   2.347   2.690  0.00  0.00     0.275 HD
HETATM   11  H           1       0.350   2.181   1.268  0.00  0.00     0.275 HD
HETATM   12  H           1      -0.115   1.361   2.692  0.00  0.00     0.275 HD
ENDBRANCH   5   9
ENDBRANCH   4   5
BRANCH   3  13
HETATM   13  C           1      -0.680  -0.926  -1.065  0.00  0.00     0.189 C 
BRANCH  13  14
HETATM   14  C           1       0.158  -2.112  -1.474  0.00  0.00     0.197 C 
HETATM   15  O           1       0.675  -2.843  -0.601  0.00  0.00    -0.646 OA
HETATM   16  O           1       0.336  -2.364  -2.685  0.00  0.00    -0.646 OA
ENDBRANCH  13  14
BRANCH  13  17
HETATM   17  C           1      -1.187  -0.209  -2.309  0.00  0.00     0.010 C 
HETATM   18  C           1      -0.678   1.227  -2.309  0.00  0.00     0.012 C 
HETATM   19  C           1      -2.710  -0.209  -2.309  0.00  0.00     0.012 C 
ENDBRANCH  13  17
ENDBRANCH   3  13
TORSDOF 7
