REMARK  9 active torsions:
REMARK  status: ('A' for Active; 'I' for Inactive)
REMARK    1  A    between atoms: C_2  and  C_19 
REMARK    2  A    between atoms: N_5  and  C_7 
REMARK       I    between atoms: N_5  and  C_15 
REMARK    3  A    between atoms: O_6  and  C_12 
REMARK    4  A    between atoms: C_7  and  C_14 
REMARK    5  A    between atoms: C_7  and  C_18 
REMARK    6  A    between atoms: N_11  and  C_13 
REMARK    7  A    between atoms: C_12  and  C_13 
REMARK    8  A    between atoms: C_13  and  C_15 
REMARK    9  A    between atoms: C_14  and  C_19 
ROOT
HETATM    1  N           1       0.514   0.160  -0.471  0.00  0.00    -0.345 N 
HETATM    2  O           1      -0.388  -0.502   1.462  0.00  0.00    -0.271 OA
HETATM    3  C           1      -0.382   0.297   0.556  0.00  0.00     0.251 C 
HETATM    4  H           1       0.520   0.829  -1.230  0.00  0.00     0.163 HD
ENDROOT
BRANCH   1   5
HETATM    5  C           1       1.455  -0.944  -0.470  0.00  0.00     0.186 C 
BRANCH   5   6
HETATM    6  C           1       2.331  -0.864  -1.713  0.00  0.00     0.046 C 
BRANCH   6   7
HETATM    7  C           1       3.320  -2.022  -1.713  0.00  0.00     0.116 C 
BRANCH   7   8
HETATM    8  C           1       2.565  -3.329  -1.713  0.00  0.00     0.172 C 
HETATM    9  O           1       1.315  -3.329  -1.713  0.00  0.00    -0.648 OA
HETATM   10  O           1       3.190  -4.412  -1.713  0.00  0.00    -0.648 OA
ENDBRANCH   7   8
ENDBRANCH   6   7
ENDBRANCH   5   6
BRANCH   5  11
HETATM   11  C           1       2.321  -0.864   0.763  0.00  0.00     0.196 C 
HETATM   12  O           1       3.561  -0.751   0.649  0.00  0.00    -0.646 OA
HETATM   13  O           1       1.800  -0.911   1.898  0.00  0.00    -0.646 OA
ENDBRANCH   5  11
ENDBRANCH   1   5
BRANCH   3  14
HETATM   14  C           1      -1.360   1.445   0.555  0.00  0.00     0.302 C 
BRANCH  14  15
HETATM   15  N           1      -2.222   1.365  -0.670  0.00  0.00    -0.064 N 
HETATM   16  H           1      -2.901   2.160  -0.672  0.00  0.00     0.275 HD
HETATM   17  H           1      -1.621   1.420  -1.523  0.00  0.00     0.275 HD
HETATM   18  H           1      -2.746   0.461  -0.669  0.00  0.00     0.275 HD
ENDBRANCH  14  15
BRANCH  14  19
HETATM   19  C           1      -2.237   1.367   1.798  0.00  0.00     0.153 C 
HETATM   20  C           1      -3.225   2.526   1.795  0.00  0.00     0.042 C 
BRANCH  19  21
HETATM   21  O           1      -2.941   0.154   1.798  0.00  0.00    -0.393 OA
HETATM   22  H           1      -3.468   0.144   2.579  0.00  0.00     0.210 HD
ENDBRANCH  19  21
ENDBRANCH  14  19
ENDBRANCH   3  14
TORSDOF 9
