REMARK  9 active torsions:
REMARK  status: ('A' for Active; 'I' for Inactive)
REMARK    1  A    between atoms: C_1  and  C_16 
REMARK    2  A    between atoms: C_1  and  O_13 
REMARK    3  A    between atoms: C_2  and  C_4 
REMARK    4  A    between atoms: C_4  and  C_21 
REMARK    5  A    between atoms: C_4  and  N_11 
REMARK       I    between atoms: C_7  and  N_11 
REMARK    6  A    between atoms: C_7  and  C_16 
REMARK       I    between atoms: C_12  and  N_17 
REMARK    7  A    between atoms: C_12  and  C_20 
REMARK    8  A    between atoms: C_16  and  N_19 
REMARK    9  A    between atoms: C_20  and  C_21 
ROOT
HETATM    1  H           1       0.311   1.123  -1.129  0.00  0.00     0.163 HD
HETATM    2  C           1      -0.591   0.591   0.656  0.00  0.00     0.251 C 
HETATM    3  N           1       0.305   0.454  -0.370  0.00  0.00    -0.345 N 
HETATM    4  O           1      -0.597  -0.208   1.563  0.00  0.00    -0.271 OA
ENDROOT
BRANCH   3   5
HETATM    5  C           1       1.246  -0.649  -0.369  0.00  0.00     0.186 C 
BRANCH   5   6
HETATM    6  C           1       2.112  -0.570   0.864  0.00  0.00     0.196 C 
HETATM    7  O           1       1.591  -0.617   1.999  0.00  0.00    -0.646 OA
HETATM    8  O           1       3.352  -0.456   0.750  0.00  0.00    -0.646 OA
ENDBRANCH   5   6
BRANCH   5   9
HETATM    9  C           1       2.122  -0.570  -1.612  0.00  0.00     0.045 C 
BRANCH   9  10
HETATM   10  C           1       3.111  -1.728  -1.612  0.00  0.00     0.105 C 
BRANCH  10  11
HETATM   11  C           1       2.356  -3.035  -1.612  0.00  0.00     0.215 C 
HETATM   12  O           1       1.148  -3.035  -1.612  0.00  0.00    -0.274 OA
HETATM   13  N           1       3.041  -4.220  -1.612  0.00  0.00    -0.370 N 
HETATM   14  H           1       2.535  -5.097  -1.612  0.00  0.00     0.159 HD
HETATM   15  H           1       4.053  -4.220  -1.612  0.00  0.00     0.159 HD
ENDBRANCH  10  11
ENDBRANCH   9  10
ENDBRANCH   5   9
ENDBRANCH   3   5
BRANCH   2  16
HETATM   16  C           1      -1.569   1.739   0.656  0.00  0.00     0.302 C 
BRANCH  16  17
HETATM   17  C           1      -2.446   1.661   1.898  0.00  0.00     0.153 C 
HETATM   18  C           1      -3.434   2.820   1.896  0.00  0.00     0.042 C 
BRANCH  17  19
HETATM   19  O           1      -3.150   0.448   1.899  0.00  0.00    -0.393 OA
HETATM   20  H           1      -3.677   0.438   2.680  0.00  0.00     0.210 HD
ENDBRANCH  17  19
ENDBRANCH  16  17
BRANCH  16  21
HETATM   21  N           1      -2.431   1.660  -0.569  0.00  0.00    -0.064 N 
HETATM   22  H           1      -2.955   0.755  -0.568  0.00  0.00     0.275 HD
HETATM   23  H           1      -3.110   2.455  -0.571  0.00  0.00     0.275 HD
HETATM   24  H           1      -1.830   1.714  -1.422  0.00  0.00     0.275 HD
ENDBRANCH  16  21
ENDBRANCH   2  16
TORSDOF 9
