REMARK  8 active torsions:
REMARK  status: ('A' for Active; 'I' for Inactive)
REMARK    1  A    between atoms: C_2  and  C_17 
REMARK    2  A    between atoms: C_2  and  C_16 
REMARK    3  A    between atoms: C_2  and  N_9 
REMARK    4  A    between atoms: C_5  and  C_6 
REMARK    5  A    between atoms: C_5  and  C_14 
REMARK    6  A    between atoms: C_5  and  N_19 
REMARK    7  A    between atoms: C_6  and  O_7 
REMARK    8  A    between atoms: O_11  and  C_16 
REMARK       I    between atoms: C_17  and  N_19 
ROOT
HETATM    1  O           1      -0.751   1.389   0.084  0.00  0.00    -0.271 OA
HETATM    2  C           1      -0.149   0.342   0.085  0.00  0.00     0.251 C 
HETATM    3  N           1      -0.834  -0.843   0.085  0.00  0.00    -0.343 N 
HETATM    4  H           1      -0.329  -1.720   0.085  0.00  0.00     0.163 HD
ENDROOT
BRANCH   2   5
HETATM    5  C           1       1.360   0.341   0.086  0.00  0.00     0.302 C 
BRANCH   5   6
HETATM    6  C           1       1.870   1.776   0.086  0.00  0.00     0.153 C 
HETATM    7  C           1       3.393   1.773   0.086  0.00  0.00     0.042 C 
BRANCH   6   8
HETATM    8  O           1       1.405   2.438  -1.059  0.00  0.00    -0.393 OA
HETATM    9  H           1       1.740   3.317  -1.022  0.00  0.00     0.210 HD
ENDBRANCH   6   8
ENDBRANCH   5   6
BRANCH   5  10
HETATM   10  N           1       1.860  -0.366  -1.139  0.00  0.00    -0.064 N 
HETATM   11  H           1       1.512   0.127  -1.992  0.00  0.00     0.275 HD
HETATM   12  H           1       2.905  -0.368  -1.139  0.00  0.00     0.275 HD
HETATM   13  H           1       1.510  -1.351  -1.139  0.00  0.00     0.275 HD
ENDBRANCH   5  10
ENDBRANCH   2   5
BRANCH   3  14
HETATM   14  C           1      -2.284  -0.841   0.084  0.00  0.00     0.209 C 
BRANCH  14  15
HETATM   15  C           1      -2.793  -2.277   0.084  0.00  0.00     0.200 C 
BRANCH  15  16
HETATM   16  O           1      -4.195  -2.277   0.084  0.00  0.00    -0.398 OA
HETATM   17  H           1      -4.468  -3.178   0.084  0.00  0.00     0.209 HD
ENDBRANCH  15  16
ENDBRANCH  14  15
BRANCH  14  18
HETATM   18  C           1      -2.787  -0.129   1.316  0.00  0.00     0.198 C 
HETATM   19  O           1      -3.506  -0.736   2.139  0.00  0.00    -0.646 OA
HETATM   20  O           1      -2.484   1.068   1.513  0.00  0.00    -0.646 OA
ENDBRANCH  14  18
ENDBRANCH   3  14
TORSDOF 8
