REMARK  10 active torsions:
REMARK  status: ('A' for Active; 'I' for Inactive)
REMARK    1  A    between atoms: C_3  and  C_29 
REMARK    2  A    between atoms: C_3  and  C_5 
REMARK    3  A    between atoms: C_5  and  C_6 
REMARK    4  A    between atoms: C_5  and  N_15 
REMARK    5  A    between atoms: C_11  and  C_12 
REMARK    6  A    between atoms: C_11  and  O_23 
REMARK    7  A    between atoms: C_12  and  C_14 
REMARK    8  A    between atoms: C_12  and  N_20 
REMARK       I    between atoms: C_14  and  N_15 
REMARK       I    between atoms: N_21  and  C_26 
REMARK    9  A    between atoms: N_21  and  C_22 
REMARK   10  A    between atoms: C_22  and  C_29 
REMARK       I    between atoms: N_25  and  C_26 
ROOT
HETATM    1  C           1       1.681   0.580   0.570  0.00  0.00     0.185 C 
ENDROOT
BRANCH   1   2
HETATM    2  C           1       2.527  -0.617   0.986  0.00  0.00     0.038 C 
BRANCH   2   3
HETATM    3  C           1       1.680  -1.574   1.815  0.00  0.00     0.023 C 
BRANCH   3   4
HETATM    4  C           1       1.172  -0.856   3.058  0.00  0.00     0.138 C 
BRANCH   4   5
HETATM    5  N           1      -0.298  -0.856   3.058  0.00  0.00    -0.227 N 
HETATM    6  H           1      -0.823   0.053   3.058  0.00  0.00     0.177 HD
HETATM    7  C           1      -0.931  -1.953   3.058  0.00  0.00     0.665 C 
HETATM    8  N           1      -0.298  -3.049   3.058  0.00  0.00    -0.235 N 
HETATM    9  N           1      -2.231  -1.953   3.058  0.00  0.00    -0.235 N 
HETATM   10  H           1       0.752  -3.049   3.058  0.00  0.00     0.174 HD
HETATM   11  H           1      -0.823  -3.958   3.058  0.00  0.00     0.174 HD
HETATM   12  H           1      -2.753  -2.858   3.058  0.00  0.00     0.174 HD
HETATM   13  H           1      -2.753  -1.048   3.058  0.00  0.00     0.174 HD
ENDBRANCH   4   5
ENDBRANCH   3   4
ENDBRANCH   2   3
ENDBRANCH   1   2
BRANCH   1  14
HETATM   14  C           1       2.564   1.796   0.433  0.00  0.00     0.196 C 
HETATM   15  O           1       2.067   2.893   0.098  0.00  0.00    -0.646 OA
HETATM   16  O           1       3.790   1.707   0.655  0.00  0.00    -0.646 OA
ENDBRANCH   1  14
BRANCH   1  17
HETATM   17  N           1       1.042   0.301  -0.701  0.00  0.00    -0.345 N 
HETATM   18  C           1       0.227   1.238  -1.277  0.00  0.00     0.251 C 
HETATM   19  O           1       0.040   2.296  -0.727  0.00  0.00    -0.271 OA
HETATM   20  H           1       1.199  -0.586  -1.162  0.00  0.00     0.163 HD
BRANCH  18  21
HETATM   21  C           1      -0.438   0.947  -2.601  0.00  0.00     0.302 C 
BRANCH  21  22
HETATM   22  C           1      -1.284   2.143  -3.017  0.00  0.00     0.153 C 
HETATM   23  C           1      -1.955   1.849  -4.352  0.00  0.00     0.042 C 
BRANCH  22  24
HETATM   24  O           1      -2.264   2.385  -2.045  0.00  0.00    -0.393 OA
HETATM   25  H           1      -2.764   3.128  -2.338  0.00  0.00     0.210 HD
ENDBRANCH  22  24
ENDBRANCH  21  22
BRANCH  21  26
HETATM   26  N           1      -1.315  -0.261  -2.464  0.00  0.00    -0.064 N 
HETATM   27  H           1      -0.735  -1.082  -2.178  0.00  0.00     0.275 HD
HETATM   28  H           1      -2.046  -0.081  -1.739  0.00  0.00     0.275 HD
HETATM   29  H           1      -1.776  -0.463  -3.380  0.00  0.00     0.275 HD
ENDBRANCH  21  26
ENDBRANCH  18  21
ENDBRANCH   1  17
TORSDOF 10
