REMARK  6 active torsions:
REMARK  status: ('A' for Active; 'I' for Inactive)
REMARK    1  A    between atoms: N_1  and  C_2 
REMARK       I    between atoms: N_1  and  C_6 
REMARK    2  A    between atoms: C_2  and  C_3 
REMARK    3  A    between atoms: C_6  and  C_11 
REMARK    4  A    between atoms: N_7  and  C_11 
REMARK    5  A    between atoms: C_9  and  C_11 
REMARK    6  A    between atoms: C_9  and  O_14 
ROOT
HETATM    1  N           1      -1.243   0.392  -0.503  0.00  0.00    -0.345 N 
HETATM    2  O           1       0.889   0.725  -1.081  0.00  0.00    -0.271 OA
HETATM    3  C           1       0.103   0.267  -0.286  0.00  0.00     0.251 C 
HETATM    4  H           1      -1.901   0.008   0.163  0.00  0.00     0.163 HD
ENDROOT
BRANCH   3   5
HETATM    5  C           1       0.606  -0.444   0.947  0.00  0.00     0.302 C 
BRANCH   5   6
HETATM    6  N           1       0.106  -1.858   0.946  0.00  0.00    -0.064 N 
HETATM    7  H           1       0.453  -2.351   1.800  0.00  0.00     0.275 HD
HETATM    8  H           1      -0.939  -1.858   0.946  0.00  0.00     0.275 HD
HETATM    9  H           1       0.455  -2.351   0.093  0.00  0.00     0.275 HD
ENDBRANCH   5   6
BRANCH   5  10
HETATM   10  C           1       2.129  -0.445   0.948  0.00  0.00     0.153 C 
HETATM   11  C           1       2.634  -1.163   2.192  0.00  0.00     0.042 C 
BRANCH  10  12
HETATM   12  O           1       2.597  -1.106  -0.196  0.00  0.00    -0.393 OA
HETATM   13  H           1       3.538  -1.085  -0.158  0.00  0.00     0.210 HD
ENDBRANCH  10  12
ENDBRANCH   5  10
ENDBRANCH   3   5
BRANCH   1  14
HETATM   14  C           1      -1.725   1.075  -1.688  0.00  0.00     0.181 C 
HETATM   15  C           1      -3.248   1.075  -1.688  0.00  0.00     0.043 C 
BRANCH  14  16
HETATM   16  C           1      -1.221   2.497  -1.688  0.00  0.00     0.196 C 
HETATM   17  O           1       0.008   2.725  -1.688  0.00  0.00    -0.646 OA
HETATM   18  O           1      -2.033   3.448  -1.688  0.00  0.00    -0.646 OA
ENDBRANCH  14  16
ENDBRANCH   1  14
TORSDOF 6
