REMARK  11 active torsions:
REMARK  status: ('A' for Active; 'I' for Inactive)
REMARK    1  A    between atoms: C_2  and  C_4 
REMARK    2  A    between atoms: C_2  and  C_25 
REMARK    3  A    between atoms: N_3  and  C_11 
REMARK    4  A    between atoms: C_4  and  C_5 
REMARK    5  A    between atoms: C_5  and  C_11 
REMARK    6  A    between atoms: N_6  and  C_25 
REMARK       I    between atoms: N_6  and  C_9 
REMARK    7  A    between atoms: C_9  and  C_16 
REMARK    8  A    between atoms: O_13  and  C_23 
REMARK    9  A    between atoms: C_16  and  C_23 
REMARK   10  A    between atoms: C_16  and  N_18 
REMARK   11  A    between atoms: C_17  and  C_25 
ROOT
HETATM    1  N           1      -0.298   0.219   0.258  0.00  0.00    -0.345 N 
HETATM    2  H           1      -0.804  -0.658   0.258  0.00  0.00     0.163 HD
HETATM    3  C           1      -0.982   1.404   0.258  0.00  0.00     0.251 C 
HETATM    4  O           1      -0.378   2.451   0.258  0.00  0.00    -0.271 OA
ENDROOT
BRANCH   1   5
HETATM    5  C           1       1.152   0.219   0.258  0.00  0.00     0.185 C 
BRANCH   5   6
HETATM    6  C           1       1.659  -1.217   0.258  0.00  0.00     0.036 C 
BRANCH   6   7
HETATM    7  C           1       3.182  -1.219   0.257  0.00  0.00     0.004 C 
BRANCH   7   8
HETATM    8  C           1       3.689  -1.938  -0.986  0.00  0.00     0.027 C 
BRANCH   8   9
HETATM    9  C           1       3.181  -3.373  -0.986  0.00  0.00     0.229 C 
BRANCH   9  10
HETATM   10  N           1       1.681  -3.373  -0.986  0.00  0.00    -0.079 N 
HETATM   11  H           1       1.333  -2.881  -0.132  0.00  0.00     0.274 HD
HETATM   12  H           1       1.332  -4.358  -0.986  0.00  0.00     0.274 HD
HETATM   13  H           1       1.333  -2.881  -1.839  0.00  0.00     0.274 HD
ENDBRANCH   9  10
ENDBRANCH   8   9
ENDBRANCH   7   8
ENDBRANCH   6   7
ENDBRANCH   5   6
BRANCH   5  14
HETATM   14  C           1       1.655   0.930  -0.974  0.00  0.00     0.196 C 
HETATM   15  O           1       2.373   0.322  -1.798  0.00  0.00    -0.646 OA
HETATM   16  O           1       1.353   2.127  -1.172  0.00  0.00    -0.646 OA
ENDBRANCH   5  14
ENDBRANCH   1   5
BRANCH   3  17
HETATM   17  C           1      -2.491   1.404   0.258  0.00  0.00     0.302 C 
BRANCH  17  18
HETATM   18  C           1      -3.000   2.840   0.257  0.00  0.00     0.153 C 
HETATM   19  C           1      -4.523   2.838   0.258  0.00  0.00     0.042 C 
BRANCH  18  20
HETATM   20  O           1      -2.533   3.502   1.402  0.00  0.00    -0.393 OA
HETATM   21  H           1      -2.867   4.382   1.365  0.00  0.00     0.210 HD
ENDBRANCH  18  20
ENDBRANCH  17  18
BRANCH  17  22
HETATM   22  N           1      -2.990   0.698   1.483  0.00  0.00    -0.064 N 
HETATM   23  H           1      -2.642   1.192   2.336  0.00  0.00     0.275 HD
HETATM   24  H           1      -4.035   0.698   1.484  0.00  0.00     0.275 HD
HETATM   25  H           1      -2.642  -0.287   1.483  0.00  0.00     0.275 HD
ENDBRANCH  17  22
ENDBRANCH   3  17
TORSDOF 11
