REMARK  8 active torsions:
REMARK  status: ('A' for Active; 'I' for Inactive)
REMARK    1  A    between atoms: C_2  and  C_3 
REMARK    2  A    between atoms: C_3  and  C_23 
REMARK    3  A    between atoms: C_4  and  C_5 
REMARK    4  A    between atoms: C_4  and  C_11 
REMARK    5  A    between atoms: C_4  and  N_21 
REMARK       I    between atoms: C_5  and  N_17 
REMARK    6  A    between atoms: O_8  and  C_11 
REMARK    7  A    between atoms: C_13  and  C_23 
REMARK    8  A    between atoms: N_17  and  C_23 
ROOT
HETATM    1  C           1       1.718   0.101   0.759  0.00  0.00     0.251 C 
HETATM    2  O           1       2.090  -0.988   1.123  0.00  0.00    -0.271 OA
HETATM    3  H           1       3.137   1.339  -0.099  0.00  0.00     0.163 HD
HETATM    4  N           1       2.350   0.729  -0.280  0.00  0.00    -0.344 N 
ENDROOT
BRANCH   4   5
HETATM    5  C           1       1.893   0.520  -1.640  0.00  0.00     0.189 C 
BRANCH   5   6
HETATM    6  C           1       0.444   0.973  -1.763  0.00  0.00     0.074 C 
BRANCH   6   7
HETATM    7  C           1      -0.466  -0.176  -1.458  0.00  0.00    -0.056 A 
HETATM    8  C           1       0.068  -1.420  -1.126  0.00  0.00     0.007 A 
HETATM    9  C           1      -0.780  -2.490  -0.842  0.00  0.00     0.001 A 
HETATM   10  C           1      -2.163  -2.316  -0.891  0.00  0.00     0.000 A 
HETATM   11  C           1      -2.698  -1.071  -1.223  0.00  0.00     0.001 A 
HETATM   12  C           1      -1.849  -0.001  -1.507  0.00  0.00     0.007 A 
ENDBRANCH   6   7
ENDBRANCH   5   6
BRANCH   5  13
HETATM   13  C           1       2.753   1.319  -2.588  0.00  0.00     0.197 C 
HETATM   14  O           1       2.235   2.195  -3.314  0.00  0.00    -0.646 OA
HETATM   15  O           1       3.983   1.105  -2.647  0.00  0.00    -0.646 OA
ENDBRANCH   5  13
ENDBRANCH   4   5
BRANCH   1  16
HETATM   16  C           1       0.555   0.771   1.449  0.00  0.00     0.302 C 
BRANCH  16  17
HETATM   17  C           1       0.035  -0.131   2.561  0.00  0.00     0.153 C 
HETATM   18  C           1      -1.139   0.545   3.256  0.00  0.00     0.042 C 
BRANCH  17  19
HETATM   19  O           1      -0.386  -1.352   2.015  0.00  0.00    -0.393 OA
HETATM   20  H           1      -0.698  -1.879   2.731  0.00  0.00     0.210 HD
ENDBRANCH  17  19
ENDBRANCH  16  17
BRANCH  16  21
HETATM   21  N           1      -0.541   1.019   0.455  0.00  0.00    -0.064 N 
HETATM   22  H           1      -1.347   1.482   0.932  0.00  0.00     0.275 HD
HETATM   23  H           1      -0.854   0.109   0.048  0.00  0.00     0.275 HD
HETATM   24  H           1      -0.185   1.638  -0.307  0.00  0.00     0.275 HD
ENDBRANCH  16  21
ENDBRANCH   1  16
TORSDOF 8
