REMARK  8 active torsions:
REMARK  status: ('A' for Active; 'I' for Inactive)
REMARK    1  A    between atoms: C_2  and  C_16 
REMARK    2  A    between atoms: C_2  and  C_3 
REMARK    3  A    between atoms: C_2  and  N_19 
REMARK    4  A    between atoms: O_7  and  C_8 
REMARK    5  A    between atoms: C_8  and  C_17 
REMARK    6  A    between atoms: O_11  and  C_16 
REMARK    7  A    between atoms: N_15  and  C_17 
REMARK    8  A    between atoms: C_17  and  C_20 
REMARK       I    between atoms: N_19  and  C_20 
ROOT
HETATM    1  H           1      -0.096   0.954  -1.135  0.00  0.00     0.163 HD
HETATM    2  O           1       0.155  -1.556   0.730  0.00  0.00    -0.271 OA
HETATM    3  N           1      -0.240   0.004  -0.819  0.00  0.00    -0.342 N 
HETATM    4  C           1       0.327  -0.421   0.353  0.00  0.00     0.251 C 
ENDROOT
BRANCH   4   5
HETATM    5  C           1       1.165   0.528   1.173  0.00  0.00     0.302 C 
BRANCH   5   6
HETATM    6  C           1       1.673  -0.188   2.418  0.00  0.00     0.153 C 
HETATM    7  C           1       2.519   0.771   3.245  0.00  0.00     0.042 C 
BRANCH   6   8
HETATM    8  O           1       0.583  -0.627   3.182  0.00  0.00    -0.393 OA
HETATM    9  H           1       0.937  -1.062   3.939  0.00  0.00     0.210 HD
ENDBRANCH   6   8
ENDBRANCH   5   6
BRANCH   5  10
HETATM   10  N           1       0.332   1.707   1.580  0.00  0.00    -0.064 N 
HETATM   11  H           1       0.912   2.365   2.148  0.00  0.00     0.275 HD
HETATM   12  H           1      -0.016   2.199   0.726  0.00  0.00     0.275 HD
HETATM   13  H           1      -0.481   1.379   2.149  0.00  0.00     0.275 HD
ENDBRANCH   5  10
ENDBRANCH   4   5
BRANCH   3  14
HETATM   14  C           1      -1.046  -0.908  -1.607  0.00  0.00     0.214 C 
BRANCH  14  15
HETATM   15  C           1      -1.553  -0.191  -2.851  0.00  0.00     0.147 C 
HETATM   16  C           1      -3.076  -0.191  -2.851  0.00  0.00     0.042 C 
BRANCH  15  17
HETATM   17  O           1      -1.085   1.131  -2.851  0.00  0.00    -0.393 OA
HETATM   18  H           1      -0.144   1.088  -2.851  0.00  0.00     0.210 HD
ENDBRANCH  15  17
ENDBRANCH  14  15
BRANCH  14  19
HETATM   19  C           1      -0.208  -2.094  -2.016  0.00  0.00     0.199 C 
HETATM   20  O           1      -0.030  -2.346  -3.227  0.00  0.00    -0.646 OA
HETATM   21  O           1       0.309  -2.825  -1.143  0.00  0.00    -0.646 OA
ENDBRANCH  14  19
ENDBRANCH   3  14
TORSDOF 8
