REMARK  8 active torsions:
REMARK  status: ('A' for Active; 'I' for Inactive)
REMARK    1  A    between atoms: C_1  and  C_14 
REMARK    2  A    between atoms: C_1  and  C_12 
REMARK    3  A    between atoms: C_1  and  N_5 
REMARK       I    between atoms: N_5  and  C_15 
REMARK    4  A    between atoms: N_6  and  C_19 
REMARK    5  A    between atoms: C_14  and  C_18 
REMARK    6  A    between atoms: C_15  and  C_19 
REMARK    7  A    between atoms: C_19  and  C_20 
REMARK    8  A    between atoms: C_20  and  O_21 
ROOT
HETATM    1  O           1       1.127  -1.481  -0.884  0.00  0.00    -0.271 OA
HETATM    2  N           1       0.048   0.047   0.335  0.00  0.00    -0.345 N 
HETATM    3  C           1       0.835  -1.066   0.212  0.00  0.00     0.251 C 
HETATM    4  H           1      -0.197   0.394   1.253  0.00  0.00     0.163 HD
ENDROOT
BRANCH   3   5
HETATM    5  C           1       1.337  -1.775   1.446  0.00  0.00     0.302 C 
BRANCH   5   6
HETATM    6  N           1       0.169  -2.246   2.261  0.00  0.00    -0.064 N 
HETATM    7  H           1       0.516  -2.737   3.116  0.00  0.00     0.275 HD
HETATM    8  H           1      -0.411  -1.424   2.544  0.00  0.00     0.275 HD
HETATM    9  H           1      -0.410  -2.904   1.693  0.00  0.00     0.275 HD
ENDBRANCH   5   6
BRANCH   5  10
HETATM   10  C           1       2.183  -2.973   1.034  0.00  0.00     0.153 C 
HETATM   11  C           1       2.689  -3.688   2.280  0.00  0.00     0.042 C 
BRANCH  10  12
HETATM   12  O           1       1.406  -3.856   0.272  0.00  0.00    -0.393 OA
HETATM   13  H           1       1.962  -4.580   0.039  0.00  0.00     0.210 HD
ENDBRANCH  10  12
ENDBRANCH   5  10
ENDBRANCH   3   5
BRANCH   2  14
HETATM   14  C           1      -0.435   0.728  -0.850  0.00  0.00     0.185 C 
BRANCH  14  15
HETATM   15  C           1      -1.281   1.926  -0.438  0.00  0.00     0.040 C 
BRANCH  15  16
HETATM   16  C           1      -1.788   2.643  -1.682  0.00  0.00    -0.020 C 
HETATM   17  C           1      -1.280   4.079  -1.682  0.00  0.00     0.009 C 
HETATM   18  C           1      -3.311   2.643  -1.682  0.00  0.00     0.009 C 
ENDBRANCH  15  16
ENDBRANCH  14  15
BRANCH  14  19
HETATM   19  C           1       0.740   1.201  -1.671  0.00  0.00     0.196 C 
HETATM   20  O           1       0.887   2.419  -1.909  0.00  0.00    -0.646 OA
HETATM   21  O           1       1.566   0.374  -2.114  0.00  0.00    -0.646 OA
ENDBRANCH  14  19
ENDBRANCH   2  14
TORSDOF 8
