REMARK  9 active torsions:
REMARK  status: ('A' for Active; 'I' for Inactive)
REMARK    1  A    between atoms: C_2  and  C_5 
REMARK    2  A    between atoms: C_2  and  C_16 
REMARK    3  A    between atoms: C_2  and  N_9 
REMARK    4  A    between atoms: O_4  and  C_14 
REMARK    5  A    between atoms: C_5  and  C_22 
REMARK       I    between atoms: C_7  and  N_9 
REMARK    6  A    between atoms: C_7  and  C_15 
REMARK    7  A    between atoms: C_11  and  C_15 
REMARK    8  A    between atoms: C_11  and  O_12 
REMARK    9  A    between atoms: C_15  and  N_25 
ROOT
HETATM    1  C           1       0.119  -1.466  -1.079  0.00  0.00     0.189 C 
ENDROOT
BRANCH   1   2
HETATM    2  C           1       1.567  -1.919  -0.956  0.00  0.00     0.074 C 
BRANCH   2   3
HETATM    3  C           1       2.478  -0.770  -1.261  0.00  0.00    -0.056 A 
HETATM    4  C           1       3.861  -0.945  -1.212  0.00  0.00     0.010 A 
HETATM    5  C           1       4.709   0.125  -1.496  0.00  0.00     0.037 A 
HETATM    6  C           1       4.175   1.370  -1.829  0.00  0.00     0.065 A 
HETATM    7  C           1       2.792   1.544  -1.877  0.00  0.00     0.037 A 
HETATM    8  C           1       1.943   0.474  -1.593  0.00  0.00     0.010 A 
BRANCH   6   9
HETATM    9  O           1       4.999   2.410  -2.105  0.00  0.00    -0.361 OA
HETATM   10  H           1       4.448   3.183  -2.312  0.00  0.00     0.217 HD
ENDBRANCH   6   9
ENDBRANCH   2   3
ENDBRANCH   1   2
BRANCH   1  11
HETATM   11  C           1      -0.739  -2.631  -1.506  0.00  0.00     0.197 C 
HETATM   12  O           1      -0.220  -3.752  -1.699  0.00  0.00    -0.646 OA
HETATM   13  O           1      -1.969  -2.476  -1.667  0.00  0.00    -0.646 OA
ENDBRANCH   1  11
BRANCH   1  14
HETATM   14  N           1      -0.343  -0.971   0.203  0.00  0.00    -0.344 N 
HETATM   15  C           1      -1.624  -0.506   0.337  0.00  0.00     0.251 C 
HETATM   16  O           1      -2.369  -0.508  -0.614  0.00  0.00    -0.271 OA
HETATM   17  H           1       0.282  -0.969   0.999  0.00  0.00     0.163 HD
BRANCH  15  18
HETATM   18  C           1      -2.104   0.009   1.672  0.00  0.00     0.302 C 
BRANCH  18  19
HETATM   19  C           1      -3.552   0.463   1.550  0.00  0.00     0.153 C 
HETATM   20  C           1      -4.035   0.983   2.897  0.00  0.00     0.042 C 
BRANCH  19  21
HETATM   21  O           1      -3.644   1.485   0.595  0.00  0.00    -0.393 OA
HETATM   22  H           1      -4.551   1.737   0.550  0.00  0.00     0.210 HD
ENDBRANCH  19  21
ENDBRANCH  18  19
BRANCH  18  23
HETATM   23  N           1      -1.251   1.168   2.095  0.00  0.00    -0.064 N 
HETATM   24  H           1      -0.257   0.857   2.179  0.00  0.00     0.275 HD
HETATM   25  H           1      -1.320   1.930   1.383  0.00  0.00     0.275 HD
HETATM   26  H           1      -1.583   1.526   3.020  0.00  0.00     0.275 HD
ENDBRANCH  18  23
ENDBRANCH  15  18
ENDBRANCH   1  14
TORSDOF 9
