REMARK  8 active torsions:
REMARK  status: ('A' for Active; 'I' for Inactive)
REMARK       I    between atoms: C_5  and  N_7 
REMARK    1  A    between atoms: C_5  and  C_23 
REMARK    2  A    between atoms: N_8  and  C_22 
REMARK       I    between atoms: N_8  and  C_9 
REMARK    3  A    between atoms: C_9  and  C_10 
REMARK    4  A    between atoms: C_10  and  C_11 
REMARK    5  A    between atoms: C_10  and  N_16 
REMARK    6  A    between atoms: C_11  and  O_15 
REMARK    7  A    between atoms: C_21  and  C_22 
REMARK    8  A    between atoms: C_22  and  C_23 
ROOT
HETATM    1  N           1       0.311  -0.546   0.077  0.00  0.00    -0.344 N 
HETATM    2  C           1      -0.373   0.640   0.077  0.00  0.00     0.251 C 
HETATM    3  H           1       1.323  -0.547   0.077  0.00  0.00     0.163 HD
HETATM    4  O           1      -1.581   0.641   0.076  0.00  0.00    -0.271 OA
ENDROOT
BRANCH   1   5
HETATM    5  C           1      -0.416  -1.801   0.076  0.00  0.00     0.194 C 
BRANCH   5   6
HETATM    6  C           1      -1.284  -1.880   1.308  0.00  0.00     0.197 C 
HETATM    7  O           1      -1.118  -2.806   2.131  0.00  0.00    -0.646 OA
HETATM    8  O           1      -2.169  -1.020   1.505  0.00  0.00    -0.646 OA
ENDBRANCH   5   6
BRANCH   5   9
HETATM    9  C           1       0.573  -2.959   0.076  0.00  0.00     0.138 C 
BRANCH   9  10
HETATM   10  C           1      -0.181  -4.266   0.076  0.00  0.00     0.217 C 
HETATM   11  O           1      -1.389  -4.266   0.076  0.00  0.00    -0.274 OA
HETATM   12  N           1       0.503  -5.452   0.076  0.00  0.00    -0.370 N 
HETATM   13  H           1       1.515  -5.452   0.076  0.00  0.00     0.159 HD
HETATM   14  H           1      -0.003  -6.328   0.076  0.00  0.00     0.159 HD
ENDBRANCH   9  10
ENDBRANCH   5   9
ENDBRANCH   1   5
BRANCH   2  15
HETATM   15  C           1       0.383   1.946   0.078  0.00  0.00     0.302 C 
BRANCH  15  16
HETATM   16  C           1      -0.605   3.105   0.078  0.00  0.00     0.153 C 
HETATM   17  C           1       0.159   4.423   0.078  0.00  0.00     0.042 C 
BRANCH  16  18
HETATM   18  O           1      -1.411   3.033  -1.067  0.00  0.00    -0.393 OA
HETATM   19  H           1      -2.005   3.763  -1.030  0.00  0.00     0.210 HD
ENDBRANCH  16  18
ENDBRANCH  15  16
BRANCH  15  20
HETATM   20  N           1       1.245   2.025  -1.147  0.00  0.00    -0.064 N 
HETATM   21  H           1       1.769   2.929  -1.148  0.00  0.00     0.275 HD
HETATM   22  H           1       1.923   1.230  -1.147  0.00  0.00     0.275 HD
HETATM   23  H           1       0.644   1.971  -2.000  0.00  0.00     0.275 HD
ENDBRANCH  15  20
ENDBRANCH   2  15
TORSDOF 8
