REMARK  8 active torsions:
REMARK  status: ('A' for Active; 'I' for Inactive)
REMARK    1  A    between atoms: N_3  and  C_14 
REMARK    2  A    between atoms: C_7  and  C_8 
REMARK    3  A    between atoms: C_8  and  C_21 
REMARK    4  A    between atoms: N_11  and  C_21 
REMARK       I    between atoms: N_11  and  C_12 
REMARK    5  A    between atoms: C_12  and  C_14 
REMARK    6  A    between atoms: C_14  and  C_15 
REMARK    7  A    between atoms: C_15  and  O_16 
REMARK    8  A    between atoms: C_19  and  C_21 
ROOT
HETATM    1  O           1       0.187   1.648  -1.329  0.00  0.00    -0.271 OA
HETATM    2  N           1       0.584   0.087   0.218  0.00  0.00    -0.344 N 
HETATM    3  C           1       0.017   0.513  -0.953  0.00  0.00     0.251 C 
HETATM    4  H           1       0.442  -0.864   0.534  0.00  0.00     0.163 HD
ENDROOT
BRANCH   3   5
HETATM    5  C           1      -0.821  -0.437  -1.773  0.00  0.00     0.302 C 
BRANCH   5   6
HETATM    6  N           1      -1.988  -0.907  -0.956  0.00  0.00    -0.064 N 
HETATM    7  H           1      -2.569  -1.565  -1.523  0.00  0.00     0.275 HD
HETATM    8  H           1      -1.638  -1.399  -0.103  0.00  0.00     0.275 HD
HETATM    9  H           1      -2.568  -0.086  -0.672  0.00  0.00     0.275 HD
ENDBRANCH   5   6
BRANCH   5  10
HETATM   10  C           1      -1.331   0.280  -3.017  0.00  0.00     0.153 C 
HETATM   11  C           1      -2.177  -0.679  -3.844  0.00  0.00     0.042 C 
BRANCH  10  12
HETATM   12  O           1      -2.110   1.381  -2.636  0.00  0.00    -0.393 OA
HETATM   13  H           1      -2.405   1.796  -3.430  0.00  0.00     0.210 HD
ENDBRANCH  10  12
ENDBRANCH   5  10
ENDBRANCH   3   5
BRANCH   2  14
HETATM   14  C           1       1.390   1.000   1.007  0.00  0.00     0.189 C 
BRANCH  14  15
HETATM   15  C           1       1.898   0.282   2.250  0.00  0.00     0.014 C 
HETATM   16  C           1       1.391   1.001   3.493  0.00  0.00     0.012 C 
BRANCH  15  17
HETATM   17  C           1       1.390  -1.154   2.250  0.00  0.00     0.002 C 
HETATM   18  C           1      -0.133  -1.154   2.250  0.00  0.00     0.005 C 
ENDBRANCH  15  17
ENDBRANCH  14  15
BRANCH  14  19
HETATM   19  C           1       2.563   1.474   0.184  0.00  0.00     0.197 C 
HETATM   20  O           1       2.367   2.091  -0.885  0.00  0.00    -0.646 OA
HETATM   21  O           1       3.730   1.249   0.571  0.00  0.00    -0.646 OA
ENDBRANCH  14  19
ENDBRANCH   2  14
TORSDOF 8
