REMARK  10 active torsions:
REMARK  status: ('A' for Active; 'I' for Inactive)
REMARK    1  A    between atoms: N_3  and  C_12 
REMARK       I    between atoms: N_3  and  C_6 
REMARK    2  A    between atoms: C_6  and  C_15 
REMARK    3  A    between atoms: O_8  and  C_20 
REMARK    4  A    between atoms: O_8  and  P_14 
REMARK    5  A    between atoms: N_9  and  C_15 
REMARK    6  A    between atoms: O_11  and  P_14 
REMARK    7  A    between atoms: C_12  and  C_13 
REMARK    8  A    between atoms: C_12  and  C_20 
REMARK    9  A    between atoms: C_15  and  C_22 
REMARK   10  A    between atoms: C_22  and  O_23 
ROOT
HETATM    1  N           1       0.155  -1.368   0.696  0.00  0.00    -0.343 N 
HETATM    2  H           1       0.159  -2.130   0.029  0.00  0.00     0.163 HD
HETATM    3  C           1       0.937  -0.266   0.478  0.00  0.00     0.251 C 
HETATM    4  O           1       0.933   0.644   1.273  0.00  0.00    -0.271 OA
ENDROOT
BRANCH   1   5
HETATM    5  C           1      -0.677  -1.445   1.880  0.00  0.00     0.210 C 
BRANCH   5   6
HETATM    6  C           1      -1.432  -2.752   1.880  0.00  0.00     0.198 C 
HETATM    7  O           1      -2.682  -2.752   1.880  0.00  0.00    -0.646 OA
HETATM    8  O           1      -0.807  -3.834   1.880  0.00  0.00    -0.646 OA
ENDBRANCH   5   6
BRANCH   5   9
HETATM    9  C           1      -1.666  -0.287   1.880  0.00  0.00     0.217 C 
BRANCH   9  10
HETATM   10  O           1      -2.473  -0.360   0.736  0.00  0.00    -0.287 OA
BRANCH  10  11
HETATM   11  P           1      -3.584   0.801   0.577  0.00  0.00     0.406 P 
HETATM   12  O           1      -2.917   2.120   0.525  0.00  0.00    -0.624 OA
HETATM   13  O           1      -4.507   0.760   1.733  0.00  0.00    -0.624 OA
BRANCH  11  14
HETATM   14  O           1      -4.417   0.565  -0.786  0.00  0.00    -0.300 OA
HETATM   15  H           1      -5.041   1.270  -0.816  0.00  0.00     0.223 HD
ENDBRANCH  11  14
ENDBRANCH  10  11
ENDBRANCH   9  10
ENDBRANCH   5   9
ENDBRANCH   1   5
BRANCH   3  16
HETATM   16  C           1       1.803  -0.186  -0.755  0.00  0.00     0.302 C 
BRANCH  16  17
HETATM   17  N           1       0.939  -0.264  -1.978  0.00  0.00    -0.064 N 
HETATM   18  H           1       1.539  -0.209  -2.833  0.00  0.00     0.275 HD
HETATM   19  H           1       0.417  -1.169  -1.978  0.00  0.00     0.275 HD
HETATM   20  H           1       0.261   0.530  -1.977  0.00  0.00     0.275 HD
ENDBRANCH  16  17
BRANCH  16  21
HETATM   21  C           1       2.566   1.133  -0.756  0.00  0.00     0.153 C 
HETATM   22  C           1       3.439   1.212  -2.001  0.00  0.00     0.042 C 
BRANCH  21  23
HETATM   23  O           1       1.656   2.199  -0.755  0.00  0.00    -0.393 OA
HETATM   24  H           1       2.164   2.992  -0.756  0.00  0.00     0.210 HD
ENDBRANCH  21  23
ENDBRANCH  16  21
ENDBRANCH   3  16
TORSDOF 10
