REMARK  7 active torsions:
REMARK  status: ('A' for Active; 'I' for Inactive)
REMARK    1  A    between atoms: C_2  and  C_4 
REMARK    2  A    between atoms: C_2  and  C_12 
REMARK    3  A    between atoms: C_2  and  N_9 
REMARK    4  A    between atoms: N_5  and  C_16 
REMARK       I    between atoms: N_9  and  C_10 
REMARK    5  A    between atoms: C_10  and  C_16 
REMARK    6  A    between atoms: C_16  and  C_20 
REMARK    7  A    between atoms: O_19  and  C_20 
ROOT
HETATM    1  N           1      -0.162  -0.112  -0.646  0.00  0.00    -0.344 N 
HETATM    2  C           1       0.405  -0.536   0.526  0.00  0.00     0.251 C 
HETATM    3  O           1       0.233  -1.671   0.903  0.00  0.00    -0.271 OA
HETATM    4  H           1      -0.018   0.839  -0.962  0.00  0.00     0.163 HD
ENDROOT
BRANCH   2   5
HETATM    5  C           1       1.243   0.413   1.346  0.00  0.00     0.302 C 
BRANCH   5   6
HETATM    6  N           1       0.410   1.591   1.753  0.00  0.00    -0.064 N 
HETATM    7  H           1       0.990   2.249   2.321  0.00  0.00     0.275 HD
HETATM    8  H           1       0.062   2.083   0.899  0.00  0.00     0.275 HD
HETATM    9  H           1      -0.403   1.263   2.322  0.00  0.00     0.275 HD
ENDBRANCH   5   6
BRANCH   5  10
HETATM   10  C           1       1.751  -0.303   2.591  0.00  0.00     0.153 C 
HETATM   11  C           1       2.597   0.656   3.418  0.00  0.00     0.042 C 
BRANCH  10  12
HETATM   12  O           1       0.661  -0.743   3.355  0.00  0.00    -0.393 OA
HETATM   13  H           1       1.015  -1.178   4.112  0.00  0.00     0.210 HD
ENDBRANCH  10  12
ENDBRANCH   5  10
ENDBRANCH   2   5
BRANCH   1  14
HETATM   14  C           1      -0.968  -1.023  -1.434  0.00  0.00     0.189 C 
BRANCH  14  15
HETATM   15  C           1      -1.475  -0.306  -2.678  0.00  0.00     0.010 C 
HETATM   16  C           1      -0.966   1.129  -2.678  0.00  0.00     0.012 C 
HETATM   17  C           1      -2.998  -0.306  -2.678  0.00  0.00     0.012 C 
ENDBRANCH  14  15
BRANCH  14  18
HETATM   18  C           1      -0.129  -2.210  -1.843  0.00  0.00     0.197 C 
HETATM   19  O           1       0.049  -2.461  -3.054  0.00  0.00    -0.646 OA
HETATM   20  O           1       0.387  -2.941  -0.970  0.00  0.00    -0.646 OA
ENDBRANCH  14  18
ENDBRANCH   1  14
TORSDOF 7
