REMARK  8 active torsions:
REMARK  status: ('A' for Active; 'I' for Inactive)
REMARK    1  A    between atoms: C_4  and  C_21 
REMARK    2  A    between atoms: C_4  and  O_6 
REMARK    3  A    between atoms: N_8  and  C_22 
REMARK       I    between atoms: N_8  and  C_28 
REMARK    4  A    between atoms: C_12  and  C_14 
REMARK    5  A    between atoms: C_14  and  C_22 
REMARK    6  A    between atoms: C_17  and  C_22 
REMARK    7  A    between atoms: C_21  and  C_28 
REMARK    8  A    between atoms: C_21  and  N_26 
ROOT
HETATM    1  C           1      -2.112  -0.086   1.969  0.00  0.00     0.190 C 
ENDROOT
BRANCH   1   2
HETATM    2  N           1      -2.776  -0.690   0.831  0.00  0.00    -0.344 N 
HETATM    3  C           1      -2.043  -1.359  -0.113  0.00  0.00     0.251 C 
HETATM    4  O           1      -1.835  -2.542   0.010  0.00  0.00    -0.271 OA
HETATM    5  H           1      -3.780  -0.619   0.735  0.00  0.00     0.163 HD
BRANCH   3   6
HETATM    6  C           1      -1.496  -0.617  -1.307  0.00  0.00     0.302 C 
BRANCH   6   7
HETATM    7  C           1      -0.725  -1.584  -2.197  0.00  0.00     0.153 C 
HETATM    8  C           1      -0.172  -0.833  -3.401  0.00  0.00     0.042 C 
BRANCH   7   9
HETATM    9  O           1       0.334  -2.145  -1.470  0.00  0.00    -0.393 OA
HETATM   10  H           1       0.784  -2.734  -2.052  0.00  0.00     0.210 HD
ENDBRANCH   7   9
ENDBRANCH   6   7
BRANCH   6  11
HETATM   11  N           1      -0.576   0.472  -0.840  0.00  0.00    -0.064 N 
HETATM   12  H           1      -1.105   1.136  -0.230  0.00  0.00     0.275 HD
HETATM   13  H           1       0.213   0.053  -0.298  0.00  0.00     0.275 HD
HETATM   14  H           1      -0.196   0.987  -1.666  0.00  0.00     0.275 HD
ENDBRANCH   6  11
ENDBRANCH   3   6
ENDBRANCH   1   2
BRANCH   1  15
HETATM   15  C           1      -1.109   0.951   1.479  0.00  0.00     0.077 C 
BRANCH  15  16
HETATM   16  C           1       0.221   0.297   1.264  0.00  0.00    -0.028 A 
HETATM   17  C           1       1.406   0.938   0.810  0.00  0.00    -0.002 A 
HETATM   18  C           1       2.404  -0.036   0.752  0.00  0.00     0.042 A 
HETATM   19  C           1       1.727   2.259   0.441  0.00  0.00     0.014 A 
HETATM   20  N           1       1.834  -1.222   1.158  0.00  0.00    -0.365 N 
HETATM   21  C           1       3.712   0.246   0.342  0.00  0.00     0.030 A 
HETATM   22  C           1       0.514  -1.032   1.470  0.00  0.00     0.096 A 
HETATM   23  H           1       2.340  -2.140   1.220  0.00  0.00     0.165 HD
HETATM   24  C           1       4.006   1.565  -0.019  0.00  0.00     0.002 A 
HETATM   25  C           1       3.031   2.558   0.029  0.00  0.00     0.001 A 
ENDBRANCH  15  16
ENDBRANCH   1  15
BRANCH   1  26
HETATM   26  C           1      -3.137   0.583   2.852  0.00  0.00     0.197 C 
HETATM   27  O           1      -4.057  -0.091   3.363  0.00  0.00    -0.646 OA
HETATM   28  O           1      -3.066   1.812   3.072  0.00  0.00    -0.646 OA
ENDBRANCH   1  26
TORSDOF 8
