REMARK  10 active torsions:
REMARK  status: ('A' for Active; 'I' for Inactive)
REMARK    1  A    between atoms: C_1  and  N_12 
REMARK    2  A    between atoms: C_1  and  C_19 
REMARK    3  A    between atoms: N_4  and  C_9 
REMARK       I    between atoms: N_4  and  C_24 
REMARK    4  A    between atoms: C_7  and  C_19 
REMARK    5  A    between atoms: C_7  and  C_9 
REMARK    6  A    between atoms: C_9  and  C_13 
REMARK    7  A    between atoms: O_10  and  C_20 
REMARK    8  A    between atoms: C_20  and  C_23 
REMARK    9  A    between atoms: N_22  and  C_23 
REMARK   10  A    between atoms: C_23  and  C_24 
ROOT
HETATM    1  N           1      -0.129   0.349  -0.011  0.00  0.00    -0.345 N 
HETATM    2  H           1      -1.124   0.443   0.148  0.00  0.00     0.163 HD
HETATM    3  O           1       1.948   0.759   0.700  0.00  0.00    -0.271 OA
HETATM    4  C           1       0.760   0.870   0.890  0.00  0.00     0.251 C 
ENDROOT
BRANCH   1   5
HETATM    5  C           1       0.355  -0.335  -1.194  0.00  0.00     0.185 C 
BRANCH   5   6
HETATM    6  C           1      -0.829  -0.814  -2.023  0.00  0.00     0.038 C 
BRANCH   6   7
HETATM    7  C           1      -0.323  -1.533  -3.266  0.00  0.00     0.030 C 
BRANCH   7   8
HETATM    8  C           1      -0.831  -2.968  -3.266  0.00  0.00     0.230 C 
BRANCH   8   9
HETATM    9  N           1      -2.331  -2.968  -3.266  0.00  0.00    -0.079 N 
HETATM   10  H           1      -2.680  -3.953  -3.266  0.00  0.00     0.274 HD
HETATM   11  H           1      -2.679  -2.476  -2.413  0.00  0.00     0.274 HD
HETATM   12  H           1      -2.679  -2.476  -4.120  0.00  0.00     0.274 HD
ENDBRANCH   8   9
ENDBRANCH   7   8
ENDBRANCH   6   7
ENDBRANCH   5   6
BRANCH   5  13
HETATM   13  C           1       1.195   0.612  -2.015  0.00  0.00     0.196 C 
HETATM   14  O           1       0.862   0.885  -3.189  0.00  0.00    -0.646 OA
HETATM   15  O           1       2.222   1.125  -1.521  0.00  0.00    -0.646 OA
ENDBRANCH   5  13
ENDBRANCH   1   5
BRANCH   4  16
HETATM   16  C           1       0.256   1.583   2.121  0.00  0.00     0.302 C 
BRANCH  16  17
HETATM   17  C           1       1.440   2.062   2.952  0.00  0.00     0.153 C 
HETATM   18  C           1       0.930   2.780   4.194  0.00  0.00     0.042 C 
BRANCH  17  19
HETATM   19  O           1       2.218   0.961   3.336  0.00  0.00    -0.393 OA
HETATM   20  H           1       2.936   1.297   3.844  0.00  0.00     0.210 HD
ENDBRANCH  17  19
ENDBRANCH  16  17
BRANCH  16  21
HETATM   21  N           1      -0.577   0.640   2.938  0.00  0.00    -0.064 N 
HETATM   22  H           1      -0.927   1.133   3.791  0.00  0.00     0.275 HD
HETATM   23  H           1      -1.390   0.312   2.368  0.00  0.00     0.275 HD
HETATM   24  H           1       0.003  -0.180   3.223  0.00  0.00     0.275 HD
ENDBRANCH  16  21
ENDBRANCH   4  16
TORSDOF 10
