REMARK  8 active torsions:
REMARK  status: ('A' for Active; 'I' for Inactive)
REMARK    1  A    between atoms: C_1  and  C_9 
REMARK    2  A    between atoms: C_1  and  C_20 
REMARK    3  A    between atoms: C_1  and  N_15 
REMARK    4  A    between atoms: N_6  and  C_19 
REMARK    5  A    between atoms: O_7  and  C_11 
REMARK    6  A    between atoms: C_9  and  S_17 
REMARK       I    between atoms: C_10  and  N_15 
REMARK    7  A    between atoms: C_10  and  C_19 
REMARK    8  A    between atoms: C_11  and  C_19 
ROOT
HETATM    1  H           1      -0.304  -1.704   0.085  0.00  0.00     0.163 HD
HETATM    2  C           1      -0.124   0.358   0.085  0.00  0.00     0.251 C 
HETATM    3  O           1      -0.727   1.405   0.084  0.00  0.00    -0.271 OA
HETATM    4  N           1      -0.810  -0.827   0.085  0.00  0.00    -0.344 N 
ENDROOT
BRANCH   2   5
HETATM    5  C           1       1.385   0.356   0.086  0.00  0.00     0.302 C 
BRANCH   5   6
HETATM    6  N           1       1.884  -0.351  -1.139  0.00  0.00    -0.064 N 
HETATM    7  H           1       1.537   0.143  -1.992  0.00  0.00     0.275 HD
HETATM    8  H           1       2.929  -0.352  -1.139  0.00  0.00     0.275 HD
HETATM    9  H           1       1.535  -1.336  -1.139  0.00  0.00     0.275 HD
ENDBRANCH   5   6
BRANCH   5  10
HETATM   10  C           1       1.895   1.791   0.086  0.00  0.00     0.153 C 
HETATM   11  C           1       3.418   1.788   0.086  0.00  0.00     0.042 C 
BRANCH  10  12
HETATM   12  O           1       1.430   2.453  -1.059  0.00  0.00    -0.393 OA
HETATM   13  H           1       1.765   3.333  -1.022  0.00  0.00     0.210 HD
ENDBRANCH  10  12
ENDBRANCH   5  10
ENDBRANCH   2   5
BRANCH   4  14
HETATM   14  C           1      -2.260  -0.826   0.084  0.00  0.00     0.194 C 
BRANCH  14  15
HETATM   15  C           1      -2.768  -2.261   0.084  0.00  0.00     0.106 C 
BRANCH  15  16
HETATM   16  S           1      -4.583  -2.261   0.084  0.00  0.00    -0.180 SA
HETATM   17  H           1      -4.723  -3.599   0.084  0.00  0.00     0.101 HD
ENDBRANCH  15  16
ENDBRANCH  14  15
BRANCH  14  18
HETATM   18  C           1      -2.762  -0.113   1.316  0.00  0.00     0.197 C 
HETATM   19  O           1      -3.481  -0.720   2.139  0.00  0.00    -0.646 OA
HETATM   20  O           1      -2.459   1.083   1.513  0.00  0.00    -0.646 OA
ENDBRANCH  14  18
ENDBRANCH   4  14
TORSDOF 8
