REMARK  11 active torsions:
REMARK  status: ('A' for Active; 'I' for Inactive)
REMARK       I    between atoms: C_1  and  N_2 
REMARK    1  A    between atoms: C_1  and  C_26 
REMARK    2  A    between atoms: N_2  and  C_10 
REMARK    3  A    between atoms: O_5  and  C_8 
REMARK    4  A    between atoms: C_6  and  O_13 
REMARK    5  A    between atoms: C_8  and  C_26 
REMARK    6  A    between atoms: C_10  and  C_17 
REMARK    7  A    between atoms: C_10  and  C_18 
REMARK    8  A    between atoms: O_13  and  P_27 
REMARK    9  A    between atoms: C_18  and  C_19 
REMARK   10  A    between atoms: O_21  and  P_27 
REMARK   11  A    between atoms: N_24  and  C_26 
ROOT
HETATM    1  C           1       2.509   0.873  -1.520  0.00  0.00     0.189 C 
ENDROOT
BRANCH   1   2
HETATM    2  N           1       2.967   1.082  -0.160  0.00  0.00    -0.344 N 
HETATM    3  C           1       2.334   0.454   0.879  0.00  0.00     0.251 C 
HETATM    4  O           1       2.707  -0.636   1.243  0.00  0.00    -0.271 OA
HETATM    5  H           1       3.753   1.692   0.020  0.00  0.00     0.163 HD
BRANCH   3   6
HETATM    6  C           1       1.171   1.124   1.569  0.00  0.00     0.302 C 
BRANCH   6   7
HETATM    7  C           1       0.652   0.221   2.681  0.00  0.00     0.153 C 
HETATM    8  C           1      -0.522   0.898   3.376  0.00  0.00     0.042 C 
BRANCH   7   9
HETATM    9  O           1       0.230  -0.999   2.135  0.00  0.00    -0.393 OA
HETATM   10  H           1      -0.082  -1.526   2.850  0.00  0.00     0.210 HD
ENDBRANCH   7   9
ENDBRANCH   6   7
BRANCH   6  11
HETATM   11  N           1       0.076   1.371   0.575  0.00  0.00    -0.064 N 
HETATM   12  H           1      -0.730   1.835   1.052  0.00  0.00     0.275 HD
HETATM   13  H           1       0.432   1.991  -0.188  0.00  0.00     0.275 HD
HETATM   14  H           1      -0.238   0.461   0.168  0.00  0.00     0.275 HD
ENDBRANCH   6  11
ENDBRANCH   3   6
ENDBRANCH   1   2
BRANCH   1  15
HETATM   15  C           1       3.369   1.672  -2.468  0.00  0.00     0.197 C 
HETATM   16  O           1       2.851   2.548  -3.194  0.00  0.00    -0.646 OA
HETATM   17  O           1       4.599   1.458  -2.527  0.00  0.00    -0.646 OA
ENDBRANCH   1  15
BRANCH   1  18
HETATM   18  C           1       1.060   1.326  -1.643  0.00  0.00     0.074 C 
BRANCH  18  19
HETATM   19  C           1       0.150   0.177  -1.339  0.00  0.00    -0.056 A 
HETATM   20  C           1      -1.233   0.352  -1.387  0.00  0.00     0.010 A 
HETATM   21  C           1      -2.082  -0.719  -1.103  0.00  0.00     0.038 A 
HETATM   22  C           1      -1.547  -1.963  -0.771  0.00  0.00     0.081 A 
HETATM   23  C           1      -0.164  -2.138  -0.722  0.00  0.00     0.038 A 
HETATM   24  C           1       0.685  -1.067  -1.006  0.00  0.00     0.010 A 
BRANCH  22  25
HETATM   25  O           1      -2.371  -3.003  -0.495  0.00  0.00    -0.247 OA
BRANCH  25  26
HETATM   26  P           1      -3.964  -2.747  -0.566  0.00  0.00     0.411 P 
HETATM   27  O           1      -4.338  -1.693   0.403  0.00  0.00    -0.624 OA
HETATM   28  O           1      -4.680  -3.999  -0.233  0.00  0.00    -0.624 OA
BRANCH  26  29
HETATM   29  O           1      -4.367  -2.274  -2.057  0.00  0.00    -0.300 OA
HETATM   30  H           1      -5.299  -2.144  -2.028  0.00  0.00     0.223 HD
ENDBRANCH  26  29
ENDBRANCH  25  26
ENDBRANCH  22  25
ENDBRANCH  18  19
ENDBRANCH   1  18
TORSDOF 11
