REMARK  8 active torsions:
REMARK  status: ('A' for Active; 'I' for Inactive)
REMARK    1  A    between atoms: N_5  and  C_11 
REMARK       I    between atoms: N_5  and  C_19 
REMARK    2  A    between atoms: C_6  and  C_11 
REMARK    3  A    between atoms: O_9  and  C_10 
REMARK    4  A    between atoms: C_10  and  C_22 
REMARK    5  A    between atoms: C_11  and  C_15 
REMARK    6  A    between atoms: C_12  and  C_15 
REMARK    7  A    between atoms: C_19  and  C_22 
REMARK    8  A    between atoms: C_22  and  N_23 
ROOT
HETATM    1  N           1       1.655   1.482  -0.483  0.00  0.00    -0.344 N 
HETATM    2  O           1       2.327  -0.395   0.522  0.00  0.00    -0.271 OA
HETATM    3  C           1       1.515   0.496   0.456  0.00  0.00     0.251 C 
HETATM    4  H           1       2.179   2.320  -0.263  0.00  0.00     0.163 HD
ENDROOT
BRANCH   1   5
HETATM    5  C           1       1.053   1.327  -1.793  0.00  0.00     0.191 C 
BRANCH   5   6
HETATM    6  C           1       1.354   2.545  -2.632  0.00  0.00     0.197 C 
HETATM    7  O           1       2.540   2.855  -2.880  0.00  0.00    -0.646 OA
HETATM    8  O           1       0.419   3.243  -3.079  0.00  0.00    -0.646 OA
ENDBRANCH   5   6
BRANCH   5   9
HETATM    9  C           1      -0.455   1.174  -1.643  0.00  0.00     0.094 C 
BRANCH   9  10
HETATM   10  C           1      -0.797  -0.277  -1.499  0.00  0.00     0.028 A 
HETATM   11  C           1       0.120  -1.300  -1.503  0.00  0.00     0.114 A 
HETATM   12  N           1      -0.620  -2.440  -1.347  0.00  0.00    -0.360 N 
HETATM   13  H           1      -0.249  -3.421  -1.304  0.00  0.00     0.166 HD
HETATM   14  C           1      -1.931  -2.068  -1.255  0.00  0.00     0.180 A 
HETATM   15  N           1      -2.069  -0.765  -1.344  0.00  0.00    -0.354 N 
ATOM     16  HN          1      -2.937  -0.230  -1.306  1.00  0.00     0.166 HD
ENDBRANCH   9  10
ENDBRANCH   5   9
ENDBRANCH   1   5
BRANCH   3  17
HETATM   17  C           1       0.344   0.523   1.408  0.00  0.00     0.302 C 
BRANCH  17  18
HETATM   18  C           1       0.423  -0.677   2.343  0.00  0.00     0.153 C 
HETATM   19  C           1      -0.759  -0.649   3.303  0.00  0.00     0.042 C 
BRANCH  18  20
HETATM   20  O           1       0.386  -1.860   1.591  0.00  0.00    -0.393 OA
HETATM   21  H           1       0.436  -2.575   2.203  0.00  0.00     0.210 HD
ENDBRANCH  18  20
ENDBRANCH  17  18
BRANCH  17  22
HETATM   22  N           1      -0.936   0.465   0.628  0.00  0.00    -0.064 N 
HETATM   23  H           1      -1.747   0.483   1.287  0.00  0.00     0.275 HD
HETATM   24  H           1      -0.962  -0.416   0.067  0.00  0.00     0.275 HD
HETATM   25  H           1      -0.990   1.289  -0.013  0.00  0.00     0.275 HD
ENDBRANCH  17  22
ENDBRANCH   3  17
TORSDOF 8
