REMARK  5 active torsions:
REMARK  status: ('A' for Active; 'I' for Inactive)
REMARK    1  A    between atoms: C_1  and  C_6 
REMARK    2  A    between atoms: C_3  and  C_5 
REMARK    3  A    between atoms: C_3  and  C_11 
REMARK    4  A    between atoms: C_3  and  N_14 
REMARK       I    between atoms: C_5  and  N_18 
REMARK    5  A    between atoms: C_11  and  O_12 
ROOT
HETATM    1  C           1      -0.081   0.730   0.465  0.00  0.00     0.253 C 
HETATM    2  C           1      -2.414  -0.241   0.703  0.00  0.00     0.188 C 
HETATM    3  C           1      -3.053  -1.082  -0.388  0.00  0.00     0.038 C 
HETATM    4  C           1      -1.953  -2.029  -0.855  0.00  0.00     0.022 C 
HETATM    5  C           1      -0.741  -1.674  -0.011  0.00  0.00     0.127 C 
HETATM    6  N           1      -0.988  -0.293   0.393  0.00  0.00    -0.336 N 
HETATM    7  O           1      -0.437   1.828   0.820  0.00  0.00    -0.271 OA
ENDROOT
BRANCH   1   8
HETATM    8  C           1       1.363   0.485   0.102  0.00  0.00     0.302 C 
BRANCH   8   9
HETATM    9  C           1       2.154   1.775   0.267  0.00  0.00     0.153 C 
HETATM   10  C           1       3.611   1.527  -0.100  0.00  0.00     0.042 C 
BRANCH   9  11
HETATM   11  O           1       1.622   2.761  -0.575  0.00  0.00    -0.393 OA
HETATM   12  H           1       2.136   3.540  -0.444  0.00  0.00     0.210 HD
ENDBRANCH   9  11
ENDBRANCH   8   9
BRANCH   8  13
HETATM   13  N           1       1.448   0.025  -1.323  0.00  0.00    -0.064 N 
HETATM   14  H           1       1.051   0.760  -1.950  0.00  0.00     0.275 HD
HETATM   15  H           1       0.905  -0.861  -1.436  0.00  0.00     0.275 HD
HETATM   16  H           1       2.448  -0.145  -1.575  0.00  0.00     0.275 HD
ENDBRANCH   8  13
ENDBRANCH   1   8
BRANCH   2  17
HETATM   17  C           1      -2.690  -0.829   2.065  0.00  0.00     0.196 C 
HETATM   18  O           1      -3.860  -0.871   2.503  0.00  0.00    -0.646 OA
HETATM   19  O           1      -1.748  -1.275   2.755  0.00  0.00    -0.646 OA
ENDBRANCH   2  17
TORSDOF 5
