REMARK  8 active torsions:
REMARK  status: ('A' for Active; 'I' for Inactive)
REMARK    1  A    between atoms: Se_2  and  C_14 
REMARK    2  A    between atoms: N_3  and  C_7 
REMARK       I    between atoms: N_3  and  C_5 
REMARK    3  A    between atoms: N_4  and  C_19 
REMARK    4  A    between atoms: C_5  and  C_19 
REMARK    5  A    between atoms: C_7  and  C_14 
REMARK    6  A    between atoms: C_7  and  C_10 
REMARK    7  A    between atoms: O_16  and  C_18 
REMARK    8  A    between atoms: C_18  and  C_19 
ROOT
HETATM    1  H           1      -0.296  -1.699   0.085  0.00  0.00     0.163 HD
HETATM    2  N           1      -0.801  -0.822   0.085  0.00  0.00    -0.345 N 
HETATM    3  C           1      -0.115   0.363   0.085  0.00  0.00     0.251 C 
HETATM    4  O           1      -0.718   1.409   0.084  0.00  0.00    -0.271 OA
ENDROOT
BRANCH   3   5
HETATM    5  C           1       1.394   0.361   0.086  0.00  0.00     0.302 C 
BRANCH   5   6
HETATM    6  N           1       1.893  -0.346  -1.139  0.00  0.00    -0.064 N 
HETATM    7  H           1       2.938  -0.348  -1.139  0.00  0.00     0.275 HD
HETATM    8  H           1       1.544  -1.331  -1.139  0.00  0.00     0.275 HD
HETATM    9  H           1       1.545   0.147  -1.992  0.00  0.00     0.275 HD
ENDBRANCH   5   6
BRANCH   5  10
HETATM   10  C           1       1.904   1.796   0.086  0.00  0.00     0.153 C 
HETATM   11  C           1       3.427   1.793   0.086  0.00  0.00     0.042 C 
BRANCH  10  12
HETATM   12  O           1       1.438   2.458  -1.059  0.00  0.00    -0.393 OA
HETATM   13  H           1       1.774   3.338  -1.022  0.00  0.00     0.210 HD
ENDBRANCH  10  12
ENDBRANCH   5  10
ENDBRANCH   3   5
BRANCH   2  14
HETATM   14  C           1      -2.251  -0.821   0.084  0.00  0.00     0.185 C 
BRANCH  14  15
HETATM   15  C           1      -2.759  -2.257   0.084  0.00  0.00     0.039 C 
BRANCH  15  16
HETATM   16 Se           1      -4.708  -2.257   0.084  0.00  0.00     0.000 Se
HETATM   17  H           1      -4.824  -3.724   0.084  0.00  0.00     0.000 HD
ENDBRANCH  15  16
ENDBRANCH  14  15
BRANCH  14  18
HETATM   18  C           1      -2.753  -0.109   1.316  0.00  0.00     0.196 C 
HETATM   19  O           1      -2.450   1.088   1.513  0.00  0.00    -0.646 OA
HETATM   20  O           1      -3.472  -0.715   2.139  0.00  0.00    -0.646 OA
ENDBRANCH  14  18
ENDBRANCH   2  14
TORSDOF 8
