REMARK  10 active torsions:
REMARK  status: ('A' for Active; 'I' for Inactive)
REMARK    1  A    between atoms: C_2  and  C_16 
REMARK    2  A    between atoms: C_2  and  C_9 
REMARK    3  A    between atoms: C_6  and  C_7 
REMARK    4  A    between atoms: C_7  and  C_8 
REMARK    5  A    between atoms: C_8  and  C_10 
REMARK    6  A    between atoms: C_8  and  N_23 
REMARK    7  A    between atoms: C_9  and  C_20 
REMARK       I    between atoms: C_10  and  N_15 
REMARK    8  A    between atoms: N_15  and  C_20 
REMARK    9  A    between atoms: C_16  and  N_17 
REMARK   10  A    between atoms: C_20  and  C_28 
ROOT
HETATM    1  C           1       0.205  -1.322  -0.320  0.00  0.00     0.278 C 
ENDROOT
BRANCH   1   2
HETATM    2  C           1       1.208  -0.285  -0.810  0.00  0.00     0.083 C 
BRANCH   2   3
HETATM    3  C           1       2.537  -0.939  -1.025  0.00  0.00    -0.028 A 
HETATM    4  C           1       2.831  -2.268  -0.819  0.00  0.00     0.096 A 
HETATM    5  N           1       4.151  -2.458  -1.131  0.00  0.00    -0.365 N 
HETATM    6  C           1       4.720  -1.272  -1.538  0.00  0.00     0.042 A 
HETATM    7  H           1       4.656  -3.376  -1.070  0.00  0.00     0.165 HD
HETATM    8  C           1       6.029  -0.990  -1.948  0.00  0.00     0.030 A 
HETATM    9  C           1       3.723  -0.298  -1.480  0.00  0.00    -0.002 A 
HETATM   10  C           1       6.323   0.328  -2.309  0.00  0.00     0.002 A 
HETATM   11  C           1       5.347   1.322  -2.261  0.00  0.00     0.001 A 
HETATM   12  C           1       4.043   1.023  -1.848  0.00  0.00     0.014 A 
ENDBRANCH   2   3
ENDBRANCH   1   2
BRANCH   1  13
HETATM   13  C           1      -0.820  -0.653   0.562  0.00  0.00     0.249 C 
HETATM   14  N           1      -1.828  -1.391   1.122  0.00  0.00    -0.345 N 
HETATM   15  H           1      -1.885  -2.386   0.943  0.00  0.00     0.163 HD
HETATM   16  O           1      -0.751   0.534   0.775  0.00  0.00    -0.271 OA
BRANCH  14  17
HETATM   17  C           1      -2.813  -0.749   1.970  0.00  0.00     0.185 C 
BRANCH  17  18
HETATM   18  C           1      -3.543   0.327   1.176  0.00  0.00     0.038 C 
BRANCH  18  19
HETATM   19  C           1      -3.332   1.681   1.842  0.00  0.00     0.030 C 
BRANCH  19  20
HETATM   20  C           1      -4.062   2.756   1.048  0.00  0.00     0.230 C 
BRANCH  20  21
HETATM   21  N           1      -3.855   4.089   1.703  0.00  0.00    -0.079 N 
HETATM   22  H           1      -4.232   4.060   2.678  0.00  0.00     0.274 HD
HETATM   23  H           1      -4.356   4.828   1.159  0.00  0.00     0.274 HD
HETATM   24  H           1      -2.834   4.309   1.731  0.00  0.00     0.274 HD
ENDBRANCH  20  21
ENDBRANCH  19  20
ENDBRANCH  18  19
ENDBRANCH  17  18
BRANCH  17  25
HETATM   25  C           1      -3.806  -1.776   2.454  0.00  0.00     0.196 C 
HETATM   26  O           1      -3.416  -2.753   3.130  0.00  0.00    -0.646 OA
HETATM   27  O           1      -5.019  -1.652   2.178  0.00  0.00    -0.646 OA
ENDBRANCH  17  25
ENDBRANCH  14  17
ENDBRANCH   1  13
BRANCH   1  28
HETATM   28  N           1      -0.482  -1.948  -1.498  0.00  0.00    -0.066 N 
HETATM   29  H           1      -1.169  -2.659  -1.162  0.00  0.00     0.275 HD
HETATM   30  H           1       0.227  -2.411  -2.109  0.00  0.00     0.275 HD
HETATM   31  H           1      -0.982  -1.209  -2.042  0.00  0.00     0.275 HD
ENDBRANCH   1  28
TORSDOF 10
