REMARK  8 active torsions:
REMARK  status: ('A' for Active; 'I' for Inactive)
REMARK    1  A    between atoms: C_3  and  C_12 
REMARK    2  A    between atoms: C_3  and  C_20 
REMARK    3  A    between atoms: C_9  and  C_11 
REMARK    4  A    between atoms: C_10  and  C_14 
REMARK    5  A    between atoms: C_10  and  C_11 
REMARK    6  A    between atoms: C_11  and  N_22 
REMARK    7  A    between atoms: C_12  and  C_13 
REMARK    8  A    between atoms: C_12  and  N_16 
REMARK       I    between atoms: C_13  and  N_22 
ROOT
HETATM    1  C           1      -0.503  -0.694  -0.067  0.00  0.00     0.278 C 
ENDROOT
BRANCH   1   2
HETATM    2  C           1       0.499   0.342  -0.557  0.00  0.00     0.083 C 
BRANCH   2   3
HETATM    3  C           1       1.829  -0.311  -0.772  0.00  0.00    -0.028 A 
HETATM    4  C           1       3.015   0.330  -1.226  0.00  0.00    -0.002 A 
HETATM    5  C           1       4.012  -0.644  -1.284  0.00  0.00     0.042 A 
HETATM    6  C           1       3.335   1.650  -1.595  0.00  0.00     0.014 A 
HETATM    7  C           1       5.320  -0.362  -1.694  0.00  0.00     0.030 A 
HETATM    8  N           1       3.443  -1.830  -0.878  0.00  0.00    -0.365 N 
HETATM    9  C           1       5.615   0.956  -2.055  0.00  0.00     0.002 A 
HETATM   10  C           1       4.639   1.949  -2.007  0.00  0.00     0.001 A 
HETATM   11  C           1       2.122  -1.640  -0.566  0.00  0.00     0.096 A 
HETATM   12  H           1       3.948  -2.749  -0.816  0.00  0.00     0.165 HD
ENDBRANCH   2   3
ENDBRANCH   1   2
BRANCH   1  13
HETATM   13  C           1      -1.528  -0.025   0.816  0.00  0.00     0.249 C 
HETATM   14  O           1      -1.460   1.162   1.029  0.00  0.00    -0.271 OA
HETATM   15  N           1      -2.536  -0.764   1.375  0.00  0.00    -0.344 N 
HETATM   16  H           1      -2.594  -1.758   1.197  0.00  0.00     0.163 HD
BRANCH  15  17
HETATM   17  C           1      -3.521  -0.121   2.223  0.00  0.00     0.195 C 
BRANCH  17  18
HETATM   18  C           1      -4.515  -1.149   2.707  0.00  0.00     0.197 C 
HETATM   19  O           1      -5.728  -1.024   2.432  0.00  0.00    -0.646 OA
HETATM   20  O           1      -4.125  -2.125   3.383  0.00  0.00    -0.646 OA
ENDBRANCH  17  18
BRANCH  17  21
HETATM   21  C           1      -4.251   0.955   1.429  0.00  0.00     0.149 C 
BRANCH  21  22
HETATM   22  C           1      -4.043   2.296   2.089  0.00  0.00     0.175 C 
HETATM   23  O           1      -4.560   3.322   1.596  0.00  0.00    -0.648 OA
HETATM   24  O           1      -3.353   2.381   3.128  0.00  0.00    -0.648 OA
ENDBRANCH  21  22
ENDBRANCH  17  21
ENDBRANCH  15  17
ENDBRANCH   1  13
BRANCH   1  25
HETATM   25  N           1      -1.190  -1.320  -1.244  0.00  0.00    -0.066 N 
HETATM   26  H           1      -1.878  -2.031  -0.908  0.00  0.00     0.275 HD
HETATM   27  H           1      -0.481  -1.783  -1.856  0.00  0.00     0.275 HD
HETATM   28  H           1      -1.690  -0.581  -1.789  0.00  0.00     0.275 HD
ENDBRANCH   1  25
TORSDOF 8
