REMARK  9 active torsions:
REMARK  status: ('A' for Active; 'I' for Inactive)
REMARK    1  A    between atoms: C_1  and  C_31 
REMARK    2  A    between atoms: C_1  and  C_4 
REMARK    3  A    between atoms: C_1  and  N_25 
REMARK    4  A    between atoms: C_4  and  C_14 
REMARK    5  A    between atoms: C_6  and  C_11 
REMARK    6  A    between atoms: C_11  and  C_19 
REMARK    7  A    between atoms: C_11  and  N_20 
REMARK       I    between atoms: N_18  and  C_23 
REMARK    8  A    between atoms: C_19  and  C_29 
REMARK       I    between atoms: N_20  and  C_31 
REMARK    9  A    between atoms: C_23  and  C_29 
ROOT
HETATM    1  C           1       0.085  -1.055  -0.140  0.00  0.00     0.278 C 
ENDROOT
BRANCH   1   2
HETATM    2  C           1      -0.940  -0.386   0.742  0.00  0.00     0.249 C 
HETATM    3  O           1      -0.872   0.801   0.955  0.00  0.00    -0.271 OA
HETATM    4  N           1      -1.948  -1.125   1.302  0.00  0.00    -0.345 N 
HETATM    5  H           1      -2.006  -2.119   1.123  0.00  0.00     0.163 HD
BRANCH   4   6
HETATM    6  C           1      -2.933  -0.482   2.149  0.00  0.00     0.186 C 
BRANCH   6   7
HETATM    7  C           1      -3.926  -1.510   2.633  0.00  0.00     0.196 C 
HETATM    8  O           1      -3.536  -2.486   3.310  0.00  0.00    -0.646 OA
HETATM    9  O           1      -5.139  -1.385   2.358  0.00  0.00    -0.646 OA
ENDBRANCH   6   7
BRANCH   6  10
HETATM   10  C           1      -3.663   0.594   1.356  0.00  0.00     0.045 C 
BRANCH  10  11
HETATM   11  C           1      -3.452   1.947   2.021  0.00  0.00     0.105 C 
BRANCH  11  12
HETATM   12  C           1      -4.175   3.013   1.235  0.00  0.00     0.215 C 
HETATM   13  N           1      -4.878   2.675   0.110  0.00  0.00    -0.370 N 
HETATM   14  H           1      -4.913   1.711  -0.195  0.00  0.00     0.159 HD
HETATM   15  H           1      -5.363   3.390  -0.418  0.00  0.00     0.159 HD
HETATM   16  O           1      -4.134   4.164   1.598  0.00  0.00    -0.274 OA
ENDBRANCH  11  12
ENDBRANCH  10  11
ENDBRANCH   6  10
ENDBRANCH   4   6
ENDBRANCH   1   2
BRANCH   1  17
HETATM   17  C           1       1.088  -0.019  -0.630  0.00  0.00     0.083 C 
BRANCH  17  18
HETATM   18  C           1       2.417  -0.672  -0.845  0.00  0.00    -0.028 A 
HETATM   19  C           1       3.603  -0.031  -1.300  0.00  0.00    -0.002 A 
HETATM   20  C           1       4.600  -1.005  -1.358  0.00  0.00     0.042 A 
HETATM   21  C           1       3.923   1.289  -1.668  0.00  0.00     0.014 A 
HETATM   22  N           1       4.031  -2.191  -0.951  0.00  0.00    -0.365 N 
HETATM   23  C           1       5.909  -0.724  -1.768  0.00  0.00     0.030 A 
HETATM   24  C           1       2.711  -2.001  -0.639  0.00  0.00     0.096 A 
HETATM   25  H           1       4.536  -3.110  -0.890  0.00  0.00     0.165 HD
HETATM   26  C           1       6.203   0.595  -2.129  0.00  0.00     0.002 A 
HETATM   27  C           1       5.227   1.588  -2.081  0.00  0.00     0.001 A 
ENDBRANCH  17  18
ENDBRANCH   1  17
BRANCH   1  28
HETATM   28  N           1      -0.602  -1.681  -1.318  0.00  0.00    -0.066 N 
HETATM   29  H           1       0.107  -2.144  -1.930  0.00  0.00     0.275 HD
HETATM   30  H           1      -1.290  -2.392  -0.982  0.00  0.00     0.275 HD
HETATM   31  H           1      -1.102  -0.942  -1.862  0.00  0.00     0.275 HD
ENDBRANCH   1  28
TORSDOF 9
