REMARK  11 active torsions:
REMARK  status: ('A' for Active; 'I' for Inactive)
REMARK    1  A    between atoms: O_2  and  C_3 
REMARK    2  A    between atoms: O_2  and  P_37 
REMARK    3  A    between atoms: C_11  and  C_17 
REMARK    4  A    between atoms: C_17  and  C_18 
REMARK    5  A    between atoms: C_17  and  N_35 
REMARK    6  A    between atoms: C_18  and  C_19 
REMARK    7  A    between atoms: C_22  and  C_23 
REMARK    8  A    between atoms: C_23  and  C_29 
REMARK    9  A    between atoms: N_24  and  C_29 
REMARK   10  A    between atoms: O_25  and  P_37 
REMARK   11  A    between atoms: C_29  and  C_30 
REMARK       I    between atoms: C_30  and  N_35 
ROOT
HETATM    1  O           1      -0.374   1.683  -0.911  0.00  0.00    -0.271 OA
HETATM    2  C           1      -0.442   0.496  -1.124  0.00  0.00     0.249 C 
HETATM    3  N           1      -1.450  -0.243  -0.565  0.00  0.00    -0.344 N 
HETATM    4  H           1      -1.508  -1.237  -0.743  0.00  0.00     0.163 HD
ENDROOT
BRANCH   3   5
HETATM    5  C           1      -2.435   0.400   0.283  0.00  0.00     0.189 C 
BRANCH   5   6
HETATM    6  C           1      -3.158   1.466  -0.503  0.00  0.00     0.197 C 
HETATM    7  O           1      -3.801   1.157  -1.530  0.00  0.00    -0.646 OA
HETATM    8  O           1      -3.115   2.657  -0.127  0.00  0.00    -0.646 OA
ENDBRANCH   5   6
BRANCH   5   9
HETATM    9  C           1      -1.738   1.037   1.478  0.00  0.00     0.074 C 
BRANCH   9  10
HETATM   10  C           1      -2.265   0.435   2.744  0.00  0.00    -0.056 A 
HETATM   11  C           1      -1.773   0.863   3.977  0.00  0.00     0.010 A 
HETATM   12  C           1      -2.264   0.303   5.156  0.00  0.00     0.038 A 
HETATM   13  C           1      -3.247  -0.685   5.102  0.00  0.00     0.081 A 
HETATM   14  C           1      -3.739  -1.113   3.869  0.00  0.00     0.038 A 
HETATM   15  C           1      -3.248  -0.552   2.690  0.00  0.00     0.010 A 
BRANCH  13  16
HETATM   16  O           1      -3.724  -1.229   6.247  0.00  0.00    -0.247 OA
BRANCH  16  17
HETATM   17  P           1      -4.862  -2.369   6.129  0.00  0.00     0.411 P 
HETATM   18  O           1      -6.050  -1.812   5.444  0.00  0.00    -0.624 OA
HETATM   19  O           1      -5.243  -2.829   7.483  0.00  0.00    -0.624 OA
BRANCH  17  20
HETATM   20  O           1      -4.287  -3.616   5.278  0.00  0.00    -0.300 OA
HETATM   21  H           1      -4.994  -4.238   5.248  0.00  0.00     0.223 HD
ENDBRANCH  17  20
ENDBRANCH  16  17
ENDBRANCH  13  16
ENDBRANCH   9  10
ENDBRANCH   5   9
ENDBRANCH   3   5
BRANCH   2  22
HETATM   22  C           1       0.583  -0.173  -2.006  0.00  0.00     0.278 C 
BRANCH  22  23
HETATM   23  C           1       1.586   0.863  -2.496  0.00  0.00     0.083 C 
BRANCH  23  24
HETATM   24  C           1       2.915   0.209  -2.712  0.00  0.00    -0.028 A 
HETATM   25  C           1       3.209  -1.119  -2.505  0.00  0.00     0.096 A 
HETATM   26  N           1       4.529  -1.310  -2.817  0.00  0.00    -0.365 N 
HETATM   27  C           1       5.098  -0.124  -3.224  0.00  0.00     0.042 A 
HETATM   28  H           1       5.034  -2.228  -2.756  0.00  0.00     0.165 HD
HETATM   29  C           1       6.406   0.158  -3.634  0.00  0.00     0.030 A 
HETATM   30  C           1       4.101   0.850  -3.166  0.00  0.00    -0.002 A 
HETATM   31  C           1       6.701   1.477  -3.995  0.00  0.00     0.002 A 
HETATM   32  C           1       5.725   2.470  -3.947  0.00  0.00     0.001 A 
HETATM   33  C           1       4.421   2.171  -3.534  0.00  0.00     0.014 A 
ENDBRANCH  23  24
ENDBRANCH  22  23
BRANCH  22  34
HETATM   34  N           1      -0.104  -0.799  -3.184  0.00  0.00    -0.066 N 
HETATM   35  H           1      -0.792  -1.511  -2.848  0.00  0.00     0.275 HD
HETATM   36  H           1      -0.604  -0.060  -3.728  0.00  0.00     0.275 HD
HETATM   37  H           1       0.605  -1.262  -3.796  0.00  0.00     0.275 HD
ENDBRANCH  22  34
ENDBRANCH   2  22
TORSDOF 11
