REMARK  8 active torsions:
REMARK  status: ('A' for Active; 'I' for Inactive)
REMARK    1  A    between atoms: N_1  and  C_2 
REMARK    2  A    between atoms: C_2  and  C_15 
REMARK    3  A    between atoms: C_2  and  C_22 
REMARK    4  A    between atoms: C_4  and  C_10 
REMARK    5  A    between atoms: C_6  and  C_22 
REMARK    6  A    between atoms: C_10  and  C_13 
REMARK    7  A    between atoms: C_10  and  N_16 
REMARK    8  A    between atoms: C_13  and  O_14 
REMARK       I    between atoms: C_15  and  N_16 
ROOT
HETATM    1  C           1      -0.312  -0.752  -0.104  0.00  0.00     0.278 C 
ENDROOT
BRANCH   1   2
HETATM    2  N           1      -0.999  -1.378  -1.282  0.00  0.00    -0.066 N 
HETATM    3  H           1      -0.290  -1.841  -1.893  0.00  0.00     0.275 HD
HETATM    4  H           1      -1.687  -2.089  -0.945  0.00  0.00     0.275 HD
HETATM    5  H           1      -1.499  -0.639  -1.826  0.00  0.00     0.275 HD
ENDBRANCH   1   2
BRANCH   1   6
HETATM    6  C           1      -1.337  -0.083   0.778  0.00  0.00     0.249 C 
HETATM    7  O           1      -1.269   1.104   0.991  0.00  0.00    -0.271 OA
HETATM    8  N           1      -2.345  -0.822   1.338  0.00  0.00    -0.343 N 
HETATM    9  H           1      -2.403  -1.816   1.160  0.00  0.00     0.163 HD
BRANCH   8  10
HETATM   10  C           1      -3.330  -0.179   2.186  0.00  0.00     0.214 C 
BRANCH  10  11
HETATM   11  C           1      -4.323  -1.207   2.670  0.00  0.00     0.199 C 
HETATM   12  O           1      -3.933  -2.183   3.346  0.00  0.00    -0.646 OA
HETATM   13  O           1      -5.536  -1.082   2.394  0.00  0.00    -0.646 OA
ENDBRANCH  10  11
BRANCH  10  14
HETATM   14  C           1      -4.060   0.897   1.392  0.00  0.00     0.147 C 
HETATM   15  C           1      -3.849   2.250   2.058  0.00  0.00     0.042 C 
BRANCH  14  16
HETATM   16  O           1      -3.554   0.936   0.085  0.00  0.00    -0.393 OA
HETATM   17  H           1      -3.702   0.085  -0.292  0.00  0.00     0.210 HD
ENDBRANCH  14  16
ENDBRANCH  10  14
ENDBRANCH   8  10
ENDBRANCH   1   6
BRANCH   1  18
HETATM   18  C           1       0.691   0.284  -0.594  0.00  0.00     0.083 C 
BRANCH  18  19
HETATM   19  C           1       2.020  -0.369  -0.809  0.00  0.00    -0.028 A 
HETATM   20  C           1       2.314  -1.698  -0.603  0.00  0.00     0.096 A 
HETATM   21  N           1       3.634  -1.888  -0.915  0.00  0.00    -0.365 N 
HETATM   22  C           1       4.203  -0.702  -1.321  0.00  0.00     0.042 A 
HETATM   23  H           1       4.139  -2.807  -0.853  0.00  0.00     0.165 HD
HETATM   24  C           1       5.512  -0.420  -1.731  0.00  0.00     0.030 A 
HETATM   25  C           1       3.206   0.272  -1.263  0.00  0.00    -0.002 A 
HETATM   26  C           1       5.806   0.898  -2.093  0.00  0.00     0.002 A 
HETATM   27  C           1       4.830   1.892  -2.045  0.00  0.00     0.001 A 
HETATM   28  C           1       3.526   1.592  -1.632  0.00  0.00     0.014 A 
ENDBRANCH  18  19
ENDBRANCH   1  18
TORSDOF 8
