REMARK  8 active torsions:
REMARK  status: ('A' for Active; 'I' for Inactive)
REMARK    1  A    between atoms: C_2  and  C_3 
REMARK    2  A    between atoms: C_2  and  C_22 
REMARK    3  A    between atoms: C_2  and  N_23 
REMARK    4  A    between atoms: C_3  and  O_26 
REMARK    5  A    between atoms: C_4  and  C_5 
REMARK    6  A    between atoms: C_5  and  C_18 
REMARK    7  A    between atoms: N_11  and  C_18 
REMARK    8  A    between atoms: C_18  and  C_21 
REMARK       I    between atoms: C_21  and  N_23 
ROOT
HETATM    1  C           1      -0.592  -0.616   0.019  0.00  0.00     0.278 C 
ENDROOT
BRANCH   1   2
HETATM    2  C           1       0.411   0.420  -0.471  0.00  0.00     0.083 C 
BRANCH   2   3
HETATM    3  C           1       1.740  -0.233  -0.686  0.00  0.00    -0.028 A 
HETATM    4  C           1       2.034  -1.562  -0.480  0.00  0.00     0.096 A 
HETATM    5  N           1       3.354  -1.752  -0.792  0.00  0.00    -0.365 N 
HETATM    6  C           1       3.923  -0.566  -1.199  0.00  0.00     0.042 A 
HETATM    7  H           1       3.859  -2.671  -0.731  0.00  0.00     0.165 HD
HETATM    8  C           1       5.232  -0.284  -1.609  0.00  0.00     0.030 A 
HETATM    9  C           1       2.926   0.408  -1.141  0.00  0.00    -0.002 A 
HETATM   10  C           1       5.526   1.034  -1.970  0.00  0.00     0.002 A 
HETATM   11  C           1       4.550   2.027  -1.922  0.00  0.00     0.001 A 
HETATM   12  C           1       3.246   1.728  -1.509  0.00  0.00     0.014 A 
ENDBRANCH   2   3
ENDBRANCH   1   2
BRANCH   1  13
HETATM   13  N           1      -1.279  -1.242  -1.159  0.00  0.00    -0.066 N 
HETATM   14  H           1      -0.570  -1.705  -1.771  0.00  0.00     0.275 HD
HETATM   15  H           1      -1.967  -1.953  -0.823  0.00  0.00     0.275 HD
HETATM   16  H           1      -1.779  -0.503  -1.703  0.00  0.00     0.275 HD
ENDBRANCH   1  13
BRANCH   1  17
HETATM   17  C           1      -1.617   0.053   0.901  0.00  0.00     0.249 C 
HETATM   18  O           1      -1.549   1.240   1.114  0.00  0.00    -0.271 OA
HETATM   19  N           1      -2.625  -0.686   1.461  0.00  0.00    -0.343 N 
HETATM   20  H           1      -2.683  -1.680   1.282  0.00  0.00     0.163 HD
BRANCH  19  21
HETATM   21  C           1      -3.610  -0.043   2.308  0.00  0.00     0.209 C 
BRANCH  21  22
HETATM   22  C           1      -4.340   1.033   1.515  0.00  0.00     0.200 C 
BRANCH  22  23
HETATM   23  O           1      -4.146   2.279   2.128  0.00  0.00    -0.398 OA
HETATM   24  H           1      -4.611   2.914   1.609  0.00  0.00     0.209 HD
ENDBRANCH  22  23
ENDBRANCH  21  22
BRANCH  21  25
HETATM   25  C           1      -4.604  -1.071   2.792  0.00  0.00     0.198 C 
HETATM   26  O           1      -5.816  -0.946   2.517  0.00  0.00    -0.646 OA
HETATM   27  O           1      -4.213  -2.047   3.469  0.00  0.00    -0.646 OA
ENDBRANCH  21  25
ENDBRANCH  19  21
ENDBRANCH   1  17
TORSDOF 8
