REMARK  5 active torsions:
REMARK  status: ('A' for Active; 'I' for Inactive)
REMARK    1  A    between atoms: C_1  and  C_2 
REMARK       I    between atoms: C_9  and  N_19 
REMARK    2  A    between atoms: C_9  and  C_11 
REMARK    3  A    between atoms: C_11  and  C_13 
REMARK    4  A    between atoms: C_11  and  N_21 
REMARK    5  A    between atoms: C_13  and  C_18 
ROOT
HETATM    1  C           1      -1.258  -1.547   0.011  0.00  0.00     0.279 C 
ENDROOT
BRANCH   1   2
HETATM    2  C           1      -2.283  -0.879   0.894  0.00  0.00     0.251 C 
HETATM    3  N           1      -2.205   0.467   1.135  0.00  0.00    -0.336 N 
HETATM    4  C           1      -2.354   1.151   2.416  0.00  0.00     0.188 C 
HETATM    5  C           1      -1.955   1.531   0.167  0.00  0.00     0.127 C 
HETATM    6  C           1      -1.280   2.224   2.381  0.00  0.00     0.038 C 
HETATM    7  C           1      -1.021   2.477   0.900  0.00  0.00     0.022 C 
HETATM    8  O           1      -3.172  -1.530   1.387  0.00  0.00    -0.271 OA
BRANCH   4   9
HETATM    9  C           1      -3.726   1.767   2.539  0.00  0.00     0.196 C 
HETATM   10  O           1      -4.038   2.397   3.573  0.00  0.00    -0.646 OA
HETATM   11  O           1      -4.551   1.649   1.607  0.00  0.00    -0.646 OA
ENDBRANCH   4   9
ENDBRANCH   1   2
BRANCH   1  12
HETATM   12  C           1      -0.255  -0.511  -0.479  0.00  0.00     0.083 C 
BRANCH  12  13
HETATM   13  C           1       1.074  -1.165  -0.694  0.00  0.00    -0.028 A 
HETATM   14  C           1       1.368  -2.493  -0.488  0.00  0.00     0.096 A 
HETATM   15  N           1       2.688  -2.684  -0.800  0.00  0.00    -0.365 N 
HETATM   16  C           1       3.257  -1.498  -1.206  0.00  0.00     0.042 A 
HETATM   17  H           1       3.193  -3.602  -0.738  0.00  0.00     0.165 HD
HETATM   18  C           1       4.566  -1.216  -1.616  0.00  0.00     0.030 A 
HETATM   19  C           1       2.260  -0.524  -1.148  0.00  0.00    -0.002 A 
HETATM   20  C           1       4.860   0.103  -1.977  0.00  0.00     0.002 A 
HETATM   21  C           1       3.884   1.096  -1.929  0.00  0.00     0.001 A 
HETATM   22  C           1       2.580   0.797  -1.517  0.00  0.00     0.014 A 
ENDBRANCH  12  13
ENDBRANCH   1  12
BRANCH   1  23
HETATM   23  N           1      -1.945  -2.173  -1.166  0.00  0.00    -0.066 N 
HETATM   24  H           1      -1.236  -2.637  -1.778  0.00  0.00     0.275 HD
HETATM   25  H           1      -2.632  -2.885  -0.830  0.00  0.00     0.275 HD
HETATM   26  H           1      -2.445  -1.434  -1.711  0.00  0.00     0.275 HD
ENDBRANCH   1  23
TORSDOF 5
