REMARK  10 active torsions:
REMARK  status: ('A' for Active; 'I' for Inactive)
REMARK    1  A    between atoms: C_2  and  C_3 
REMARK    2  A    between atoms: C_2  and  C_17 
REMARK    3  A    between atoms: C_3  and  N_4 
REMARK       I    between atoms: N_4  and  C_24 
REMARK    4  A    between atoms: C_8  and  C_19 
REMARK       I    between atoms: N_10  and  C_24 
REMARK    5  A    between atoms: C_14  and  C_15 
REMARK    6  A    between atoms: C_14  and  C_19 
REMARK    7  A    between atoms: C_14  and  N_29 
REMARK       I    between atoms: C_15  and  N_21 
REMARK    8  A    between atoms: C_17  and  C_31 
REMARK    9  A    between atoms: N_21  and  C_31 
REMARK   10  A    between atoms: C_30  and  C_31 
ROOT
HETATM    1  C           1       0.112  -0.267   1.418  0.00  0.00     0.249 C 
HETATM    2  N           1      -0.896  -1.006   1.978  0.00  0.00    -0.345 N 
HETATM    3  H           1      -0.954  -2.000   1.800  0.00  0.00     0.163 HD
HETATM    4  O           1       0.180   0.920   1.631  0.00  0.00    -0.271 OA
ENDROOT
BRANCH   1   5
HETATM    5  C           1       1.137  -0.936   0.536  0.00  0.00     0.278 C 
BRANCH   5   6
HETATM    6  C           1       2.139   0.100   0.046  0.00  0.00     0.083 C 
BRANCH   6   7
HETATM    7  C           1       3.469  -0.553  -0.169  0.00  0.00    -0.028 A 
HETATM    8  C           1       3.762  -1.882   0.037  0.00  0.00     0.096 A 
HETATM    9  N           1       5.083  -2.072  -0.275  0.00  0.00    -0.365 N 
HETATM   10  C           1       5.652  -0.886  -0.681  0.00  0.00     0.042 A 
HETATM   11  H           1       5.588  -2.991  -0.213  0.00  0.00     0.165 HD
HETATM   12  C           1       4.655   0.088  -0.623  0.00  0.00    -0.002 A 
HETATM   13  C           1       6.960  -0.605  -1.091  0.00  0.00     0.030 A 
HETATM   14  C           1       4.975   1.408  -0.992  0.00  0.00     0.014 A 
HETATM   15  C           1       6.279   1.707  -1.405  0.00  0.00     0.001 A 
HETATM   16  C           1       7.255   0.714  -1.452  0.00  0.00     0.002 A 
ENDBRANCH   6   7
ENDBRANCH   5   6
BRANCH   5  17
HETATM   17  N           1       0.450  -1.562  -0.641  0.00  0.00    -0.066 N 
HETATM   18  H           1       1.159  -2.025  -1.253  0.00  0.00     0.275 HD
HETATM   19  H           1      -0.238  -2.273  -0.305  0.00  0.00     0.275 HD
HETATM   20  H           1      -0.050  -0.823  -1.186  0.00  0.00     0.275 HD
ENDBRANCH   5  17
ENDBRANCH   1   5
BRANCH   2  21
HETATM   21  C           1      -1.881  -0.363   2.826  0.00  0.00     0.185 C 
BRANCH  21  22
HETATM   22  C           1      -2.611   0.713   2.032  0.00  0.00     0.038 C 
BRANCH  22  23
HETATM   23  C           1      -3.309   0.077   0.837  0.00  0.00     0.023 C 
BRANCH  23  24
HETATM   24  C           1      -4.038   1.153   0.043  0.00  0.00     0.138 C 
BRANCH  24  25
HETATM   25  N           1      -4.711   0.540  -1.111  0.00  0.00    -0.227 N 
HETATM   26  C           1      -5.381   1.259  -1.909  0.00  0.00     0.665 C 
HETATM   27  N           1      -5.976   0.717  -2.930  0.00  0.00    -0.235 N 
HETATM   28  N           1      -5.470   2.507  -1.714  0.00  0.00    -0.235 N 
HETATM   29  H           1      -5.902  -0.313  -3.091  0.00  0.00     0.174 HD
HETATM   30  H           1      -6.528   1.310  -3.589  0.00  0.00     0.174 HD
HETATM   31  H           1      -4.989   2.945  -0.890  0.00  0.00     0.174 HD
HETATM   32  H           1      -6.025   3.103  -2.376  0.00  0.00     0.174 HD
HETATM   33  H           1      -4.637  -0.495  -1.273  0.00  0.00     0.177 HD
ENDBRANCH  24  25
ENDBRANCH  23  24
ENDBRANCH  22  23
ENDBRANCH  21  22
BRANCH  21  34
HETATM   34  C           1      -2.875  -1.391   3.310  0.00  0.00     0.196 C 
HETATM   35  O           1      -2.485  -2.367   3.986  0.00  0.00    -0.646 OA
HETATM   36  O           1      -4.088  -1.266   3.034  0.00  0.00    -0.646 OA
ENDBRANCH  21  34
ENDBRANCH   2  21
TORSDOF 10
