REMARK  8 active torsions:
REMARK  status: ('A' for Active; 'I' for Inactive)
REMARK    1  A    between atoms: C_1  and  C_24 
REMARK    2  A    between atoms: C_1  and  C_2 
REMARK    3  A    between atoms: C_1  and  N_17 
REMARK    4  A    between atoms: C_5  and  C_13 
REMARK    5  A    between atoms: C_5  and  C_18 
REMARK    6  A    between atoms: N_6  and  C_13 
REMARK       I    between atoms: C_8  and  N_17 
REMARK    7  A    between atoms: C_8  and  C_13 
REMARK    8  A    between atoms: C_23  and  C_24 
ROOT
HETATM    1  C           1       0.195  -1.009  -0.253  0.00  0.00     0.278 C 
ENDROOT
BRANCH   1   2
HETATM    2  C           1       1.198   0.027  -0.743  0.00  0.00     0.083 C 
BRANCH   2   3
HETATM    3  C           1       2.527  -0.627  -0.958  0.00  0.00    -0.028 A 
HETATM    4  C           1       3.713   0.014  -1.412  0.00  0.00    -0.002 A 
HETATM    5  C           1       4.710  -0.960  -1.470  0.00  0.00     0.042 A 
HETATM    6  C           1       4.033   1.335  -1.781  0.00  0.00     0.014 A 
HETATM    7  N           1       4.141  -2.146  -1.064  0.00  0.00    -0.365 N 
HETATM    8  C           1       6.019  -0.678  -1.880  0.00  0.00     0.030 A 
HETATM    9  C           1       2.821  -1.956  -0.752  0.00  0.00     0.096 A 
HETATM   10  H           1       4.646  -3.064  -1.002  0.00  0.00     0.165 HD
HETATM   11  C           1       6.313   0.641  -2.241  0.00  0.00     0.002 A 
HETATM   12  C           1       5.337   1.634  -2.194  0.00  0.00     0.001 A 
ENDBRANCH   2   3
ENDBRANCH   1   2
BRANCH   1  13
HETATM   13  N           1      -0.492  -1.635  -1.431  0.00  0.00    -0.066 N 
HETATM   14  H           1       0.217  -2.099  -2.042  0.00  0.00     0.275 HD
HETATM   15  H           1      -1.179  -2.347  -1.094  0.00  0.00     0.275 HD
HETATM   16  H           1      -0.992  -0.897  -1.975  0.00  0.00     0.275 HD
ENDBRANCH   1  13
BRANCH   1  17
HETATM   17  C           1      -0.830  -0.341   0.629  0.00  0.00     0.249 C 
HETATM   18  N           1      -1.838  -1.079   1.189  0.00  0.00    -0.344 N 
HETATM   19  H           1      -1.895  -2.074   1.011  0.00  0.00     0.163 HD
HETATM   20  O           1      -0.761   0.846   0.842  0.00  0.00    -0.271 OA
BRANCH  18  21
HETATM   21  C           1      -2.823  -0.436   2.037  0.00  0.00     0.189 C 
BRANCH  21  22
HETATM   22  C           1      -3.553   0.639   1.243  0.00  0.00     0.014 C 
HETATM   23  C           1      -5.041   0.319   1.205  0.00  0.00     0.012 C 
BRANCH  22  24
HETATM   24  C           1      -3.342   1.993   1.909  0.00  0.00     0.002 C 
HETATM   25  C           1      -2.654   2.938   0.933  0.00  0.00     0.005 C 
ENDBRANCH  22  24
ENDBRANCH  21  22
BRANCH  21  26
HETATM   26  C           1      -3.816  -1.464   2.521  0.00  0.00     0.197 C 
HETATM   27  O           1      -4.375  -1.320   3.630  0.00  0.00    -0.646 OA
HETATM   28  O           1      -4.080  -2.460   1.813  0.00  0.00    -0.646 OA
ENDBRANCH  21  26
ENDBRANCH  18  21
ENDBRANCH   1  17
TORSDOF 8
