REMARK  8 active torsions:
REMARK  status: ('A' for Active; 'I' for Inactive)
REMARK    1  A    between atoms: N_4  and  C_10 
REMARK       I    between atoms: N_4  and  C_8 
REMARK    2  A    between atoms: C_8  and  C_9 
REMARK    3  A    between atoms: C_9  and  C_20 
REMARK    4  A    between atoms: C_9  and  N_30 
REMARK    5  A    between atoms: C_10  and  C_11 
REMARK    6  A    between atoms: C_10  and  C_16 
REMARK    7  A    between atoms: C_11  and  C_21 
REMARK       I    between atoms: N_12  and  C_21 
REMARK    8  A    between atoms: C_20  and  C_25 
ROOT
HETATM    1  C           1      -0.359  -0.812  -0.247  0.00  0.00     0.278 C 
ENDROOT
BRANCH   1   2
HETATM    2  C           1      -1.384  -0.143   0.635  0.00  0.00     0.249 C 
HETATM    3  O           1      -1.315   1.044   0.848  0.00  0.00    -0.271 OA
HETATM    4  N           1      -2.392  -0.881   1.194  0.00  0.00    -0.344 N 
HETATM    5  H           1      -2.449  -1.876   1.016  0.00  0.00     0.163 HD
BRANCH   4   6
HETATM    6  C           1      -3.377  -0.239   2.042  0.00  0.00     0.194 C 
BRANCH   6   7
HETATM    7  C           1      -4.106   0.837   1.249  0.00  0.00     0.138 C 
BRANCH   7   8
HETATM    8  C           1      -3.898   2.178   1.908  0.00  0.00     0.217 C 
HETATM    9  N           1      -3.143   2.271   3.046  0.00  0.00    -0.370 N 
HETATM   10  H           1      -2.724   1.441   3.445  0.00  0.00     0.159 HD
HETATM   11  H           1      -3.003   3.171   3.489  0.00  0.00     0.159 HD
HETATM   12  O           1      -4.397   3.170   1.432  0.00  0.00    -0.274 OA
ENDBRANCH   7   8
ENDBRANCH   6   7
BRANCH   6  13
HETATM   13  C           1      -4.370  -1.266   2.526  0.00  0.00     0.197 C 
HETATM   14  O           1      -5.583  -1.141   2.251  0.00  0.00    -0.646 OA
HETATM   15  O           1      -3.980  -2.243   3.202  0.00  0.00    -0.646 OA
ENDBRANCH   6  13
ENDBRANCH   4   6
ENDBRANCH   1   2
BRANCH   1  16
HETATM   16  C           1       0.644   0.225  -0.737  0.00  0.00     0.083 C 
BRANCH  16  17
HETATM   17  C           1       1.974  -0.429  -0.953  0.00  0.00    -0.028 A 
HETATM   18  C           1       3.159   0.212  -1.407  0.00  0.00    -0.002 A 
HETATM   19  C           1       4.157  -0.762  -1.465  0.00  0.00     0.042 A 
HETATM   20  C           1       3.480   1.533  -1.775  0.00  0.00     0.014 A 
HETATM   21  N           1       3.587  -1.948  -1.059  0.00  0.00    -0.365 N 
HETATM   22  C           1       5.465  -0.480  -1.875  0.00  0.00     0.030 A 
HETATM   23  C           1       2.267  -1.758  -0.746  0.00  0.00     0.096 A 
HETATM   24  H           1       4.093  -2.866  -0.997  0.00  0.00     0.165 HD
HETATM   25  C           1       5.759   0.838  -2.236  0.00  0.00     0.002 A 
HETATM   26  C           1       4.783   1.832  -2.188  0.00  0.00     0.001 A 
ENDBRANCH  16  17
ENDBRANCH   1  16
BRANCH   1  27
HETATM   27  N           1      -1.045  -1.437  -1.425  0.00  0.00    -0.066 N 
HETATM   28  H           1      -1.733  -2.149  -1.089  0.00  0.00     0.275 HD
HETATM   29  H           1      -1.545  -0.699  -1.969  0.00  0.00     0.275 HD
HETATM   30  H           1      -0.336  -1.901  -2.037  0.00  0.00     0.275 HD
ENDBRANCH   1  27
TORSDOF 8
