REMARK  11 active torsions:
REMARK  status: ('A' for Active; 'I' for Inactive)
REMARK       I    between atoms: C_6  and  N_7 
REMARK    1  A    between atoms: C_6  and  C_28 
REMARK    2  A    between atoms: N_7  and  C_8 
REMARK    3  A    between atoms: C_8  and  C_15 
REMARK    4  A    between atoms: C_8  and  C_9 
REMARK    5  A    between atoms: C_12  and  C_28 
REMARK    6  A    between atoms: C_12  and  C_16 
REMARK    7  A    between atoms: N_14  and  C_22 
REMARK    8  A    between atoms: C_15  and  C_21 
REMARK    9  A    between atoms: C_20  and  C_22 
REMARK   10  A    between atoms: C_20  and  C_21 
REMARK   11  A    between atoms: N_27  and  C_28 
ROOT
HETATM    1  C           1      -0.156  -0.181   1.279  0.00  0.00     0.249 C 
HETATM    2  N           1      -1.164  -0.920   1.838  0.00  0.00    -0.345 N 
HETATM    3  H           1      -1.222  -1.914   1.660  0.00  0.00     0.163 HD
HETATM    4  O           1      -0.088   1.006   1.491  0.00  0.00    -0.271 OA
ENDROOT
BRANCH   1   5
HETATM    5  C           1       0.869  -0.850   0.396  0.00  0.00     0.278 C 
BRANCH   5   6
HETATM    6  C           1       1.872   0.186  -0.094  0.00  0.00     0.083 C 
BRANCH   6   7
HETATM    7  C           1       3.201  -0.467  -0.309  0.00  0.00    -0.028 A 
HETATM    8  C           1       4.387   0.174  -0.763  0.00  0.00    -0.002 A 
HETATM    9  C           1       4.707   1.494  -1.132  0.00  0.00     0.014 A 
HETATM   10  C           1       5.384  -0.800  -0.821  0.00  0.00     0.042 A 
HETATM   11  C           1       6.011   1.794  -1.544  0.00  0.00     0.001 A 
HETATM   12  C           1       6.987   0.800  -1.592  0.00  0.00     0.002 A 
HETATM   13  C           1       6.693  -0.518  -1.231  0.00  0.00     0.030 A 
HETATM   14  N           1       4.815  -1.986  -0.415  0.00  0.00    -0.365 N 
HETATM   15  H           1       5.320  -2.905  -0.353  0.00  0.00     0.165 HD
HETATM   16  C           1       3.495  -1.796  -0.103  0.00  0.00     0.096 A 
ENDBRANCH   6   7
ENDBRANCH   5   6
BRANCH   5  17
HETATM   17  N           1       0.182  -1.476  -0.781  0.00  0.00    -0.066 N 
HETATM   18  H           1       0.891  -1.939  -1.393  0.00  0.00     0.275 HD
HETATM   19  H           1      -0.318  -0.737  -1.326  0.00  0.00     0.275 HD
HETATM   20  H           1      -0.505  -2.187  -0.445  0.00  0.00     0.275 HD
ENDBRANCH   5  17
ENDBRANCH   1   5
BRANCH   2  21
HETATM   21  C           1      -2.149  -0.277   2.686  0.00  0.00     0.185 C 
BRANCH  21  22
HETATM   22  C           1      -2.879   0.799   1.892  0.00  0.00     0.036 C 
BRANCH  22  23
HETATM   23  C           1      -3.576   0.163   0.697  0.00  0.00     0.004 C 
BRANCH  23  24
HETATM   24  C           1      -4.306   1.239  -0.097  0.00  0.00     0.027 C 
BRANCH  24  25
HETATM   25  C           1      -5.003   0.604  -1.292  0.00  0.00     0.229 C 
BRANCH  25  26
HETATM   26  N           1      -5.722   1.663  -2.074  0.00  0.00    -0.079 N 
HETATM   27  H           1      -6.201   1.227  -2.895  0.00  0.00     0.274 HD
HETATM   28  H           1      -6.432   2.125  -1.462  0.00  0.00     0.274 HD
HETATM   29  H           1      -5.034   2.375  -2.410  0.00  0.00     0.274 HD
ENDBRANCH  25  26
ENDBRANCH  24  25
ENDBRANCH  23  24
ENDBRANCH  22  23
ENDBRANCH  21  22
BRANCH  21  30
HETATM   30  C           1      -3.142  -1.305   3.170  0.00  0.00     0.196 C 
HETATM   31  O           1      -2.752  -2.281   3.846  0.00  0.00    -0.646 OA
HETATM   32  O           1      -4.355  -1.180   2.895  0.00  0.00    -0.646 OA
ENDBRANCH  21  30
ENDBRANCH   2  21
TORSDOF 11
