REMARK  8 active torsions:
REMARK  status: ('A' for Active; 'I' for Inactive)
REMARK    1  A    between atoms: C_2  and  C_3 
REMARK    2  A    between atoms: C_3  and  C_4 
REMARK    3  A    between atoms: C_4  and  C_30 
REMARK    4  A    between atoms: C_4  and  N_22 
REMARK    5  A    between atoms: N_6  and  C_11 
REMARK    6  A    between atoms: C_11  and  C_23 
REMARK    7  A    between atoms: C_11  and  C_13 
REMARK    8  A    between atoms: C_13  and  C_17 
REMARK       I    between atoms: N_22  and  C_23 
ROOT
HETATM    1  C           1       0.040  -0.492  -1.372  0.00  0.00     0.278 C 
ENDROOT
BRANCH   1   2
HETATM    2  N           1      -0.647  -1.117  -2.550  0.00  0.00    -0.066 N 
HETATM    3  H           1       0.062  -1.581  -3.162  0.00  0.00     0.275 HD
HETATM    4  H           1      -1.335  -1.829  -2.214  0.00  0.00     0.275 HD
HETATM    5  H           1      -1.147  -0.379  -3.094  0.00  0.00     0.275 HD
ENDBRANCH   1   2
BRANCH   1   6
HETATM    6  C           1      -0.985   0.177  -0.490  0.00  0.00     0.249 C 
HETATM    7  O           1      -0.917   1.364  -0.277  0.00  0.00    -0.271 OA
HETATM    8  N           1      -1.993  -0.561   0.069  0.00  0.00    -0.344 N 
HETATM    9  H           1      -2.051  -1.556  -0.109  0.00  0.00     0.163 HD
BRANCH   8  10
HETATM   10  C           1      -2.978   0.081   0.917  0.00  0.00     0.189 C 
BRANCH  10  11
HETATM   11  C           1      -2.281   0.718   2.112  0.00  0.00     0.074 C 
BRANCH  11  12
HETATM   12  C           1      -2.808   0.117   3.378  0.00  0.00    -0.056 A 
HETATM   13  C           1      -2.316   0.545   4.611  0.00  0.00     0.007 A 
HETATM   14  C           1      -2.807  -0.016   5.790  0.00  0.00     0.001 A 
HETATM   15  C           1      -3.790  -1.004   5.736  0.00  0.00     0.000 A 
HETATM   16  C           1      -4.282  -1.431   4.503  0.00  0.00     0.001 A 
HETATM   17  C           1      -3.791  -0.871   3.324  0.00  0.00     0.007 A 
ENDBRANCH  11  12
ENDBRANCH  10  11
BRANCH  10  18
HETATM   18  C           1      -3.701   1.147   0.131  0.00  0.00     0.197 C 
HETATM   19  O           1      -4.344   0.839  -0.896  0.00  0.00    -0.646 OA
HETATM   20  O           1      -3.658   2.339   0.507  0.00  0.00    -0.646 OA
ENDBRANCH  10  18
ENDBRANCH   8  10
ENDBRANCH   1   6
BRANCH   1  21
HETATM   21  C           1       1.042   0.545  -1.862  0.00  0.00     0.083 C 
BRANCH  21  22
HETATM   22  C           1       2.372  -0.109  -2.078  0.00  0.00    -0.028 A 
HETATM   23  C           1       2.665  -1.438  -1.871  0.00  0.00     0.096 A 
HETATM   24  N           1       3.986  -1.628  -2.183  0.00  0.00    -0.365 N 
HETATM   25  H           1       4.491  -2.546  -2.122  0.00  0.00     0.165 HD
HETATM   26  C           1       4.555  -0.442  -2.590  0.00  0.00     0.042 A 
HETATM   27  C           1       5.863  -0.160  -3.000  0.00  0.00     0.030 A 
HETATM   28  C           1       3.558   0.532  -2.532  0.00  0.00    -0.002 A 
HETATM   29  C           1       6.158   1.158  -3.361  0.00  0.00     0.002 A 
HETATM   30  C           1       5.182   2.152  -3.313  0.00  0.00     0.001 A 
HETATM   31  C           1       3.878   1.853  -2.900  0.00  0.00     0.014 A 
ENDBRANCH  21  22
ENDBRANCH   1  21
TORSDOF 8
