REMARK  8 active torsions:
REMARK  status: ('A' for Active; 'I' for Inactive)
REMARK    1  A    between atoms: C_5  and  Se_21 
REMARK    2  A    between atoms: C_5  and  C_6 
REMARK    3  A    between atoms: C_6  and  C_7 
REMARK    4  A    between atoms: C_6  and  N_24 
REMARK    5  A    between atoms: C_13  and  C_26 
REMARK    6  A    between atoms: C_13  and  C_17 
REMARK    7  A    between atoms: C_13  and  N_25 
REMARK    8  A    between atoms: C_17  and  C_19 
REMARK       I    between atoms: N_24  and  C_26 
ROOT
HETATM    1  C           1      -0.587  -0.644   0.018  0.00  0.00     0.278 C 
ENDROOT
BRANCH   1   2
HETATM    2  C           1      -1.612   0.024   0.901  0.00  0.00     0.249 C 
HETATM    3  O           1      -1.544   1.212   1.114  0.00  0.00    -0.271 OA
HETATM    4  N           1      -2.620  -0.714   1.460  0.00  0.00    -0.345 N 
HETATM    5  H           1      -2.678  -1.709   1.282  0.00  0.00     0.163 HD
BRANCH   4   6
HETATM    6  C           1      -3.605  -0.071   2.308  0.00  0.00     0.185 C 
BRANCH   6   7
HETATM    7  C           1      -4.335   1.004   1.515  0.00  0.00     0.039 C 
BRANCH   7   8
HETATM    8 Se           1      -4.066   2.737   2.366  0.00  0.00     0.000 Se
HETATM    9  H           1      -4.868   3.477   1.379  0.00  0.00     0.000 HD
ENDBRANCH   7   8
ENDBRANCH   6   7
BRANCH   6  10
HETATM   10  C           1      -4.599  -1.099   2.792  0.00  0.00     0.196 C 
HETATM   11  O           1      -5.812  -0.974   2.517  0.00  0.00    -0.646 OA
HETATM   12  O           1      -4.209  -2.075   3.468  0.00  0.00    -0.646 OA
ENDBRANCH   6  10
ENDBRANCH   4   6
ENDBRANCH   1   2
BRANCH   1  13
HETATM   13  C           1       0.415   0.392  -0.471  0.00  0.00     0.083 C 
BRANCH  13  14
HETATM   14  C           1       1.745  -0.262  -0.687  0.00  0.00    -0.028 A 
HETATM   15  C           1       2.039  -1.590  -0.481  0.00  0.00     0.096 A 
HETATM   16  N           1       3.359  -1.781  -0.793  0.00  0.00    -0.365 N 
HETATM   17  C           1       3.928  -0.595  -1.199  0.00  0.00     0.042 A 
HETATM   18  H           1       3.864  -2.699  -0.731  0.00  0.00     0.165 HD
HETATM   19  C           1       5.236  -0.313  -1.609  0.00  0.00     0.030 A 
HETATM   20  C           1       2.931   0.379  -1.141  0.00  0.00    -0.002 A 
HETATM   21  C           1       5.531   1.006  -1.970  0.00  0.00     0.002 A 
HETATM   22  C           1       4.555   1.999  -1.922  0.00  0.00     0.001 A 
HETATM   23  C           1       3.251   1.700  -1.510  0.00  0.00     0.014 A 
ENDBRANCH  13  14
ENDBRANCH   1  13
BRANCH   1  24
HETATM   24  N           1      -1.274  -1.270  -1.159  0.00  0.00    -0.066 N 
HETATM   25  H           1      -1.774  -0.532  -1.703  0.00  0.00     0.275 HD
HETATM   26  H           1      -1.962  -1.982  -0.823  0.00  0.00     0.275 HD
HETATM   27  H           1      -0.565  -1.734  -1.771  0.00  0.00     0.275 HD
ENDBRANCH   1  24
TORSDOF 8
