REMARK  10 active torsions:
REMARK  status: ('A' for Active; 'I' for Inactive)
REMARK    1  A    between atoms: C_3  and  C_13 
REMARK    2  A    between atoms: C_3  and  C_20 
REMARK    3  A    between atoms: C_4  and  C_22 
REMARK    4  A    between atoms: C_4  and  O_5 
REMARK    5  A    between atoms: O_5  and  P_10 
REMARK    6  A    between atoms: N_6  and  C_13 
REMARK    7  A    between atoms: P_10  and  O_11 
REMARK    8  A    between atoms: C_13  and  C_19 
REMARK    9  A    between atoms: C_16  and  C_22 
REMARK   10  A    between atoms: N_18  and  C_22 
REMARK       I    between atoms: N_18  and  C_19 
ROOT
HETATM    1  C           1      -0.779  -0.988  -0.558  0.00  0.00     0.278 C 
ENDROOT
BRANCH   1   2
HETATM    2  C           1       0.224   0.048  -1.048  0.00  0.00     0.083 C 
BRANCH   2   3
HETATM    3  C           1       1.554  -0.606  -1.263  0.00  0.00    -0.028 A 
HETATM    4  C           1       2.739   0.035  -1.717  0.00  0.00    -0.002 A 
HETATM    5  C           1       3.737  -0.939  -1.775  0.00  0.00     0.042 A 
HETATM    6  C           1       3.060   1.356  -2.086  0.00  0.00     0.014 A 
HETATM    7  N           1       3.167  -2.125  -1.369  0.00  0.00    -0.365 N 
HETATM    8  C           1       5.045  -0.657  -2.185  0.00  0.00     0.030 A 
HETATM    9  H           1       3.673  -3.043  -1.307  0.00  0.00     0.165 HD
HETATM   10  C           1       1.847  -1.934  -1.057  0.00  0.00     0.096 A 
HETATM   11  C           1       5.339   0.662  -2.546  0.00  0.00     0.002 A 
HETATM   12  C           1       4.364   1.655  -2.498  0.00  0.00     0.001 A 
ENDBRANCH   2   3
ENDBRANCH   1   2
BRANCH   1  13
HETATM   13  N           1      -1.465  -1.614  -1.735  0.00  0.00    -0.066 N 
HETATM   14  H           1      -0.756  -2.078  -2.347  0.00  0.00     0.275 HD
HETATM   15  H           1      -2.153  -2.326  -1.399  0.00  0.00     0.275 HD
HETATM   16  H           1      -1.965  -0.875  -2.280  0.00  0.00     0.275 HD
ENDBRANCH   1  13
BRANCH   1  17
HETATM   17  C           1      -1.804  -0.319   0.325  0.00  0.00     0.249 C 
HETATM   18  O           1      -1.735   0.868   0.538  0.00  0.00    -0.271 OA
HETATM   19  N           1      -2.812  -1.058   0.884  0.00  0.00    -0.343 N 
HETATM   20  H           1      -2.869  -2.052   0.706  0.00  0.00     0.163 HD
BRANCH  19  21
HETATM   21  C           1      -3.797  -0.415   1.732  0.00  0.00     0.210 C 
BRANCH  21  22
HETATM   22  C           1      -3.099   0.222   2.927  0.00  0.00     0.217 C 
BRANCH  22  23
HETATM   23  O           1      -2.177   1.176   2.476  0.00  0.00    -0.287 OA
BRANCH  23  24
HETATM   24  P           1      -1.344   1.952   3.621  0.00  0.00     0.406 P 
HETATM   25  O           1      -0.567   0.974   4.416  0.00  0.00    -0.624 OA
HETATM   26  O           1      -2.282   2.675   4.509  0.00  0.00    -0.624 OA
BRANCH  24  27
HETATM   27  O           1      -0.334   3.007   2.931  0.00  0.00    -0.300 OA
HETATM   28  H           1       0.115   3.420   3.648  0.00  0.00     0.223 HD
ENDBRANCH  24  27
ENDBRANCH  23  24
ENDBRANCH  22  23
ENDBRANCH  21  22
BRANCH  21  29
HETATM   29  C           1      -4.520   0.651   0.946  0.00  0.00     0.198 C 
HETATM   30  O           1      -5.162   0.342  -0.081  0.00  0.00    -0.646 OA
HETATM   31  O           1      -4.476   1.842   1.321  0.00  0.00    -0.646 OA
ENDBRANCH  21  29
ENDBRANCH  19  21
ENDBRANCH   1  17
TORSDOF 10
