REMARK  7 active torsions:
REMARK  status: ('A' for Active; 'I' for Inactive)
REMARK       I    between atoms: C_6  and  N_11 
REMARK    1  A    between atoms: C_6  and  C_7 
REMARK    2  A    between atoms: C_7  and  C_20 
REMARK    3  A    between atoms: C_7  and  N_24 
REMARK    4  A    between atoms: N_11  and  C_21 
REMARK    5  A    between atoms: C_14  and  C_21 
REMARK    6  A    between atoms: C_15  and  C_21 
REMARK    7  A    between atoms: C_18  and  C_20 
ROOT
HETATM    1  C           1       0.026  -0.783  -0.211  0.00  0.00     0.278 C 
ENDROOT
BRANCH   1   2
HETATM    2  C           1      -0.999  -0.114   0.672  0.00  0.00     0.249 C 
HETATM    3  O           1      -0.930   1.073   0.885  0.00  0.00    -0.271 OA
HETATM    4  N           1      -2.007  -0.852   1.231  0.00  0.00    -0.344 N 
HETATM    5  H           1      -2.065  -1.847   1.053  0.00  0.00     0.163 HD
BRANCH   4   6
HETATM    6  C           1      -2.992  -0.210   2.079  0.00  0.00     0.189 C 
BRANCH   6   7
HETATM    7  C           1      -3.722   0.866   1.285  0.00  0.00     0.010 C 
HETATM    8  C           1      -3.511   2.220   1.951  0.00  0.00     0.012 C 
HETATM    9  C           1      -5.210   0.546   1.247  0.00  0.00     0.012 C 
ENDBRANCH   6   7
BRANCH   6  10
HETATM   10  C           1      -3.985  -1.237   2.563  0.00  0.00     0.197 C 
HETATM   11  O           1      -4.544  -1.093   3.672  0.00  0.00    -0.646 OA
HETATM   12  O           1      -4.249  -2.233   1.855  0.00  0.00    -0.646 OA
ENDBRANCH   6  10
ENDBRANCH   4   6
ENDBRANCH   1   2
BRANCH   1  13
HETATM   13  C           1       1.029   0.254  -0.701  0.00  0.00     0.083 C 
BRANCH  13  14
HETATM   14  C           1       2.358  -0.400  -0.916  0.00  0.00    -0.028 A 
HETATM   15  C           1       3.544   0.241  -1.370  0.00  0.00    -0.002 A 
HETATM   16  C           1       4.541  -0.733  -1.428  0.00  0.00     0.042 A 
HETATM   17  C           1       3.864   1.562  -1.739  0.00  0.00     0.014 A 
HETATM   18  N           1       3.972  -1.919  -1.022  0.00  0.00    -0.365 N 
HETATM   19  C           1       5.850  -0.451  -1.838  0.00  0.00     0.030 A 
HETATM   20  C           1       2.652  -1.729  -0.710  0.00  0.00     0.096 A 
HETATM   21  H           1       4.477  -2.837  -0.960  0.00  0.00     0.165 HD
HETATM   22  C           1       6.144   0.868  -2.199  0.00  0.00     0.002 A 
HETATM   23  C           1       5.168   1.861  -2.151  0.00  0.00     0.001 A 
ENDBRANCH  13  14
ENDBRANCH   1  13
BRANCH   1  24
HETATM   24  N           1      -0.661  -1.408  -1.388  0.00  0.00    -0.066 N 
HETATM   25  H           1      -1.161  -0.670  -1.933  0.00  0.00     0.275 HD
HETATM   26  H           1      -1.348  -2.120  -1.052  0.00  0.00     0.275 HD
HETATM   27  H           1       0.048  -1.872  -2.000  0.00  0.00     0.275 HD
ENDBRANCH   1  24
TORSDOF 7
