REMARK  9 active torsions:
REMARK  status: ('A' for Active; 'I' for Inactive)
REMARK    1  A    between atoms: C_3  and  Se_16 
REMARK    2  A    between atoms: C_3  and  C_10 
REMARK    3  A    between atoms: C_7  and  C_8 
REMARK    4  A    between atoms: C_8  and  C_9 
REMARK    5  A    between atoms: C_9  and  C_11 
REMARK    6  A    between atoms: C_9  and  N_24 
REMARK    7  A    between atoms: C_10  and  C_20 
REMARK       I    between atoms: C_11  and  N_15 
REMARK    8  A    between atoms: N_15  and  C_20 
REMARK    9  A    between atoms: C_20  and  C_26 
ROOT
HETATM    1  C           1      -0.005  -1.245  -0.324  0.00  0.00     0.278 C 
ENDROOT
BRANCH   1   2
HETATM    2  C           1       0.997  -0.208  -0.814  0.00  0.00     0.083 C 
BRANCH   2   3
HETATM    3  C           1       2.327  -0.862  -1.029  0.00  0.00    -0.028 A 
HETATM    4  C           1       2.620  -2.191  -0.823  0.00  0.00     0.096 A 
HETATM    5  N           1       3.940  -2.381  -1.135  0.00  0.00    -0.365 N 
HETATM    6  H           1       4.446  -3.299  -1.073  0.00  0.00     0.165 HD
HETATM    7  C           1       4.510  -1.195  -1.541  0.00  0.00     0.042 A 
HETATM    8  C           1       5.818  -0.913  -1.951  0.00  0.00     0.030 A 
HETATM    9  C           1       3.512  -0.221  -1.483  0.00  0.00    -0.002 A 
HETATM   10  C           1       6.112   0.405  -2.312  0.00  0.00     0.002 A 
HETATM   11  C           1       5.137   1.399  -2.264  0.00  0.00     0.001 A 
HETATM   12  C           1       3.833   1.100  -1.852  0.00  0.00     0.014 A 
ENDBRANCH   2   3
ENDBRANCH   1   2
BRANCH   1  13
HETATM   13  C           1      -1.031  -0.576   0.559  0.00  0.00     0.249 C 
HETATM   14  N           1      -2.039  -1.314   1.118  0.00  0.00    -0.345 N 
HETATM   15  H           1      -2.096  -2.309   0.940  0.00  0.00     0.163 HD
HETATM   16  O           1      -0.962   0.611   0.772  0.00  0.00    -0.271 OA
BRANCH  14  17
HETATM   17  C           1      -3.024  -0.672   1.966  0.00  0.00     0.185 C 
BRANCH  17  18
HETATM   18  C           1      -3.753   0.404   1.173  0.00  0.00     0.036 C 
BRANCH  18  19
HETATM   19  C           1      -3.543   1.758   1.838  0.00  0.00     0.003 C 
BRANCH  19  20
HETATM   20 Se           1      -4.477   3.134   0.822  0.00  0.00     0.000 Se
HETATM   21  C           1      -3.941   4.595   1.996  0.00  0.00     0.000 C 
ENDBRANCH  19  20
ENDBRANCH  18  19
ENDBRANCH  17  18
BRANCH  17  22
HETATM   22  C           1      -4.017  -1.699   2.450  0.00  0.00     0.196 C 
HETATM   23  O           1      -3.627  -2.676   3.126  0.00  0.00    -0.646 OA
HETATM   24  O           1      -5.230  -1.575   2.175  0.00  0.00    -0.646 OA
ENDBRANCH  17  22
ENDBRANCH  14  17
ENDBRANCH   1  13
BRANCH   1  25
HETATM   25  N           1      -0.692  -1.870  -1.501  0.00  0.00    -0.066 N 
HETATM   26  H           1       0.017  -2.334  -2.113  0.00  0.00     0.275 HD
HETATM   27  H           1      -1.192  -1.132  -2.046  0.00  0.00     0.275 HD
HETATM   28  H           1      -1.380  -2.582  -1.165  0.00  0.00     0.275 HD
ENDBRANCH   1  25
TORSDOF 9
