REMARK  8 active torsions:
REMARK  status: ('A' for Active; 'I' for Inactive)
REMARK    1  A    between atoms: C_4  and  C_10 
REMARK    2  A    between atoms: C_10  and  C_25 
REMARK    3  A    between atoms: C_10  and  N_20 
REMARK    4  A    between atoms: S_12  and  C_25 
REMARK    5  A    between atoms: N_15  and  C_26 
REMARK       I    between atoms: N_20  and  C_21 
REMARK    6  A    between atoms: C_21  and  C_26 
REMARK    7  A    between atoms: C_23  and  C_24 
REMARK    8  A    between atoms: C_24  and  C_26 
ROOT
HETATM    1  C           1      -0.588  -0.637   0.019  0.00  0.00     0.278 C 
ENDROOT
BRANCH   1   2
HETATM    2  N           1      -1.275  -1.263  -1.159  0.00  0.00    -0.066 N 
HETATM    3  H           1      -1.775  -0.524  -1.703  0.00  0.00     0.275 HD
HETATM    4  H           1      -1.963  -1.975  -0.822  0.00  0.00     0.275 HD
HETATM    5  H           1      -0.566  -1.727  -1.770  0.00  0.00     0.275 HD
ENDBRANCH   1   2
BRANCH   1   6
HETATM    6  C           1      -1.613   0.032   0.901  0.00  0.00     0.249 C 
HETATM    7  O           1      -1.545   1.219   1.114  0.00  0.00    -0.271 OA
HETATM    8  N           1      -2.621  -0.707   1.461  0.00  0.00    -0.344 N 
HETATM    9  H           1      -2.679  -1.701   1.282  0.00  0.00     0.163 HD
BRANCH   8  10
HETATM   10  C           1      -3.606  -0.064   2.309  0.00  0.00     0.194 C 
BRANCH  10  11
HETATM   11  C           1      -4.600  -1.092   2.793  0.00  0.00     0.197 C 
HETATM   12  O           1      -4.210  -2.068   3.469  0.00  0.00    -0.646 OA
HETATM   13  O           1      -5.813  -0.967   2.517  0.00  0.00    -0.646 OA
ENDBRANCH  10  11
BRANCH  10  14
HETATM   14  C           1      -4.336   1.012   1.515  0.00  0.00     0.106 C 
BRANCH  14  15
HETATM   15  S           1      -4.085   2.625   2.308  0.00  0.00    -0.180 SA
HETATM   16  H           1      -4.811   3.331   1.423  0.00  0.00     0.101 HD
ENDBRANCH  14  15
ENDBRANCH  10  14
ENDBRANCH   8  10
ENDBRANCH   1   6
BRANCH   1  17
HETATM   17  C           1       0.414   0.399  -0.471  0.00  0.00     0.083 C 
BRANCH  17  18
HETATM   18  C           1       1.744  -0.255  -0.686  0.00  0.00    -0.028 A 
HETATM   19  C           1       2.037  -1.583  -0.480  0.00  0.00     0.096 A 
HETATM   20  N           1       3.358  -1.774  -0.792  0.00  0.00    -0.365 N 
HETATM   21  H           1       3.863  -2.692  -0.731  0.00  0.00     0.165 HD
HETATM   22  C           1       3.927  -0.588  -1.198  0.00  0.00     0.042 A 
HETATM   23  C           1       5.235  -0.306  -1.609  0.00  0.00     0.030 A 
HETATM   24  C           1       2.930   0.386  -1.141  0.00  0.00    -0.002 A 
HETATM   25  C           1       5.530   1.013  -1.970  0.00  0.00     0.002 A 
HETATM   26  C           1       4.554   2.006  -1.922  0.00  0.00     0.001 A 
HETATM   27  C           1       3.250   1.707  -1.509  0.00  0.00     0.014 A 
ENDBRANCH  17  18
ENDBRANCH   1  17
TORSDOF 8
