REMARK  9 active torsions:
REMARK  status: ('A' for Active; 'I' for Inactive)
REMARK       I    between atoms: C_1  and  N_10 
REMARK    1  A    between atoms: C_1  and  C_22 
REMARK    2  A    between atoms: C_2  and  C_19 
REMARK    3  A    between atoms: C_2  and  C_17 
REMARK    4  A    between atoms: C_3  and  C_17 
REMARK    5  A    between atoms: C_9  and  C_23 
REMARK    6  A    between atoms: N_10  and  C_17 
REMARK    7  A    between atoms: N_11  and  C_22 
REMARK    8  A    between atoms: S_18  and  C_19 
REMARK    9  A    between atoms: C_22  and  C_23 
ROOT
HETATM    1  C           1      -0.007  -1.228  -0.321  0.00  0.00     0.278 C 
ENDROOT
BRANCH   1   2
HETATM    2  C           1      -1.032  -0.559   0.561  0.00  0.00     0.249 C 
HETATM    3  N           1      -2.040  -1.298   1.121  0.00  0.00    -0.345 N 
HETATM    4  H           1      -2.097  -2.292   0.942  0.00  0.00     0.163 HD
HETATM    5  O           1      -0.963   0.628   0.774  0.00  0.00    -0.271 OA
BRANCH   3   6
HETATM    6  C           1      -3.025  -0.655   1.969  0.00  0.00     0.186 C 
BRANCH   6   7
HETATM    7  C           1      -3.755   0.421   1.175  0.00  0.00     0.046 C 
BRANCH   7   8
HETATM    8  C           1      -3.544   1.774   1.840  0.00  0.00     0.076 C 
BRANCH   8   9
HETATM    9  S           1      -4.414   3.056   0.895  0.00  0.00    -0.173 SA
HETATM   10  C           1      -3.939   4.447   1.960  0.00  0.00     0.089 C 
ENDBRANCH   8   9
ENDBRANCH   7   8
ENDBRANCH   6   7
BRANCH   6  11
HETATM   11  C           1      -4.018  -1.683   2.452  0.00  0.00     0.196 C 
HETATM   12  O           1      -3.628  -2.659   3.129  0.00  0.00    -0.646 OA
HETATM   13  O           1      -5.231  -1.558   2.177  0.00  0.00    -0.646 OA
ENDBRANCH   6  11
ENDBRANCH   3   6
ENDBRANCH   1   2
BRANCH   1  14
HETATM   14  N           1      -0.694  -1.854  -1.499  0.00  0.00    -0.066 N 
HETATM   15  H           1       0.015  -2.317  -2.111  0.00  0.00     0.275 HD
HETATM   16  H           1      -1.381  -2.565  -1.163  0.00  0.00     0.275 HD
HETATM   17  H           1      -1.194  -1.115  -2.043  0.00  0.00     0.275 HD
ENDBRANCH   1  14
BRANCH   1  18
HETATM   18  C           1       0.996  -0.192  -0.811  0.00  0.00     0.083 C 
BRANCH  18  19
HETATM   19  C           1       2.325  -0.845  -1.026  0.00  0.00    -0.028 A 
HETATM   20  C           1       3.511  -0.204  -1.481  0.00  0.00    -0.002 A 
HETATM   21  C           1       4.508  -1.178  -1.539  0.00  0.00     0.042 A 
HETATM   22  C           1       3.831   1.116  -1.849  0.00  0.00     0.014 A 
HETATM   23  C           1       5.817  -0.896  -1.949  0.00  0.00     0.030 A 
HETATM   24  N           1       3.939  -2.364  -1.132  0.00  0.00    -0.365 N 
HETATM   25  C           1       6.111   0.422  -2.310  0.00  0.00     0.002 A 
HETATM   26  C           1       5.135   1.415  -2.262  0.00  0.00     0.001 A 
HETATM   27  C           1       2.619  -2.174  -0.820  0.00  0.00     0.096 A 
HETATM   28  H           1       4.444  -3.283  -1.071  0.00  0.00     0.165 HD
ENDBRANCH  18  19
ENDBRANCH   1  18
TORSDOF 9
