REMARK  9 active torsions:
REMARK  status: ('A' for Active; 'I' for Inactive)
REMARK    1  A    between atoms: N_6  and  C_13 
REMARK    2  A    between atoms: C_8  and  C_17 
REMARK    3  A    between atoms: C_8  and  C_10 
REMARK    4  A    between atoms: C_10  and  C_27 
REMARK    5  A    between atoms: N_11  and  C_27 
REMARK       I    between atoms: N_11  and  C_29 
REMARK    6  A    between atoms: C_12  and  C_13 
REMARK    7  A    between atoms: C_12  and  C_23 
REMARK    8  A    between atoms: C_13  and  C_29 
REMARK    9  A    between atoms: C_25  and  C_27 
ROOT
HETATM    1  C           1      -0.161  -0.935  -0.158  0.00  0.00     0.278 C 
ENDROOT
BRANCH   1   2
HETATM    2  N           1      -0.848  -1.561  -1.335  0.00  0.00    -0.066 N 
HETATM    3  H           1      -0.139  -2.025  -1.947  0.00  0.00     0.275 HD
HETATM    4  H           1      -1.536  -2.273  -0.999  0.00  0.00     0.275 HD
HETATM    5  H           1      -1.348  -0.822  -1.879  0.00  0.00     0.275 HD
ENDBRANCH   1   2
BRANCH   1   6
HETATM    6  C           1       0.842   0.101  -0.647  0.00  0.00     0.083 C 
BRANCH   6   7
HETATM    7  C           1       2.171  -0.553  -0.863  0.00  0.00    -0.028 A 
HETATM    8  C           1       2.465  -1.881  -0.656  0.00  0.00     0.096 A 
HETATM    9  N           1       3.785  -2.072  -0.969  0.00  0.00    -0.365 N 
HETATM   10  H           1       4.290  -2.990  -0.907  0.00  0.00     0.165 HD
HETATM   11  C           1       4.354  -0.886  -1.375  0.00  0.00     0.042 A 
HETATM   12  C           1       5.663  -0.604  -1.785  0.00  0.00     0.030 A 
HETATM   13  C           1       3.357   0.088  -1.317  0.00  0.00    -0.002 A 
HETATM   14  C           1       5.957   0.715  -2.146  0.00  0.00     0.002 A 
HETATM   15  C           1       4.981   1.708  -2.098  0.00  0.00     0.001 A 
HETATM   16  C           1       3.677   1.409  -1.685  0.00  0.00     0.014 A 
ENDBRANCH   6   7
ENDBRANCH   1   6
BRANCH   1  17
HETATM   17  C           1      -1.186  -0.266   0.725  0.00  0.00     0.249 C 
HETATM   18  O           1      -1.118   0.921   0.938  0.00  0.00    -0.271 OA
HETATM   19  N           1      -2.194  -1.005   1.284  0.00  0.00    -0.345 N 
HETATM   20  H           1      -2.252  -2.000   1.106  0.00  0.00     0.163 HD
BRANCH  19  21
HETATM   21  C           1      -3.179  -0.362   2.132  0.00  0.00     0.186 C 
BRANCH  21  22
HETATM   22  C           1      -3.909   0.713   1.339  0.00  0.00     0.046 C 
BRANCH  22  23
HETATM   23  C           1      -3.699   2.067   2.004  0.00  0.00     0.116 C 
BRANCH  23  24
HETATM   24  C           1      -4.422   3.133   1.218  0.00  0.00     0.172 C 
HETATM   25  O           1      -5.063   2.824   0.190  0.00  0.00    -0.648 OA
HETATM   26  O           1      -4.379   4.324   1.594  0.00  0.00    -0.648 OA
ENDBRANCH  23  24
ENDBRANCH  22  23
ENDBRANCH  21  22
BRANCH  21  27
HETATM   27  C           1      -4.173  -1.390   2.616  0.00  0.00     0.196 C 
HETATM   28  O           1      -3.782  -2.366   3.292  0.00  0.00    -0.646 OA
HETATM   29  O           1      -5.385  -1.265   2.341  0.00  0.00    -0.646 OA
ENDBRANCH  21  27
ENDBRANCH  19  21
ENDBRANCH   1  17
TORSDOF 9
