REMARK  8 active torsions:
REMARK  status: ('A' for Active; 'I' for Inactive)
REMARK    1  A    between atoms: N_1  and  C_19 
REMARK    2  A    between atoms: C_6  and  C_17 
REMARK    3  A    between atoms: N_11  and  C_23 
REMARK       I    between atoms: N_11  and  C_22 
REMARK    4  A    between atoms: C_17  and  C_23 
REMARK    5  A    between atoms: C_18  and  C_23 
REMARK    6  A    between atoms: C_19  and  C_22 
REMARK    7  A    between atoms: C_19  and  C_21 
REMARK    8  A    between atoms: C_21  and  C_25 
ROOT
HETATM    1  C           1       0.030  -1.068  -0.512  0.00  0.00     0.260 C 
ENDROOT
BRANCH   1   2
HETATM    2  N           1      -0.657  -1.693  -1.689  0.00  0.00    -0.067 N 
HETATM    3  H           1       0.052  -2.157  -2.301  0.00  0.00     0.275 HD
HETATM    4  H           1      -1.344  -2.405  -1.353  0.00  0.00     0.275 HD
HETATM    5  H           1      -1.157  -0.955  -2.234  0.00  0.00     0.275 HD
ENDBRANCH   1   2
BRANCH   1   6
HETATM    6  C           1      -0.995  -0.399   0.371  0.00  0.00     0.130 C 
HETATM    7  N           1      -2.003  -1.137   0.930  0.00  0.00    -0.359 N 
HETATM    8  H           1      -2.060  -2.132   0.752  0.00  0.00     0.162 HD
HETATM    9  O           1      -0.926   0.788   0.584  0.00  0.00    -0.397 OA
BRANCH   7  10
HETATM   10  C           1      -2.988  -0.495   1.778  0.00  0.00     0.184 C 
BRANCH  10  11
HETATM   11  C           1      -3.718   0.581   0.984  0.00  0.00     0.040 C 
BRANCH  11  12
HETATM   12  C           1      -3.507   1.935   1.650  0.00  0.00    -0.018 C 
HETATM   13  C           1      -2.019   2.256   1.690  0.00  0.00     0.289 C 
HETATM   14  C           1      -4.055   1.892   3.071  0.00  0.00     0.009 C 
ENDBRANCH  11  12
ENDBRANCH  10  11
BRANCH  10  15
HETATM   15  C           1      -3.981  -1.522   2.262  0.00  0.00     0.196 C 
HETATM   16  O           1      -3.591  -2.499   2.938  0.00  0.00    -0.646 OA
HETATM   17  O           1      -5.194  -1.397   1.987  0.00  0.00    -0.646 OA
ENDBRANCH  10  15
ENDBRANCH   7  10
ENDBRANCH   1   6
BRANCH   1  18
HETATM   18  C           1       1.033  -0.031  -1.002  0.00  0.00     0.082 C 
BRANCH  18  19
HETATM   19  C           1       2.362  -0.685  -1.217  0.00  0.00    -0.028 A 
HETATM   20  C           1       3.548  -0.044  -1.671  0.00  0.00    -0.002 A 
HETATM   21  C           1       4.545  -1.018  -1.729  0.00  0.00     0.042 A 
HETATM   22  C           1       3.868   1.277  -2.040  0.00  0.00     0.014 A 
HETATM   23  C           1       5.854  -0.736  -2.139  0.00  0.00     0.030 A 
HETATM   24  N           1       3.976  -2.204  -1.323  0.00  0.00    -0.365 N 
HETATM   25  C           1       6.148   0.582  -2.500  0.00  0.00     0.002 A 
HETATM   26  C           1       5.172   1.576  -2.452  0.00  0.00     0.001 A 
HETATM   27  H           1       4.481  -3.122  -1.261  0.00  0.00     0.165 HD
HETATM   28  C           1       2.656  -2.014  -1.011  0.00  0.00     0.096 A 
ENDBRANCH  18  19
ENDBRANCH   1  18
TORSDOF 8
