REMARK  8 active torsions:
REMARK  status: ('A' for Active; 'I' for Inactive)
REMARK    1  A    between atoms: C_3  and  C_25 
REMARK    2  A    between atoms: C_3  and  C_11 
REMARK    3  A    between atoms: C_5  and  C_30 
REMARK    4  A    between atoms: N_6  and  C_25 
REMARK    5  A    between atoms: N_15  and  C_31 
REMARK       I    between atoms: N_15  and  C_24 
REMARK    6  A    between atoms: C_24  and  C_25 
REMARK    7  A    between atoms: C_26  and  C_31 
REMARK    8  A    between atoms: C_30  and  C_31 
ROOT
HETATM    1  H           1      -2.318  -1.629   0.210  0.00  0.00     0.163 HD
HETATM    2  N           1      -2.261  -0.635   0.388  0.00  0.00    -0.344 N 
HETATM    3  O           1      -1.184   1.291   0.041  0.00  0.00    -0.271 OA
HETATM    4  C           1      -1.253   0.104  -0.171  0.00  0.00     0.249 C 
ENDROOT
BRANCH   4   5
HETATM    5  C           1      -0.228  -0.565  -1.054  0.00  0.00     0.278 C 
BRANCH   5   6
HETATM    6  C           1       0.775   0.471  -1.544  0.00  0.00     0.083 C 
BRANCH   6   7
HETATM    7  C           1       2.104  -0.182  -1.759  0.00  0.00    -0.028 A 
HETATM    8  C           1       3.290   0.459  -2.213  0.00  0.00    -0.002 A 
HETATM    9  C           1       3.610   1.779  -2.582  0.00  0.00     0.014 A 
HETATM   10  C           1       4.287  -0.515  -2.271  0.00  0.00     0.042 A 
HETATM   11  C           1       4.914   2.078  -2.994  0.00  0.00     0.001 A 
HETATM   12  C           1       5.890   1.085  -3.042  0.00  0.00     0.002 A 
HETATM   13  C           1       5.596  -0.234  -2.681  0.00  0.00     0.030 A 
HETATM   14  N           1       3.718  -1.701  -1.865  0.00  0.00    -0.365 N 
HETATM   15  H           1       4.223  -2.620  -1.803  0.00  0.00     0.165 HD
HETATM   16  C           1       2.398  -1.511  -1.553  0.00  0.00     0.096 A 
ENDBRANCH   6   7
ENDBRANCH   5   6
BRANCH   5  17
HETATM   17  N           1      -0.915  -1.191  -2.231  0.00  0.00    -0.066 N 
HETATM   18  H           1      -0.206  -1.654  -2.843  0.00  0.00     0.275 HD
HETATM   19  H           1      -1.602  -1.902  -1.895  0.00  0.00     0.275 HD
HETATM   20  H           1      -1.415  -0.452  -2.776  0.00  0.00     0.275 HD
ENDBRANCH   5  17
ENDBRANCH   4   5
BRANCH   2  21
HETATM   21  C           1      -3.246   0.008   1.236  0.00  0.00     0.191 C 
BRANCH  21  22
HETATM   22  C           1      -3.969   1.074   0.450  0.00  0.00     0.197 C 
HETATM   23  O           1      -4.611   0.765  -0.577  0.00  0.00    -0.646 OA
HETATM   24  O           1      -3.925   2.265   0.825  0.00  0.00    -0.646 OA
ENDBRANCH  21  22
BRANCH  21  25
HETATM   25  C           1      -2.548   0.645   2.431  0.00  0.00     0.094 C 
BRANCH  25  26
HETATM   26  C           1      -3.075   0.044   3.696  0.00  0.00     0.028 A 
HETATM   27  C           1      -2.660   0.392   4.959  0.00  0.00     0.114 A 
HETATM   28  N           1      -3.394  -0.394   5.803  0.00  0.00    -0.360 N 
HETATM   29  C           1      -4.209  -1.173   5.033  0.00  0.00     0.180 A 
HETATM   30  H           1      -3.340  -0.398   6.852  0.00  0.00     0.166 HD
HETATM   31  N           1      -4.039  -0.930   3.754  0.00  0.00    -0.354 N 
ATOM     32  HN          1      -4.521  -1.371   2.971  1.00  0.00     0.166 HD
ENDBRANCH  25  26
ENDBRANCH  21  25
ENDBRANCH   2  21
TORSDOF 8
