REMARK  6 active torsions:
REMARK  status: ('A' for Active; 'I' for Inactive)
REMARK    1  A    between atoms: C_1  and  C_21 
REMARK    2  A    between atoms: C_4  and  C_5 
REMARK    3  A    between atoms: C_5  and  C_23 
REMARK    4  A    between atoms: N_9  and  C_23 
REMARK    5  A    between atoms: C_21  and  N_22 
REMARK       I    between atoms: N_22  and  C_24 
REMARK    6  A    between atoms: C_23  and  C_24 
ROOT
HETATM    1  C           1      -0.716  -0.530   0.066  0.00  0.00     0.278 C 
ENDROOT
BRANCH   1   2
HETATM    2  C           1       0.287   0.506  -0.424  0.00  0.00     0.083 C 
BRANCH   2   3
HETATM    3  C           1       1.616  -0.148  -0.640  0.00  0.00    -0.028 A 
HETATM    4  C           1       1.910  -1.476  -0.433  0.00  0.00     0.096 A 
HETATM    5  N           1       3.230  -1.667  -0.745  0.00  0.00    -0.365 N 
HETATM    6  H           1       3.735  -2.585  -0.684  0.00  0.00     0.165 HD
HETATM    7  C           1       3.799  -0.481  -1.152  0.00  0.00     0.042 A 
HETATM    8  C           1       2.802   0.493  -1.094  0.00  0.00    -0.002 A 
HETATM    9  C           1       5.108  -0.199  -1.562  0.00  0.00     0.030 A 
HETATM   10  C           1       3.123   1.814  -1.462  0.00  0.00     0.014 A 
HETATM   11  C           1       4.426   2.113  -1.875  0.00  0.00     0.001 A 
HETATM   12  C           1       5.402   1.120  -1.923  0.00  0.00     0.002 A 
ENDBRANCH   2   3
ENDBRANCH   1   2
BRANCH   1  13
HETATM   13  N           1      -1.403  -1.156  -1.112  0.00  0.00    -0.066 N 
HETATM   14  H           1      -0.693  -1.620  -1.724  0.00  0.00     0.275 HD
HETATM   15  H           1      -2.090  -1.868  -0.776  0.00  0.00     0.275 HD
HETATM   16  H           1      -1.903  -0.417  -1.656  0.00  0.00     0.275 HD
ENDBRANCH   1  13
BRANCH   1  17
HETATM   17  C           1      -1.741   0.138   0.948  0.00  0.00     0.249 C 
HETATM   18  O           1      -1.672   1.326   1.161  0.00  0.00    -0.271 OA
HETATM   19  N           1      -2.749  -0.600   1.507  0.00  0.00    -0.345 N 
HETATM   20  H           1      -2.806  -1.595   1.329  0.00  0.00     0.163 HD
BRANCH  19  21
HETATM   21  C           1      -3.734   0.043   2.355  0.00  0.00     0.181 C 
HETATM   22  C           1      -4.463   1.118   1.562  0.00  0.00     0.043 C 
BRANCH  21  23
HETATM   23  C           1      -4.727  -0.985   2.839  0.00  0.00     0.196 C 
HETATM   24  O           1      -4.337  -1.961   3.516  0.00  0.00    -0.646 OA
HETATM   25  O           1      -5.940  -0.860   2.564  0.00  0.00    -0.646 OA
ENDBRANCH  21  23
ENDBRANCH  19  21
ENDBRANCH   1  17
TORSDOF 6
