REMARK  6 active torsions:
REMARK  status: ('A' for Active; 'I' for Inactive)
REMARK    1  A    between atoms: C_3  and  C_9 
REMARK    2  A    between atoms: C_3  and  N_20 
REMARK    3  A    between atoms: C_5  and  C_17 
REMARK    4  A    between atoms: C_5  and  C_12 
REMARK    5  A    between atoms: N_11  and  C_17 
REMARK    6  A    between atoms: C_17  and  C_18 
REMARK       I    between atoms: C_18  and  N_20 
ROOT
HETATM    1  C           1      -1.131  -0.400   0.180  0.00  0.00     0.278 C 
ENDROOT
BRANCH   1   2
HETATM    2  C           1      -0.128   0.636  -0.310  0.00  0.00     0.083 C 
BRANCH   2   3
HETATM    3  C           1       1.201  -0.017  -0.525  0.00  0.00    -0.028 A 
HETATM    4  C           1       1.495  -1.346  -0.319  0.00  0.00     0.096 A 
HETATM    5  N           1       2.815  -1.536  -0.631  0.00  0.00    -0.365 N 
HETATM    6  H           1       3.320  -2.455  -0.569  0.00  0.00     0.165 HD
HETATM    7  C           1       3.384  -0.350  -1.037  0.00  0.00     0.042 A 
HETATM    8  C           1       4.693  -0.069  -1.447  0.00  0.00     0.030 A 
HETATM    9  C           1       2.387   0.624  -0.979  0.00  0.00    -0.002 A 
HETATM   10  C           1       4.987   1.250  -1.809  0.00  0.00     0.002 A 
HETATM   11  C           1       4.011   2.243  -1.761  0.00  0.00     0.001 A 
HETATM   12  C           1       2.707   1.944  -1.348  0.00  0.00     0.014 A 
ENDBRANCH   2   3
ENDBRANCH   1   2
BRANCH   1  13
HETATM   13  N           1      -1.818  -1.026  -0.998  0.00  0.00    -0.066 N 
HETATM   14  H           1      -1.109  -1.489  -1.609  0.00  0.00     0.275 HD
HETATM   15  H           1      -2.505  -1.737  -0.661  0.00  0.00     0.275 HD
HETATM   16  H           1      -2.318  -0.287  -1.542  0.00  0.00     0.275 HD
ENDBRANCH   1  13
BRANCH   1  17
HETATM   17  C           1      -2.156   0.269   1.062  0.00  0.00     0.249 C 
HETATM   18  O           1      -2.087   1.456   1.275  0.00  0.00    -0.271 OA
HETATM   19  N           1      -3.164  -0.470   1.622  0.00  0.00    -0.349 N 
HETATM   20  H           1      -3.222  -1.464   1.444  0.00  0.00     0.163 HD
BRANCH  19  21
HETATM   21  C           1      -4.149   0.173   2.470  0.00  0.00     0.235 C 
BRANCH  21  22
HETATM   22  C           1      -5.143  -0.854   2.955  0.00  0.00     0.191 C 
HETATM   23  O           1      -5.026  -2.049   2.608  0.00  0.00    -0.647 OA
HETATM   24  O           1      -6.082  -0.509   3.705  0.00  0.00    -0.647 OA
ENDBRANCH  21  22
ENDBRANCH  19  21
ENDBRANCH   1  17
TORSDOF 6
