REMARK  8 active torsions:
REMARK  status: ('A' for Active; 'I' for Inactive)
REMARK    1  A    between atoms: C_4  and  C_7 
REMARK    2  A    between atoms: C_4  and  C_20 
REMARK    3  A    between atoms: C_5  and  C_11 
REMARK    4  A    between atoms: C_5  and  C_18 
REMARK    5  A    between atoms: C_7  and  C_12 
REMARK    6  A    between atoms: C_7  and  N_14 
REMARK    7  A    between atoms: C_11  and  C_31 
REMARK    8  A    between atoms: C_11  and  N_24 
REMARK       I    between atoms: N_14  and  C_31 
ROOT
HETATM    1  N           1      -1.900  -0.575   1.923  0.00  0.00    -0.344 N 
HETATM    2  H           1      -2.905  -0.504   1.826  0.00  0.00     0.163 HD
HETATM    3  C           1      -1.168  -1.244   0.979  0.00  0.00     0.249 C 
HETATM    4  O           1      -0.960  -2.427   1.102  0.00  0.00    -0.271 OA
ENDROOT
BRANCH   3   5
HETATM    5  C           1      -0.620  -0.502  -0.216  0.00  0.00     0.278 C 
BRANCH   5   6
HETATM    6  C           1       0.150  -1.469  -1.105  0.00  0.00     0.083 C 
BRANCH   6   7
HETATM    7  C           1      -0.475  -1.503  -2.465  0.00  0.00    -0.028 A 
HETATM    8  C           1      -0.053  -2.262  -3.533  0.00  0.00     0.096 A 
HETATM    9  N           1      -0.892  -2.006  -4.586  0.00  0.00    -0.365 N 
HETATM   10  H           1      -0.813  -2.444  -5.537  0.00  0.00     0.165 HD
HETATM   11  C           1      -1.853  -1.091  -4.217  0.00  0.00     0.042 A 
HETATM   12  C           1      -2.907  -0.539  -4.956  0.00  0.00     0.030 A 
HETATM   13  C           1      -1.613  -0.759  -2.884  0.00  0.00    -0.002 A 
HETATM   14  C           1      -3.737   0.380  -4.308  0.00  0.00     0.002 A 
HETATM   15  C           1      -3.521   0.731  -2.977  0.00  0.00     0.001 A 
HETATM   16  C           1      -2.463   0.170  -2.253  0.00  0.00     0.014 A 
ENDBRANCH   6   7
ENDBRANCH   5   6
BRANCH   5  17
HETATM   17  N           1       0.299   0.587   0.252  0.00  0.00    -0.066 N 
HETATM   18  H           1      -0.230   1.251   0.861  0.00  0.00     0.275 HD
HETATM   19  H           1       0.679   1.102  -0.575  0.00  0.00     0.275 HD
HETATM   20  H           1       1.088   0.168   0.794  0.00  0.00     0.275 HD
ENDBRANCH   5  17
ENDBRANCH   3   5
BRANCH   1  21
HETATM   21  C           1      -1.236   0.030   3.061  0.00  0.00     0.190 C 
BRANCH  21  22
HETATM   22  C           1      -0.234   1.066   2.571  0.00  0.00     0.077 C 
BRANCH  22  23
HETATM   23  C           1       1.096   0.412   2.356  0.00  0.00    -0.028 A 
HETATM   24  C           1       1.389  -0.917   2.562  0.00  0.00     0.096 A 
HETATM   25  N           1       2.710  -1.107   2.250  0.00  0.00    -0.365 N 
HETATM   26  C           1       3.279   0.079   1.844  0.00  0.00     0.042 A 
HETATM   27  H           1       3.215  -2.025   2.311  0.00  0.00     0.165 HD
HETATM   28  C           1       4.587   0.361   1.433  0.00  0.00     0.030 A 
HETATM   29  C           1       2.282   1.053   1.901  0.00  0.00    -0.002 A 
HETATM   30  C           1       4.882   1.680   1.072  0.00  0.00     0.002 A 
HETATM   31  C           1       3.906   2.673   1.120  0.00  0.00     0.001 A 
HETATM   32  C           1       2.602   2.374   1.533  0.00  0.00     0.014 A 
ENDBRANCH  22  23
ENDBRANCH  21  22
BRANCH  21  33
HETATM   33  C           1      -2.262   0.698   3.943  0.00  0.00     0.197 C 
HETATM   34  O           1      -3.182   0.024   4.454  0.00  0.00    -0.646 OA
HETATM   35  O           1      -2.191   1.927   4.164  0.00  0.00    -0.646 OA
ENDBRANCH  21  33
ENDBRANCH   1  21
TORSDOF 8
