REMARK  9 active torsions:
REMARK  status: ('A' for Active; 'I' for Inactive)
REMARK    1  A    between atoms: C_1  and  C_25 
REMARK    2  A    between atoms: C_5  and  C_11 
REMARK    3  A    between atoms: N_6  and  C_25 
REMARK       I    between atoms: N_6  and  C_23 
REMARK    4  A    between atoms: N_10  and  C_12 
REMARK    5  A    between atoms: C_11  and  C_12 
REMARK    6  A    between atoms: C_12  and  C_23 
REMARK    7  A    between atoms: C_25  and  C_26 
REMARK    8  A    between atoms: C_26  and  C_29 
REMARK    9  A    between atoms: C_32  and  O_33 
ROOT
HETATM    1  H           1      -1.907  -2.572   0.599  0.00  0.00     0.163 HD
HETATM    2  N           1      -1.850  -1.577   0.777  0.00  0.00    -0.344 N 
HETATM    3  O           1      -0.773   0.348   0.431  0.00  0.00    -0.271 OA
HETATM    4  C           1      -0.842  -0.839   0.218  0.00  0.00     0.249 C 
ENDROOT
BRANCH   4   5
HETATM    5  C           1       0.183  -1.508  -0.665  0.00  0.00     0.278 C 
BRANCH   5   6
HETATM    6  N           1      -0.504  -2.133  -1.842  0.00  0.00    -0.066 N 
HETATM    7  H           1       0.205  -2.597  -2.454  0.00  0.00     0.275 HD
HETATM    8  H           1      -1.191  -2.845  -1.506  0.00  0.00     0.275 HD
HETATM    9  H           1      -1.004  -1.395  -2.387  0.00  0.00     0.275 HD
ENDBRANCH   5   6
BRANCH   5  10
HETATM   10  C           1       1.186  -0.471  -1.155  0.00  0.00     0.083 C 
BRANCH  10  11
HETATM   11  C           1       2.515  -1.125  -1.370  0.00  0.00    -0.028 A 
HETATM   12  C           1       2.809  -2.454  -1.164  0.00  0.00     0.096 A 
HETATM   13  N           1       4.129  -2.644  -1.476  0.00  0.00    -0.365 N 
HETATM   14  C           1       4.698  -1.458  -1.882  0.00  0.00     0.042 A 
HETATM   15  H           1       4.634  -3.562  -1.414  0.00  0.00     0.165 HD
HETATM   16  C           1       3.701  -0.484  -1.824  0.00  0.00    -0.002 A 
HETATM   17  C           1       6.007  -1.176  -2.292  0.00  0.00     0.030 A 
HETATM   18  C           1       4.021   0.837  -2.193  0.00  0.00     0.014 A 
HETATM   19  C           1       5.325   1.136  -2.605  0.00  0.00     0.001 A 
HETATM   20  C           1       6.301   0.142  -2.653  0.00  0.00     0.002 A 
ENDBRANCH  10  11
ENDBRANCH   5  10
ENDBRANCH   4   5
BRANCH   2  21
HETATM   21  C           1      -2.835  -0.935   1.625  0.00  0.00     0.189 C 
BRANCH  21  22
HETATM   22  C           1      -3.828  -1.962   2.109  0.00  0.00     0.197 C 
HETATM   23  O           1      -3.438  -2.939   2.785  0.00  0.00    -0.646 OA
HETATM   24  O           1      -5.041  -1.837   1.834  0.00  0.00    -0.646 OA
ENDBRANCH  21  22
BRANCH  21  25
HETATM   25  C           1      -3.565   0.141   0.832  0.00  0.00     0.074 C 
BRANCH  25  26
HETATM   26  C           1      -3.358   1.472   1.486  0.00  0.00    -0.056 A 
HETATM   27  C           1      -2.589   1.566   2.645  0.00  0.00     0.010 A 
HETATM   28  C           1      -2.396   2.806   3.255  0.00  0.00     0.037 A 
HETATM   29  C           1      -2.973   3.951   2.705  0.00  0.00     0.065 A 
HETATM   30  C           1      -3.742   3.856   1.545  0.00  0.00     0.037 A 
HETATM   31  C           1      -3.935   2.616   0.936  0.00  0.00     0.010 A 
BRANCH  29  32
HETATM   32  O           1      -2.786   5.155   3.297  0.00  0.00    -0.361 OA
HETATM   33  H           1      -2.229   5.020   4.083  0.00  0.00     0.217 HD
ENDBRANCH  29  32
ENDBRANCH  25  26
ENDBRANCH  21  25
ENDBRANCH   2  21
TORSDOF 9
