REMARK  10 active torsions:
REMARK  status: ('A' for Active; 'I' for Inactive)
REMARK    1  A    between atoms: C_1  and  O_11 
REMARK    2  A    between atoms: C_2  and  C_3 
REMARK    3  A    between atoms: C_3  and  C_4 
REMARK    4  A    between atoms: C_3  and  N_25 
REMARK    5  A    between atoms: C_4  and  C_23 
REMARK       I    between atoms: C_6  and  N_17 
REMARK    6  A    between atoms: C_6  and  C_23 
REMARK    7  A    between atoms: C_9  and  C_10 
REMARK    8  A    between atoms: C_9  and  C_18 
REMARK    9  A    between atoms: C_10  and  C_27 
REMARK   10  A    between atoms: C_10  and  N_14 
REMARK       I    between atoms: N_25  and  C_27 
ROOT
HETATM    1  O           1       0.126   0.868  -1.081  0.00  0.00    -0.271 OA
HETATM    2  H           1       2.393  -0.921   0.143  0.00  0.00     0.163 HD
HETATM    3  N           1       1.973  -0.212  -0.444  0.00  0.00    -0.345 N 
HETATM    4  C           1       0.626   0.022  -0.380  0.00  0.00     0.249 C 
ENDROOT
BRANCH   4   5
HETATM    5  C           1      -0.234  -0.778   0.568  0.00  0.00     0.278 C 
BRANCH   5   6
HETATM    6  C           1      -1.683  -0.324   0.445  0.00  0.00     0.081 C 
BRANCH   6   7
HETATM    7  C           1      -2.593  -1.473   0.750  0.00  0.00    -0.056 A 
HETATM    8  C           1      -3.976  -1.298   0.701  0.00  0.00     0.010 A 
HETATM    9  C           1      -4.825  -2.369   0.985  0.00  0.00     0.037 A 
HETATM   10  C           1      -4.290  -3.613   1.317  0.00  0.00     0.065 A 
HETATM   11  C           1      -2.907  -3.788   1.366  0.00  0.00     0.037 A 
HETATM   12  C           1      -2.059  -2.717   1.082  0.00  0.00     0.010 A 
BRANCH  10  13
HETATM   13  O           1      -5.114  -4.653   1.593  0.00  0.00    -0.361 OA
HETATM   14  H           1      -6.031  -4.340   1.508  0.00  0.00     0.217 HD
ENDBRANCH  10  13
ENDBRANCH   6   7
ENDBRANCH   5   6
BRANCH   5  15
HETATM   15  N           1       0.239  -0.561   1.975  0.00  0.00    -0.066 N 
HETATM   16  H           1      -0.356  -1.114   2.632  0.00  0.00     0.275 HD
HETATM   17  H           1       1.233  -0.873   2.059  0.00  0.00     0.275 HD
HETATM   18  H           1       0.170   0.454   2.213  0.00  0.00     0.275 HD
ENDBRANCH   5  15
ENDBRANCH   4   5
BRANCH   3  19
HETATM   19  C           1       2.800   0.556  -1.355  0.00  0.00     0.186 C 
BRANCH  19  20
HETATM   20  C           1       4.235   0.106  -1.232  0.00  0.00     0.196 C 
HETATM   21  O           1       4.541  -1.081  -1.474  0.00  0.00    -0.646 OA
HETATM   22  O           1       5.118   0.922  -0.887  0.00  0.00    -0.646 OA
ENDBRANCH  19  20
BRANCH  19  23
HETATM   23  C           1       2.700   2.035  -1.007  0.00  0.00     0.045 C 
BRANCH  23  24
HETATM   24  C           1       2.153   2.803  -2.203  0.00  0.00     0.105 C 
BRANCH  24  25
HETATM   25  C           1       2.055   4.269  -1.859  0.00  0.00     0.215 C 
HETATM   26  O           1       1.641   5.055  -2.677  0.00  0.00    -0.274 OA
HETATM   27  N           1       2.434   4.708  -0.619  0.00  0.00    -0.370 N 
HETATM   28  H           1       2.368   5.691  -0.387  0.00  0.00     0.159 HD
HETATM   29  H           1       2.781   4.049   0.067  0.00  0.00     0.159 HD
ENDBRANCH  24  25
ENDBRANCH  23  24
ENDBRANCH  19  23
ENDBRANCH   3  19
TORSDOF 10
