REMARK  11 active torsions:
REMARK  status: ('A' for Active; 'I' for Inactive)
REMARK    1  A    between atoms: N_4  and  C_7 
REMARK    2  A    between atoms: P_6  and  O_14 
REMARK    3  A    between atoms: P_6  and  O_16 
REMARK    4  A    between atoms: C_7  and  C_8 
REMARK    5  A    between atoms: C_7  and  C_15 
REMARK       I    between atoms: C_8  and  N_9 
REMARK    6  A    between atoms: N_9  and  C_27 
REMARK    7  A    between atoms: C_10  and  C_15 
REMARK    8  A    between atoms: O_14  and  C_28 
REMARK    9  A    between atoms: C_18  and  C_27 
REMARK   10  A    between atoms: O_26  and  C_29 
REMARK   11  A    between atoms: C_27  and  C_28 
ROOT
HETATM    1  H           1       2.974  -0.240   0.632  0.00  0.00     0.163 HD
HETATM    2  C           1       1.208   0.704   0.109  0.00  0.00     0.249 C 
HETATM    3  N           1       2.555   0.470   0.044  0.00  0.00    -0.343 N 
HETATM    4  O           1       0.707   1.550  -0.593  0.00  0.00    -0.271 OA
ENDROOT
BRANCH   2   5
HETATM    5  C           1       0.348  -0.096   1.057  0.00  0.00     0.278 C 
BRANCH   5   6
HETATM    6  N           1       0.821   0.121   2.463  0.00  0.00    -0.066 N 
HETATM    7  H           1       0.226  -0.433   3.121  0.00  0.00     0.275 HD
HETATM    8  H           1       1.815  -0.191   2.548  0.00  0.00     0.275 HD
HETATM    9  H           1       0.752   1.136   2.702  0.00  0.00     0.275 HD
ENDBRANCH   5   6
BRANCH   5  10
HETATM   10  C           1      -1.101   0.357   0.934  0.00  0.00     0.081 C 
BRANCH  10  11
HETATM   11  C           1      -2.012  -0.791   1.238  0.00  0.00    -0.056 A 
HETATM   12  C           1      -3.395  -0.617   1.190  0.00  0.00     0.010 A 
HETATM   13  C           1      -4.243  -1.687   1.474  0.00  0.00     0.037 A 
HETATM   14  C           1      -3.708  -2.931   1.806  0.00  0.00     0.065 A 
HETATM   15  C           1      -2.325  -3.106   1.855  0.00  0.00     0.037 A 
HETATM   16  C           1      -1.477  -2.036   1.571  0.00  0.00     0.010 A 
BRANCH  14  17
HETATM   17  O           1      -4.532  -3.971   2.082  0.00  0.00    -0.361 OA
HETATM   18  H           1      -5.449  -3.658   1.997  0.00  0.00     0.217 HD
ENDBRANCH  14  17
ENDBRANCH  10  11
ENDBRANCH   5  10
ENDBRANCH   2   5
BRANCH   3  19
HETATM   19  C           1       3.381   1.238  -0.867  0.00  0.00     0.210 C 
BRANCH  19  20
HETATM   20  C           1       3.283   2.703  -0.522  0.00  0.00     0.198 C 
HETATM   21  O           1       3.630   3.104   0.610  0.00  0.00    -0.646 OA
HETATM   22  O           1       2.854   3.517  -1.368  0.00  0.00    -0.646 OA
ENDBRANCH  19  20
BRANCH  19  23
HETATM   23  C           1       2.900   1.019  -2.295  0.00  0.00     0.217 C 
BRANCH  23  24
HETATM   24  O           1       1.567   1.437  -2.408  0.00  0.00    -0.287 OA
BRANCH  24  25
HETATM   25  P           1       0.895   1.274  -3.868  0.00  0.00     0.406 P 
HETATM   26  O           1       0.913  -0.152  -4.264  0.00  0.00    -0.624 OA
HETATM   27  O           1       1.660   2.069  -4.854  0.00  0.00    -0.624 OA
BRANCH  25  28
HETATM   28  O           1      -0.631   1.799  -3.819  0.00  0.00    -0.300 OA
HETATM   29  H           1      -0.959   1.677  -4.694  0.00  0.00     0.223 HD
ENDBRANCH  25  28
ENDBRANCH  24  25
ENDBRANCH  23  24
ENDBRANCH  19  23
ENDBRANCH   3  19
TORSDOF 11
