REMARK  10 active torsions:
REMARK  status: ('A' for Active; 'I' for Inactive)
REMARK    1  A    between atoms: C_1  and  O_20 
REMARK    2  A    between atoms: C_3  and  C_9 
REMARK       I    between atoms: C_4  and  N_15 
REMARK    3  A    between atoms: C_4  and  C_22 
REMARK    4  A    between atoms: C_9  and  C_10 
REMARK    5  A    between atoms: C_10  and  C_18 
REMARK    6  A    between atoms: N_15  and  C_18 
REMARK    7  A    between atoms: C_18  and  C_23 
REMARK    8  A    between atoms: N_19  and  C_22 
REMARK    9  A    between atoms: C_22  and  C_26 
REMARK   10  A    between atoms: C_25  and  C_26 
ROOT
HETATM    1  C           1      -0.101  -0.528   0.563  0.00  0.00     0.278 C 
ENDROOT
BRANCH   1   2
HETATM    2  C           1       0.759   0.272  -0.385  0.00  0.00     0.249 C 
HETATM    3  N           1       2.107   0.038  -0.449  0.00  0.00    -0.345 N 
HETATM    4  H           1       2.526  -0.671   0.139  0.00  0.00     0.163 HD
HETATM    5  O           1       0.259   1.118  -1.086  0.00  0.00    -0.271 OA
BRANCH   3   6
HETATM    6  C           1       2.933   0.806  -1.360  0.00  0.00     0.186 C 
BRANCH   6   7
HETATM    7  C           1       2.833   2.285  -1.012  0.00  0.00     0.046 C 
BRANCH   7   8
HETATM    8  C           1       2.286   3.053  -2.208  0.00  0.00     0.116 C 
BRANCH   8   9
HETATM    9  C           1       2.188   4.519  -1.863  0.00  0.00     0.172 C 
HETATM   10  O           1       2.534   4.919  -0.731  0.00  0.00    -0.648 OA
HETATM   11  O           1       1.760   5.333  -2.710  0.00  0.00    -0.648 OA
ENDBRANCH   8   9
ENDBRANCH   7   8
ENDBRANCH   6   7
BRANCH   6  12
HETATM   12  C           1       4.368   0.356  -1.236  0.00  0.00     0.196 C 
HETATM   13  O           1       5.251   1.172  -0.892  0.00  0.00    -0.646 OA
HETATM   14  O           1       4.674  -0.831  -1.479  0.00  0.00    -0.646 OA
ENDBRANCH   6  12
ENDBRANCH   3   6
ENDBRANCH   1   2
BRANCH   1  15
HETATM   15  N           1       0.372  -0.311   1.970  0.00  0.00    -0.066 N 
HETATM   16  H           1       0.303   0.704   2.208  0.00  0.00     0.275 HD
HETATM   17  H           1       1.366  -0.623   2.055  0.00  0.00     0.275 HD
HETATM   18  H           1      -0.223  -0.864   2.627  0.00  0.00     0.275 HD
ENDBRANCH   1  15
BRANCH   1  19
HETATM   19  C           1      -1.550  -0.074   0.440  0.00  0.00     0.081 C 
BRANCH  19  20
HETATM   20  C           1      -2.460  -1.223   0.745  0.00  0.00    -0.056 A 
HETATM   21  C           1      -1.925  -2.467   1.077  0.00  0.00     0.010 A 
HETATM   22  C           1      -2.774  -3.538   1.361  0.00  0.00     0.037 A 
HETATM   23  C           1      -4.157  -3.363   1.313  0.00  0.00     0.065 A 
HETATM   24  C           1      -4.691  -2.119   0.980  0.00  0.00     0.037 A 
HETATM   25  C           1      -3.843  -1.048   0.696  0.00  0.00     0.010 A 
BRANCH  23  26
HETATM   26  O           1      -4.981  -4.403   1.588  0.00  0.00    -0.361 OA
HETATM   27  H           1      -5.897  -4.090   1.504  0.00  0.00     0.217 HD
ENDBRANCH  23  26
ENDBRANCH  19  20
ENDBRANCH   1  19
TORSDOF 10
