REMARK  12 active torsions:
REMARK  status: ('A' for Active; 'I' for Inactive)
REMARK    1  A    between atoms: C_1  and  O_27 
REMARK    2  A    between atoms: C_3  and  C_25 
REMARK    3  A    between atoms: C_4  and  C_10 
REMARK    4  A    between atoms: C_4  and  C_5 
REMARK    5  A    between atoms: C_10  and  C_12 
REMARK    6  A    between atoms: C_10  and  N_30 
REMARK       I    between atoms: C_12  and  N_22 
REMARK    7  A    between atoms: O_18  and  P_28 
REMARK    8  A    between atoms: N_22  and  C_35 
REMARK    9  A    between atoms: C_23  and  C_35 
REMARK   10  A    between atoms: C_25  and  C_35 
REMARK   11  A    between atoms: P_28  and  O_34 
REMARK   12  A    between atoms: C_33  and  O_34 
ROOT
HETATM    1  O           1       2.435  -1.050   0.222  0.00  0.00    -0.271 OA
HETATM    2  C           1       2.062   0.040  -0.142  0.00  0.00     0.249 C 
HETATM    3  H           1       3.482   1.278  -1.001  0.00  0.00     0.163 HD
HETATM    4  N           1       2.695   0.668  -1.182  0.00  0.00    -0.344 N 
ENDROOT
BRANCH   4   5
HETATM    5  C           1       2.238   0.458  -2.542  0.00  0.00     0.189 C 
BRANCH   5   6
HETATM    6  C           1       3.098   1.258  -3.489  0.00  0.00     0.197 C 
HETATM    7  O           1       2.580   2.134  -4.216  0.00  0.00    -0.646 OA
HETATM    8  O           1       4.328   1.044  -3.548  0.00  0.00    -0.646 OA
ENDBRANCH   5   6
BRANCH   5   9
HETATM    9  C           1       0.789   0.912  -2.665  0.00  0.00     0.074 C 
BRANCH   9  10
HETATM   10  C           1      -0.122  -0.237  -2.360  0.00  0.00    -0.056 A 
HETATM   11  C           1       0.413  -1.482  -2.027  0.00  0.00     0.010 A 
HETATM   12  C           1      -0.435  -2.552  -1.744  0.00  0.00     0.038 A 
HETATM   13  C           1      -1.818  -2.377  -1.792  0.00  0.00     0.081 A 
HETATM   14  C           1      -2.353  -1.133  -2.125  0.00  0.00     0.038 A 
HETATM   15  C           1      -1.505  -0.062  -2.409  0.00  0.00     0.010 A 
BRANCH  13  16
HETATM   16  O           1      -2.643  -3.417  -1.516  0.00  0.00    -0.247 OA
BRANCH  16  17
HETATM   17  P           1      -4.236  -3.161  -1.587  0.00  0.00     0.411 P 
HETATM   18  O           1      -4.610  -2.107  -0.618  0.00  0.00    -0.624 OA
HETATM   19  O           1      -4.951  -4.413  -1.255  0.00  0.00    -0.624 OA
BRANCH  17  20
HETATM   20  O           1      -4.639  -2.689  -3.078  0.00  0.00    -0.300 OA
HETATM   21  H           1      -5.571  -2.558  -3.049  0.00  0.00     0.223 HD
ENDBRANCH  17  20
ENDBRANCH  16  17
ENDBRANCH  13  16
ENDBRANCH   9  10
ENDBRANCH   5   9
ENDBRANCH   4   5
BRANCH   2  22
HETATM   22  C           1       0.899   0.709   0.548  0.00  0.00     0.278 C 
BRANCH  22  23
HETATM   23  C           1       0.380  -0.193   1.660  0.00  0.00     0.081 C 
BRANCH  23  24
HETATM   24  C           1       0.489   0.518   2.972  0.00  0.00    -0.056 A 
HETATM   25  C           1       0.072  -0.113   4.144  0.00  0.00     0.010 A 
HETATM   26  C           1       0.174   0.550   5.367  0.00  0.00     0.037 A 
HETATM   27  C           1       0.693   1.844   5.418  0.00  0.00     0.065 A 
HETATM   28  C           1       1.110   2.475   4.247  0.00  0.00     0.037 A 
HETATM   29  C           1       1.008   1.812   3.024  0.00  0.00     0.010 A 
BRANCH  27  30
HETATM   30  O           1       0.791   2.488   6.607  0.00  0.00    -0.361 OA
HETATM   31  H           1       1.172   3.367   6.441  0.00  0.00     0.217 HD
ENDBRANCH  27  30
ENDBRANCH  23  24
ENDBRANCH  22  23
BRANCH  22  32
HETATM   32  N           1      -0.196   0.957  -0.446  0.00  0.00    -0.066 N 
HETATM   33  H           1      -0.509   0.047  -0.854  0.00  0.00     0.275 HD
HETATM   34  H           1      -1.002   1.421   0.031  0.00  0.00     0.275 HD
HETATM   35  H           1       0.160   1.577  -1.209  0.00  0.00     0.275 HD
ENDBRANCH  22  32
ENDBRANCH   2  22
TORSDOF 12
