REMARK  9 active torsions:
REMARK  status: ('A' for Active; 'I' for Inactive)
REMARK    1  A    between atoms: O_3  and  C_27 
REMARK    2  A    between atoms: C_4  and  C_5 
REMARK    3  A    between atoms: C_5  and  C_23 
REMARK    4  A    between atoms: N_7  and  C_8 
REMARK    5  A    between atoms: C_8  and  C_32 
REMARK    6  A    between atoms: C_8  and  C_25 
REMARK    7  A    between atoms: C_10  and  C_25 
REMARK    8  A    between atoms: C_21  and  C_23 
REMARK    9  A    between atoms: C_23  and  N_26 
REMARK       I    between atoms: N_26  and  C_32 
ROOT
HETATM    1  H           1      -3.237  -0.345   1.700  0.00  0.00     0.163 HD
HETATM    2  N           1      -2.232  -0.417   1.797  0.00  0.00    -0.344 N 
HETATM    3  O           1      -1.292  -2.269   0.976  0.00  0.00    -0.271 OA
HETATM    4  C           1      -1.499  -1.085   0.853  0.00  0.00     0.249 C 
ENDROOT
BRANCH   2   5
HETATM    5  C           1      -1.568   0.188   2.935  0.00  0.00     0.190 C 
BRANCH   5   6
HETATM    6  C           1      -0.565   1.224   2.445  0.00  0.00     0.077 C 
BRANCH   6   7
HETATM    7  C           1       0.765   0.571   2.230  0.00  0.00    -0.028 A 
HETATM    8  C           1       1.058  -0.758   2.436  0.00  0.00     0.096 A 
HETATM    9  N           1       2.378  -0.948   2.124  0.00  0.00    -0.365 N 
HETATM   10  H           1       2.884  -1.867   2.186  0.00  0.00     0.165 HD
HETATM   11  C           1       2.948   0.238   1.718  0.00  0.00     0.042 A 
HETATM   12  C           1       4.256   0.519   1.308  0.00  0.00     0.030 A 
HETATM   13  C           1       1.950   1.212   1.776  0.00  0.00    -0.002 A 
HETATM   14  C           1       4.550   1.838   0.947  0.00  0.00     0.002 A 
HETATM   15  C           1       3.574   2.831   0.994  0.00  0.00     0.001 A 
HETATM   16  C           1       2.271   2.532   1.407  0.00  0.00     0.014 A 
ENDBRANCH   6   7
ENDBRANCH   5   6
BRANCH   5  17
HETATM   17  C           1      -2.593   0.857   3.817  0.00  0.00     0.197 C 
HETATM   18  O           1      -3.513   0.182   4.328  0.00  0.00    -0.646 OA
HETATM   19  O           1      -2.522   2.085   4.038  0.00  0.00    -0.646 OA
ENDBRANCH   5  17
ENDBRANCH   2   5
BRANCH   4  20
HETATM   20  C           1      -0.952  -0.343  -0.342  0.00  0.00     0.278 C 
BRANCH  20  21
HETATM   21  N           1      -0.032   0.746   0.126  0.00  0.00    -0.066 N 
HETATM   22  H           1       0.348   1.260  -0.701  0.00  0.00     0.275 HD
HETATM   23  H           1      -0.561   1.409   0.736  0.00  0.00     0.275 HD
HETATM   24  H           1       0.757   0.327   0.668  0.00  0.00     0.275 HD
ENDBRANCH  20  21
BRANCH  20  25
HETATM   25  C           1      -0.181  -1.310  -1.231  0.00  0.00     0.081 C 
BRANCH  25  26
HETATM   26  C           1      -0.807  -1.345  -2.591  0.00  0.00    -0.056 A 
HETATM   27  C           1      -0.271  -2.165  -3.584  0.00  0.00     0.010 A 
HETATM   28  C           1      -0.854  -2.197  -4.851  0.00  0.00     0.037 A 
HETATM   29  C           1      -1.972  -1.410  -5.124  0.00  0.00     0.065 A 
HETATM   30  C           1      -2.508  -0.590  -4.131  0.00  0.00     0.037 A 
HETATM   31  C           1      -1.925  -0.558  -2.864  0.00  0.00     0.010 A 
BRANCH  29  32
HETATM   32  O           1      -2.539  -1.441  -6.355  0.00  0.00    -0.361 OA
HETATM   33  H           1      -3.297  -0.834  -6.352  0.00  0.00     0.217 HD
ENDBRANCH  29  32
ENDBRANCH  25  26
ENDBRANCH  20  25
ENDBRANCH   4  20
TORSDOF 9
