REMARK  9 active torsions:
REMARK  status: ('A' for Active; 'I' for Inactive)
REMARK    1  A    between atoms: N_2  and  C_14 
REMARK    2  A    between atoms: C_4  and  O_5 
REMARK    3  A    between atoms: C_4  and  C_7 
REMARK    4  A    between atoms: C_7  and  C_24 
REMARK    5  A    between atoms: C_7  and  N_17 
REMARK       I    between atoms: C_13  and  N_17 
REMARK    6  A    between atoms: C_13  and  C_14 
REMARK    7  A    between atoms: C_14  and  C_15 
REMARK    8  A    between atoms: C_15  and  C_16 
REMARK    9  A    between atoms: C_25  and  O_26 
ROOT
HETATM    1  C           1      -0.045  -0.300   0.448  0.00  0.00     0.278 C 
ENDROOT
BRANCH   1   2
HETATM    2  N           1       0.428  -0.084   1.855  0.00  0.00    -0.066 N 
HETATM    3  H           1       1.422  -0.395   1.940  0.00  0.00     0.275 HD
HETATM    4  H           1      -0.167  -0.637   2.512  0.00  0.00     0.275 HD
HETATM    5  H           1       0.359   0.931   2.093  0.00  0.00     0.275 HD
ENDBRANCH   1   2
BRANCH   1   6
HETATM    6  C           1       0.815   0.499  -0.500  0.00  0.00     0.249 C 
HETATM    7  O           1       0.314   1.346  -1.201  0.00  0.00    -0.271 OA
HETATM    8  N           1       2.162   0.265  -0.564  0.00  0.00    -0.343 N 
HETATM    9  H           1       2.581  -0.444   0.024  0.00  0.00     0.163 HD
BRANCH   8  10
HETATM   10  C           1       2.988   1.033  -1.475  0.00  0.00     0.214 C 
BRANCH  10  11
HETATM   11  C           1       2.889   2.513  -1.127  0.00  0.00     0.147 C 
HETATM   12  C           1       2.342   3.281  -2.323  0.00  0.00     0.042 C 
BRANCH  11  13
HETATM   13  O           1       2.028   2.678  -0.033  0.00  0.00    -0.393 OA
HETATM   14  H           1       2.398   2.191   0.683  0.00  0.00     0.210 HD
ENDBRANCH  11  13
ENDBRANCH  10  11
BRANCH  10  15
HETATM   15  C           1       4.424   0.584  -1.351  0.00  0.00     0.199 C 
HETATM   16  O           1       5.306   1.399  -1.007  0.00  0.00    -0.646 OA
HETATM   17  O           1       4.730  -0.604  -1.594  0.00  0.00    -0.646 OA
ENDBRANCH  10  15
ENDBRANCH   8  10
ENDBRANCH   1   6
BRANCH   1  18
HETATM   18  C           1      -1.494   0.153   0.325  0.00  0.00     0.081 C 
BRANCH  18  19
HETATM   19  C           1      -2.405  -0.996   0.630  0.00  0.00    -0.056 A 
HETATM   20  C           1      -1.870  -2.240   0.962  0.00  0.00     0.010 A 
HETATM   21  C           1      -2.718  -3.310   1.246  0.00  0.00     0.037 A 
HETATM   22  C           1      -4.101  -3.136   1.198  0.00  0.00     0.065 A 
HETATM   23  C           1      -4.636  -1.891   0.865  0.00  0.00     0.037 A 
HETATM   24  C           1      -3.788  -0.821   0.581  0.00  0.00     0.010 A 
BRANCH  22  25
HETATM   25  O           1      -4.925  -4.175   1.473  0.00  0.00    -0.361 OA
HETATM   26  H           1      -5.842  -3.863   1.389  0.00  0.00     0.217 HD
ENDBRANCH  22  25
ENDBRANCH  18  19
ENDBRANCH   1  18
TORSDOF 9
