REMARK  11 active torsions:
REMARK  status: ('A' for Active; 'I' for Inactive)
REMARK       I    between atoms: C_1  and  N_10 
REMARK    1  A    between atoms: C_1  and  C_2 
REMARK    2  A    between atoms: C_2  and  C_3 
REMARK    3  A    between atoms: C_2  and  N_15 
REMARK    4  A    between atoms: C_3  and  C_23 
REMARK    5  A    between atoms: N_10  and  C_12 
REMARK    6  A    between atoms: C_11  and  C_18 
REMARK    7  A    between atoms: C_11  and  C_12 
REMARK    8  A    between atoms: C_12  and  C_28 
REMARK    9  A    between atoms: C_14  and  O_20 
REMARK   10  A    between atoms: C_16  and  N_25 
REMARK   11  A    between atoms: C_16  and  C_18 
ROOT
HETATM    1  C           1       0.605  -0.217  -0.103  0.00  0.00     0.249 C 
HETATM    2  O           1       0.105   0.629  -0.804  0.00  0.00    -0.271 OA
HETATM    3  N           1       1.953  -0.451  -0.167  0.00  0.00    -0.345 N 
HETATM    4  H           1       2.372  -1.160   0.421  0.00  0.00     0.163 HD
ENDROOT
BRANCH   1   5
HETATM    5  C           1      -0.255  -1.017   0.845  0.00  0.00     0.278 C 
BRANCH   5   6
HETATM    6  C           1      -1.704  -0.563   0.722  0.00  0.00     0.081 C 
BRANCH   6   7
HETATM    7  C           1      -2.614  -1.712   1.027  0.00  0.00    -0.056 A 
HETATM    8  C           1      -2.079  -2.957   1.359  0.00  0.00     0.010 A 
HETATM    9  C           1      -2.928  -4.027   1.643  0.00  0.00     0.037 A 
HETATM   10  C           1      -4.311  -3.852   1.595  0.00  0.00     0.065 A 
HETATM   11  C           1      -4.845  -2.608   1.262  0.00  0.00     0.037 A 
HETATM   12  C           1      -3.997  -1.537   0.978  0.00  0.00     0.010 A 
BRANCH  10  13
HETATM   13  O           1      -5.135  -4.892   1.870  0.00  0.00    -0.361 OA
HETATM   14  H           1      -6.051  -4.579   1.786  0.00  0.00     0.217 HD
ENDBRANCH  10  13
ENDBRANCH   6   7
ENDBRANCH   5   6
BRANCH   5  15
HETATM   15  N           1       0.218  -0.800   2.252  0.00  0.00    -0.066 N 
HETATM   16  H           1      -0.377  -1.353   2.909  0.00  0.00     0.275 HD
HETATM   17  H           1       1.212  -1.112   2.337  0.00  0.00     0.275 HD
HETATM   18  H           1       0.149   0.215   2.490  0.00  0.00     0.275 HD
ENDBRANCH   5  15
ENDBRANCH   1   5
BRANCH   3  19
HETATM   19  C           1       2.779   0.317  -1.078  0.00  0.00     0.185 C 
BRANCH  19  20
HETATM   20  C           1       2.679   1.796  -0.730  0.00  0.00     0.038 C 
BRANCH  20  21
HETATM   21  C           1       2.132   2.564  -1.926  0.00  0.00     0.030 C 
BRANCH  21  22
HETATM   22  C           1       2.033   4.043  -1.578  0.00  0.00     0.230 C 
BRANCH  22  23
HETATM   23  N           1       1.494   4.800  -2.756  0.00  0.00    -0.079 N 
HETATM   24  H           1       2.136   4.677  -3.572  0.00  0.00     0.274 HD
HETATM   25  H           1       1.426   5.815  -2.518  0.00  0.00     0.274 HD
HETATM   26  H           1       0.546   4.435  -3.000  0.00  0.00     0.274 HD
ENDBRANCH  22  23
ENDBRANCH  21  22
ENDBRANCH  20  21
ENDBRANCH  19  20
BRANCH  19  27
HETATM   27  C           1       4.214  -0.133  -0.954  0.00  0.00     0.196 C 
HETATM   28  O           1       4.520  -1.320  -1.197  0.00  0.00    -0.646 OA
HETATM   29  O           1       5.097   0.683  -0.610  0.00  0.00    -0.646 OA
ENDBRANCH  19  27
ENDBRANCH   3  19
TORSDOF 11
