REMARK  9 active torsions:
REMARK  status: ('A' for Active; 'I' for Inactive)
REMARK    1  A    between atoms: C_1  and  C_13 
REMARK    2  A    between atoms: C_1  and  C_25 
REMARK    3  A    between atoms: C_1  and  N_28 
REMARK    4  A    between atoms: N_7  and  C_29 
REMARK       I    between atoms: N_7  and  C_13 
REMARK    5  A    between atoms: C_14  and  C_29 
REMARK    6  A    between atoms: C_14  and  C_21 
REMARK    7  A    between atoms: C_17  and  C_29 
REMARK    8  A    between atoms: C_18  and  O_19 
REMARK    9  A    between atoms: C_25  and  C_27 
ROOT
HETATM    1  N           1       2.146   0.324  -1.398  0.00  0.00    -0.344 N 
HETATM    2  O           1       1.886  -1.394   0.005  0.00  0.00    -0.271 OA
HETATM    3  C           1       1.513  -0.304  -0.359  0.00  0.00     0.249 C 
HETATM    4  H           1       2.933   0.934  -1.217  0.00  0.00     0.163 HD
ENDROOT
BRANCH   3   5
HETATM    5  C           1       0.350   0.366   0.331  0.00  0.00     0.278 C 
BRANCH   5   6
HETATM    6  C           1      -0.169  -0.537   1.443  0.00  0.00     0.081 C 
BRANCH   6   7
HETATM    7  C           1      -0.060   0.175   2.756  0.00  0.00    -0.056 A 
HETATM    8  C           1       0.459   1.468   2.807  0.00  0.00     0.010 A 
HETATM    9  C           1       0.561   2.131   4.030  0.00  0.00     0.037 A 
HETATM   10  C           1       0.144   1.500   5.202  0.00  0.00     0.065 A 
HETATM   11  C           1      -0.375   0.206   5.151  0.00  0.00     0.037 A 
HETATM   12  C           1      -0.477  -0.456   3.927  0.00  0.00     0.010 A 
BRANCH  10  13
HETATM   13  O           1       0.242   2.144   6.390  0.00  0.00    -0.361 OA
HETATM   14  H           1       0.622   3.023   6.225  0.00  0.00     0.217 HD
ENDBRANCH  10  13
ENDBRANCH   6   7
ENDBRANCH   5   6
BRANCH   5  15
HETATM   15  N           1      -0.745   0.614  -0.663  0.00  0.00    -0.066 N 
HETATM   16  H           1      -1.551   1.077  -0.186  0.00  0.00     0.275 HD
HETATM   17  H           1      -1.058  -0.296  -1.070  0.00  0.00     0.275 HD
HETATM   18  H           1      -0.389   1.233  -1.426  0.00  0.00     0.275 HD
ENDBRANCH   5  15
ENDBRANCH   3   5
BRANCH   1  19
HETATM   19  C           1       1.688   0.115  -2.758  0.00  0.00     0.189 C 
BRANCH  19  20
HETATM   20  C           1       0.240   0.568  -2.881  0.00  0.00     0.074 C 
BRANCH  20  21
HETATM   21  C           1      -0.671  -0.581  -2.577  0.00  0.00    -0.056 A 
HETATM   22  C           1      -2.054  -0.406  -2.625  0.00  0.00     0.007 A 
HETATM   23  C           1      -2.902  -1.476  -2.341  0.00  0.00     0.001 A 
HETATM   24  C           1      -2.368  -2.721  -2.009  0.00  0.00     0.000 A 
HETATM   25  C           1      -0.985  -2.895  -1.960  0.00  0.00     0.001 A 
HETATM   26  C           1      -0.136  -1.825  -2.244  0.00  0.00     0.007 A 
ENDBRANCH  20  21
ENDBRANCH  19  20
BRANCH  19  27
HETATM   27  C           1       2.548   0.914  -3.706  0.00  0.00     0.197 C 
HETATM   28  O           1       3.779   0.700  -3.765  0.00  0.00    -0.646 OA
HETATM   29  O           1       2.031   1.790  -4.432  0.00  0.00    -0.646 OA
ENDBRANCH  19  27
ENDBRANCH   1  19
TORSDOF 9
