REMARK  9 active torsions:
REMARK  status: ('A' for Active; 'I' for Inactive)
REMARK    1  A    between atoms: C_3  and  C_13 
REMARK    2  A    between atoms: C_3  and  C_4 
REMARK    3  A    between atoms: C_3  and  N_21 
REMARK    4  A    between atoms: C_4  and  C_26 
REMARK    5  A    between atoms: O_5  and  C_10 
REMARK    6  A    between atoms: N_12  and  C_22 
REMARK    7  A    between atoms: C_14  and  C_22 
REMARK    8  A    between atoms: C_14  and  C_30 
REMARK       I    between atoms: C_20  and  N_21 
REMARK    9  A    between atoms: C_20  and  C_22 
ROOT
HETATM    1  C           1       0.371   0.914   0.319  0.00  0.00     0.249 C 
HETATM    2  N           1       1.718   0.680   0.255  0.00  0.00    -0.344 N 
HETATM    3  H           1       2.137  -0.029   0.843  0.00  0.00     0.163 HD
HETATM    4  O           1      -0.130   1.761  -0.382  0.00  0.00    -0.271 OA
ENDROOT
BRANCH   1   5
HETATM    5  C           1      -0.490   0.115   1.267  0.00  0.00     0.278 C 
BRANCH   5   6
HETATM    6  N           1      -0.016   0.331   2.674  0.00  0.00    -0.066 N 
HETATM    7  H           1      -0.611  -0.222   3.331  0.00  0.00     0.275 HD
HETATM    8  H           1       0.977   0.020   2.759  0.00  0.00     0.275 HD
HETATM    9  H           1      -0.086   1.346   2.912  0.00  0.00     0.275 HD
ENDBRANCH   5   6
BRANCH   5  10
HETATM   10  C           1      -1.938   0.568   1.144  0.00  0.00     0.081 C 
BRANCH  10  11
HETATM   11  C           1      -2.849  -0.581   1.449  0.00  0.00    -0.056 A 
HETATM   12  C           1      -4.232  -0.406   1.400  0.00  0.00     0.010 A 
HETATM   13  C           1      -5.080  -1.476   1.684  0.00  0.00     0.037 A 
HETATM   14  C           1      -4.546  -2.721   2.017  0.00  0.00     0.065 A 
HETATM   15  C           1      -3.163  -2.896   2.065  0.00  0.00     0.037 A 
HETATM   16  C           1      -2.314  -1.825   1.781  0.00  0.00     0.010 A 
BRANCH  14  17
HETATM   17  O           1      -5.370  -3.761   2.292  0.00  0.00    -0.361 OA
HETATM   18  H           1      -6.286  -3.448   2.208  0.00  0.00     0.217 HD
ENDBRANCH  14  17
ENDBRANCH  10  11
ENDBRANCH   5  10
ENDBRANCH   1   5
BRANCH   2  19
HETATM   19  C           1       2.544   1.448  -0.656  0.00  0.00     0.191 C 
BRANCH  19  20
HETATM   20  C           1       2.446   2.914  -0.311  0.00  0.00     0.197 C 
HETATM   21  O           1       2.793   3.314   0.821  0.00  0.00    -0.646 OA
HETATM   22  O           1       2.017   3.727  -1.158  0.00  0.00    -0.646 OA
ENDBRANCH  19  20
BRANCH  19  23
HETATM   23  C           1       2.063   1.230  -2.084  0.00  0.00     0.094 C 
BRANCH  23  24
HETATM   24  C           1       3.170   0.640  -2.900  0.00  0.00     0.028 A 
HETATM   25  C           1       3.073   0.318  -4.233  0.00  0.00     0.114 A 
HETATM   26  N           1       4.300  -0.184  -4.567  0.00  0.00    -0.360 N 
HETATM   27  C           1       5.078  -0.146  -3.445  0.00  0.00     0.180 A 
HETATM   28  H           1       4.592  -0.533  -5.513  0.00  0.00     0.166 HD
HETATM   29  N           1       4.421   0.347  -2.421  0.00  0.00    -0.354 N 
ATOM     30  HN          1       4.767   0.483  -1.471  1.00  0.00     0.166 HD
ENDBRANCH  23  24
ENDBRANCH  19  23
ENDBRANCH   2  19
TORSDOF 9
