REMARK  9 active torsions:
REMARK  status: ('A' for Active; 'I' for Inactive)
REMARK    1  A    between atoms: O_1  and  C_20 
REMARK    2  A    between atoms: C_8  and  C_16 
REMARK    3  A    between atoms: C_8  and  C_13 
REMARK    4  A    between atoms: N_9  and  C_25 
REMARK       I    between atoms: N_9  and  C_15 
REMARK    5  A    between atoms: C_14  and  C_22 
REMARK    6  A    between atoms: C_14  and  C_25 
REMARK    7  A    between atoms: C_15  and  C_16 
REMARK    8  A    between atoms: C_16  and  N_17 
REMARK    9  A    between atoms: C_23  and  C_25 
ROOT
HETATM    1  C           1       0.082  -0.149   0.411  0.00  0.00     0.278 C 
ENDROOT
BRANCH   1   2
HETATM    2  C           1      -1.367   0.305   0.288  0.00  0.00     0.081 C 
BRANCH   2   3
HETATM    3  C           1      -2.277  -0.844   0.593  0.00  0.00    -0.056 A 
HETATM    4  C           1      -3.660  -0.669   0.544  0.00  0.00     0.010 A 
HETATM    5  C           1      -4.508  -1.740   0.828  0.00  0.00     0.037 A 
HETATM    6  C           1      -3.974  -2.984   1.160  0.00  0.00     0.065 A 
HETATM    7  C           1      -2.591  -3.159   1.209  0.00  0.00     0.037 A 
HETATM    8  C           1      -1.742  -2.089   0.925  0.00  0.00     0.010 A 
BRANCH   6   9
HETATM    9  O           1      -4.798  -4.024   1.436  0.00  0.00    -0.361 OA
HETATM   10  H           1      -5.714  -3.711   1.351  0.00  0.00     0.217 HD
ENDBRANCH   6   9
ENDBRANCH   2   3
ENDBRANCH   1   2
BRANCH   1  11
HETATM   11  C           1       0.942   0.651  -0.537  0.00  0.00     0.249 C 
HETATM   12  N           1       2.290   0.417  -0.602  0.00  0.00    -0.344 N 
HETATM   13  H           1       2.709  -0.292  -0.014  0.00  0.00     0.163 HD
HETATM   14  O           1       0.442   1.497  -1.239  0.00  0.00    -0.271 OA
BRANCH  12  15
HETATM   15  C           1       3.116   1.185  -1.512  0.00  0.00     0.195 C 
BRANCH  15  16
HETATM   16  C           1       3.016   2.664  -1.164  0.00  0.00     0.149 C 
BRANCH  16  17
HETATM   17  C           1       2.475   3.425  -2.349  0.00  0.00     0.175 C 
HETATM   18  O           1       2.313   4.662  -2.277  0.00  0.00    -0.648 OA
HETATM   19  O           1       2.188   2.818  -3.404  0.00  0.00    -0.648 OA
ENDBRANCH  16  17
ENDBRANCH  15  16
BRANCH  15  20
HETATM   20  C           1       4.551   0.735  -1.389  0.00  0.00     0.197 C 
HETATM   21  O           1       5.434   1.551  -1.044  0.00  0.00    -0.646 OA
HETATM   22  O           1       4.857  -0.452  -1.631  0.00  0.00    -0.646 OA
ENDBRANCH  15  20
ENDBRANCH  12  15
ENDBRANCH   1  11
BRANCH   1  23
HETATM   23  N           1       0.555   0.068   1.818  0.00  0.00    -0.066 N 
HETATM   24  H           1      -0.040  -0.485   2.475  0.00  0.00     0.275 HD
HETATM   25  H           1       0.486   1.083   2.056  0.00  0.00     0.275 HD
HETATM   26  H           1       1.549  -0.244   1.902  0.00  0.00     0.275 HD
ENDBRANCH   1  23
TORSDOF 9
