REMARK  11 active torsions:
REMARK  status: ('A' for Active; 'I' for Inactive)
REMARK    1  A    between atoms: C_1  and  C_32 
REMARK    2  A    between atoms: C_1  and  C_2 
REMARK    3  A    between atoms: C_4  and  O_7 
REMARK    4  A    between atoms: C_5  and  C_19 
REMARK    5  A    between atoms: C_5  and  C_10 
REMARK    6  A    between atoms: N_6  and  C_32 
REMARK    7  A    between atoms: N_8  and  C_28 
REMARK       I    between atoms: N_8  and  C_17 
REMARK    8  A    between atoms: C_10  and  C_28 
REMARK    9  A    between atoms: C_16  and  C_28 
REMARK   10  A    between atoms: C_17  and  C_32 
REMARK   11  A    between atoms: C_19  and  N_20 
REMARK       I    between atoms: N_20  and  C_27 
REMARK       I    between atoms: N_26  and  C_27 
ROOT
HETATM    1  N           1       1.288  -0.921  -1.283  0.00  0.00    -0.345 N 
HETATM    2  H           1       1.707  -1.631  -0.695  0.00  0.00     0.163 HD
HETATM    3  C           1      -0.059  -0.687  -1.218  0.00  0.00     0.249 C 
HETATM    4  O           1      -0.560   0.159  -1.920  0.00  0.00    -0.271 OA
ENDROOT
BRANCH   1   5
HETATM    5  C           1       2.114  -0.153  -2.193  0.00  0.00     0.185 C 
BRANCH   5   6
HETATM    6  C           1       2.015   1.326  -1.845  0.00  0.00     0.038 C 
BRANCH   6   7
HETATM    7  C           1       2.495   1.546  -0.417  0.00  0.00     0.023 C 
BRANCH   7   8
HETATM    8  C           1       2.396   3.025  -0.069  0.00  0.00     0.138 C 
BRANCH   8   9
HETATM    9  N           1       2.859   3.237   1.310  0.00  0.00    -0.227 N 
HETATM   10  H           1       3.190   2.423   1.884  0.00  0.00     0.177 HD
HETATM   11  C           1       2.860   4.402   1.805  0.00  0.00     0.665 C 
HETATM   12  N           1       2.462   5.385   1.113  0.00  0.00    -0.235 N 
HETATM   13  N           1       3.270   4.590   3.024  0.00  0.00    -0.235 N 
HETATM   14  H           1       2.131   5.233   0.128  0.00  0.00     0.174 HD
HETATM   15  H           1       2.463   6.351   1.524  0.00  0.00     0.174 HD
HETATM   16  H           1       3.599   3.779   3.596  0.00  0.00     0.174 HD
HETATM   17  H           1       3.271   5.552   3.433  0.00  0.00     0.174 HD
ENDBRANCH   8   9
ENDBRANCH   7   8
ENDBRANCH   6   7
ENDBRANCH   5   6
BRANCH   5  18
HETATM   18  C           1       3.550  -0.603  -2.070  0.00  0.00     0.196 C 
HETATM   19  O           1       4.432   0.212  -1.725  0.00  0.00    -0.646 OA
HETATM   20  O           1       3.856  -1.790  -2.312  0.00  0.00    -0.646 OA
ENDBRANCH   5  18
ENDBRANCH   1   5
BRANCH   3  21
HETATM   21  C           1      -0.919  -1.487  -0.270  0.00  0.00     0.278 C 
BRANCH  21  22
HETATM   22  C           1      -2.368  -1.034  -0.393  0.00  0.00     0.081 C 
BRANCH  22  23
HETATM   23  C           1      -3.279  -2.182  -0.088  0.00  0.00    -0.056 A 
HETATM   24  C           1      -2.744  -3.427   0.244  0.00  0.00     0.010 A 
HETATM   25  C           1      -3.592  -4.497   0.528  0.00  0.00     0.037 A 
HETATM   26  C           1      -4.975  -4.322   0.479  0.00  0.00     0.065 A 
HETATM   27  C           1      -5.510  -3.078   0.147  0.00  0.00     0.037 A 
HETATM   28  C           1      -4.662  -2.008  -0.137  0.00  0.00     0.010 A 
BRANCH  26  29
HETATM   29  O           1      -5.799  -5.362   0.755  0.00  0.00    -0.361 OA
HETATM   30  H           1      -6.716  -5.050   0.670  0.00  0.00     0.217 HD
ENDBRANCH  26  29
ENDBRANCH  22  23
ENDBRANCH  21  22
BRANCH  21  31
HETATM   31  N           1      -0.446  -1.270   1.137  0.00  0.00    -0.066 N 
HETATM   32  H           1      -1.041  -1.824   1.794  0.00  0.00     0.275 HD
HETATM   33  H           1       0.548  -1.582   1.221  0.00  0.00     0.275 HD
HETATM   34  H           1      -0.515  -0.255   1.375  0.00  0.00     0.275 HD
ENDBRANCH  21  31
ENDBRANCH   3  21
TORSDOF 11
