REMARK  7 active torsions:
REMARK  status: ('A' for Active; 'I' for Inactive)
REMARK    1  A    between atoms: C_3  and  C_5 
REMARK    2  A    between atoms: C_3  and  C_13 
REMARK    3  A    between atoms: C_3  and  N_17 
REMARK       I    between atoms: C_5  and  N_8 
REMARK    4  A    between atoms: C_6  and  O_20 
REMARK    5  A    between atoms: N_8  and  C_16 
REMARK    6  A    between atoms: C_13  and  C_18 
REMARK    7  A    between atoms: C_15  and  C_16 
ROOT
HETATM    1  C           1       0.512   0.405   0.116  0.00  0.00     0.278 C 
ENDROOT
BRANCH   1   2
HETATM    2  C           1       1.372   1.204  -0.831  0.00  0.00     0.249 C 
HETATM    3  N           1       2.719   0.970  -0.896  0.00  0.00    -0.349 N 
HETATM    4  H           1       3.138   0.261  -0.308  0.00  0.00     0.163 HD
HETATM    5  O           1       0.871   2.051  -1.533  0.00  0.00    -0.271 OA
BRANCH   3   6
HETATM    6  C           1       3.545   1.738  -1.807  0.00  0.00     0.235 C 
BRANCH   6   7
HETATM    7  C           1       4.981   1.289  -1.685  0.00  0.00     0.191 C 
HETATM    8  O           1       5.285   0.381  -0.882  0.00  0.00    -0.647 OA
HETATM    9  O           1       5.865   1.826  -2.387  0.00  0.00    -0.647 OA
ENDBRANCH   6   7
ENDBRANCH   3   6
ENDBRANCH   1   2
BRANCH   1  10
HETATM   10  C           1      -0.937   0.858  -0.007  0.00  0.00     0.081 C 
BRANCH  10  11
HETATM   11  C           1      -1.848  -0.291   0.298  0.00  0.00    -0.056 A 
HETATM   12  C           1      -3.231  -0.116   0.249  0.00  0.00     0.010 A 
HETATM   13  C           1      -4.079  -1.186   0.533  0.00  0.00     0.037 A 
HETATM   14  C           1      -3.544  -2.431   0.866  0.00  0.00     0.065 A 
HETATM   15  C           1      -2.161  -2.605   0.914  0.00  0.00     0.037 A 
HETATM   16  C           1      -1.313  -1.535   0.631  0.00  0.00     0.010 A 
BRANCH  14  17
HETATM   17  O           1      -4.369  -3.471   1.141  0.00  0.00    -0.361 OA
HETATM   18  H           1      -5.285  -3.158   1.057  0.00  0.00     0.217 HD
ENDBRANCH  14  17
ENDBRANCH  10  11
ENDBRANCH   1  10
BRANCH   1  19
HETATM   19  N           1       0.985   0.621   1.523  0.00  0.00    -0.066 N 
HETATM   20  H           1       0.916   1.636   1.761  0.00  0.00     0.275 HD
HETATM   21  H           1       1.979   0.310   1.608  0.00  0.00     0.275 HD
HETATM   22  H           1       0.390   0.068   2.180  0.00  0.00     0.275 HD
ENDBRANCH   1  19
TORSDOF 7
