REMARK  8 active torsions:
REMARK  status: ('A' for Active; 'I' for Inactive)
REMARK    1  A    between atoms: C_5  and  C_10 
REMARK    2  A    between atoms: C_5  and  C_17 
REMARK    3  A    between atoms: C_5  and  N_19 
REMARK    4  A    between atoms: C_6  and  C_23 
REMARK       I    between atoms: C_10  and  N_13 
REMARK    5  A    between atoms: C_11  and  O_24 
REMARK    6  A    between atoms: N_13  and  C_23 
REMARK    7  A    between atoms: C_17  and  C_21 
REMARK    8  A    between atoms: C_22  and  C_23 
ROOT
HETATM    1  C           1      -0.345  -0.486   0.520  0.00  0.00     0.278 C 
ENDROOT
BRANCH   1   2
HETATM    2  C           1       0.515   0.313  -0.428  0.00  0.00     0.249 C 
HETATM    3  N           1       1.863   0.079  -0.493  0.00  0.00    -0.344 N 
HETATM    4  H           1       2.282  -0.630   0.095  0.00  0.00     0.163 HD
HETATM    5  O           1       0.015   1.160  -1.130  0.00  0.00    -0.271 OA
BRANCH   3   6
HETATM    6  C           1       2.689   0.847  -1.403  0.00  0.00     0.189 C 
BRANCH   6   7
HETATM    7  C           1       2.589   2.327  -1.055  0.00  0.00     0.010 C 
HETATM    8  C           1       2.042   3.095  -2.251  0.00  0.00     0.012 C 
HETATM    9  C           1       3.972   2.858  -0.701  0.00  0.00     0.012 C 
ENDBRANCH   6   7
BRANCH   6  10
HETATM   10  C           1       4.124   0.398  -1.280  0.00  0.00     0.197 C 
HETATM   11  O           1       4.549  -0.044  -0.190  0.00  0.00    -0.646 OA
HETATM   12  O           1       4.888   0.467  -2.267  0.00  0.00    -0.646 OA
ENDBRANCH   6  10
ENDBRANCH   3   6
ENDBRANCH   1   2
BRANCH   1  13
HETATM   13  C           1      -1.794  -0.033   0.397  0.00  0.00     0.081 C 
BRANCH  13  14
HETATM   14  C           1      -2.704  -1.182   0.702  0.00  0.00    -0.056 A 
HETATM   15  C           1      -4.087  -1.007   0.653  0.00  0.00     0.010 A 
HETATM   16  C           1      -4.935  -2.077   0.937  0.00  0.00     0.037 A 
HETATM   17  C           1      -4.401  -3.322   1.269  0.00  0.00     0.065 A 
HETATM   18  C           1      -3.018  -3.496   1.318  0.00  0.00     0.037 A 
HETATM   19  C           1      -2.169  -2.426   1.034  0.00  0.00     0.010 A 
BRANCH  17  20
HETATM   20  O           1      -5.225  -4.361   1.545  0.00  0.00    -0.361 OA
HETATM   21  H           1      -6.141  -4.049   1.460  0.00  0.00     0.217 HD
ENDBRANCH  17  20
ENDBRANCH  13  14
ENDBRANCH   1  13
BRANCH   1  22
HETATM   22  N           1       0.128  -0.270   1.927  0.00  0.00    -0.066 N 
HETATM   23  H           1       0.059   0.745   2.165  0.00  0.00     0.275 HD
HETATM   24  H           1       1.122  -0.581   2.011  0.00  0.00     0.275 HD
HETATM   25  H           1      -0.467  -0.823   2.584  0.00  0.00     0.275 HD
ENDBRANCH   1  22
TORSDOF 8
