REMARK  9 active torsions:
REMARK  status: ('A' for Active; 'I' for Inactive)
REMARK    1  A    between atoms: O_1  and  C_25 
REMARK    2  A    between atoms: C_4  and  C_9 
REMARK    3  A    between atoms: C_4  and  C_5 
REMARK    4  A    between atoms: C_9  and  C_18 
REMARK    5  A    between atoms: C_9  and  N_22 
REMARK    6  A    between atoms: O_10  and  C_11 
REMARK    7  A    between atoms: C_11  and  C_12 
REMARK    8  A    between atoms: C_12  and  C_17 
REMARK    9  A    between atoms: C_12  and  N_24 
REMARK       I    between atoms: C_18  and  N_24 
ROOT
HETATM    1  C           1       0.139  -0.056   0.304  0.00  0.00     0.278 C 
ENDROOT
BRANCH   1   2
HETATM    2  C           1      -1.310   0.398   0.181  0.00  0.00     0.081 C 
BRANCH   2   3
HETATM    3  C           1      -2.220  -0.751   0.485  0.00  0.00    -0.056 A 
HETATM    4  C           1      -1.685  -1.995   0.818  0.00  0.00     0.010 A 
HETATM    5  C           1      -2.534  -3.066   1.102  0.00  0.00     0.037 A 
HETATM    6  C           1      -3.917  -2.891   1.053  0.00  0.00     0.065 A 
HETATM    7  C           1      -4.451  -1.647   0.721  0.00  0.00     0.037 A 
HETATM    8  C           1      -3.603  -0.576   0.437  0.00  0.00     0.010 A 
BRANCH   6   9
HETATM    9  O           1      -4.741  -3.931   1.329  0.00  0.00    -0.361 OA
HETATM   10  H           1      -5.657  -3.618   1.244  0.00  0.00     0.217 HD
ENDBRANCH   6   9
ENDBRANCH   2   3
ENDBRANCH   1   2
BRANCH   1  11
HETATM   11  C           1       0.999   0.744  -0.644  0.00  0.00     0.249 C 
HETATM   12  O           1       0.499   1.590  -1.346  0.00  0.00    -0.271 OA
HETATM   13  N           1       2.347   0.510  -0.709  0.00  0.00    -0.343 N 
HETATM   14  H           1       2.766  -0.199  -0.121  0.00  0.00     0.163 HD
BRANCH  13  15
HETATM   15  C           1       3.173   1.278  -1.620  0.00  0.00     0.209 C 
BRANCH  15  16
HETATM   16  C           1       3.073   2.757  -1.272  0.00  0.00     0.200 C 
BRANCH  16  17
HETATM   17  O           1       2.570   3.464  -2.373  0.00  0.00    -0.398 OA
HETATM   18  H           1       2.524   4.370  -2.119  0.00  0.00     0.209 HD
ENDBRANCH  16  17
ENDBRANCH  15  16
BRANCH  15  19
HETATM   19  C           1       4.608   0.828  -1.496  0.00  0.00     0.198 C 
HETATM   20  O           1       4.914  -0.359  -1.738  0.00  0.00    -0.646 OA
HETATM   21  O           1       5.491   1.644  -1.151  0.00  0.00    -0.646 OA
ENDBRANCH  15  19
ENDBRANCH  13  15
ENDBRANCH   1  11
BRANCH   1  22
HETATM   22  N           1       0.612   0.161   1.711  0.00  0.00    -0.066 N 
HETATM   23  H           1       0.017  -0.392   2.368  0.00  0.00     0.275 HD
HETATM   24  H           1       1.606  -0.151   1.795  0.00  0.00     0.275 HD
HETATM   25  H           1       0.543   1.176   1.949  0.00  0.00     0.275 HD
ENDBRANCH   1  22
TORSDOF 9
