REMARK  10 active torsions:
REMARK  status: ('A' for Active; 'I' for Inactive)
REMARK    1  A    between atoms: C_2  and  C_12 
REMARK    2  A    between atoms: C_4  and  C_10 
REMARK    3  A    between atoms: C_4  and  C_24 
REMARK    4  A    between atoms: C_4  and  N_9 
REMARK       I    between atoms: N_9  and  C_21 
REMARK    5  A    between atoms: C_10  and  C_29 
REMARK    6  A    between atoms: C_12  and  C_13 
REMARK    7  A    between atoms: C_13  and  C_21 
REMARK    8  A    between atoms: C_13  and  N_19 
REMARK    9  A    between atoms: O_14  and  C_15 
REMARK   10  A    between atoms: O_26  and  C_30 
ROOT
HETATM    1  N           1       0.626  -0.489  -0.501  0.00  0.00    -0.344 N 
HETATM    2  H           1       1.251  -0.487   0.295  0.00  0.00     0.163 HD
HETATM    3  O           1      -1.400  -0.026  -1.318  0.00  0.00    -0.271 OA
HETATM    4  C           1      -0.654  -0.024  -0.367  0.00  0.00     0.249 C 
ENDROOT
BRANCH   4   5
HETATM    5  C           1      -1.135   0.491   0.968  0.00  0.00     0.278 C 
BRANCH   5   6
HETATM    6  C           1      -2.583   0.944   0.846  0.00  0.00     0.081 C 
BRANCH   6   7
HETATM    7  C           1      -3.436   0.151   1.786  0.00  0.00    -0.056 A 
HETATM    8  C           1      -4.809   0.389   1.853  0.00  0.00     0.010 A 
HETATM    9  C           1      -5.603  -0.350   2.729  0.00  0.00     0.037 A 
HETATM   10  C           1      -5.025  -1.329   3.538  0.00  0.00     0.065 A 
HETATM   11  C           1      -3.652  -1.567   3.471  0.00  0.00     0.037 A 
HETATM   12  C           1      -2.858  -0.828   2.595  0.00  0.00     0.010 A 
BRANCH  10  13
HETATM   13  O           1      -5.797  -2.047   4.389  0.00  0.00    -0.361 OA
HETATM   14  H           1      -5.221  -2.672   4.862  0.00  0.00     0.217 HD
ENDBRANCH  10  13
ENDBRANCH   6   7
ENDBRANCH   5   6
BRANCH   5  15
HETATM   15  N           1      -0.282   1.650   1.391  0.00  0.00    -0.066 N 
HETATM   16  H           1      -0.351   2.411   0.679  0.00  0.00     0.275 HD
HETATM   17  H           1      -0.614   2.007   2.316  0.00  0.00     0.275 HD
HETATM   18  H           1       0.712   1.339   1.475  0.00  0.00     0.275 HD
ENDBRANCH   5  15
ENDBRANCH   4   5
BRANCH   1  19
HETATM   19  C           1       1.088  -0.984  -1.783  0.00  0.00     0.189 C 
BRANCH  19  20
HETATM   20  C           1       2.536  -1.437  -1.660  0.00  0.00     0.074 C 
BRANCH  20  21
HETATM   21  C           1       3.447  -0.289  -1.965  0.00  0.00    -0.056 A 
HETATM   22  C           1       4.830  -0.463  -1.916  0.00  0.00     0.010 A 
HETATM   23  C           1       5.678   0.607  -2.200  0.00  0.00     0.037 A 
HETATM   24  C           1       5.144   1.852  -2.533  0.00  0.00     0.065 A 
HETATM   25  C           1       3.761   2.026  -2.581  0.00  0.00     0.037 A 
HETATM   26  C           1       2.912   0.956  -2.297  0.00  0.00     0.010 A 
BRANCH  24  27
HETATM   27  O           1       5.968   2.891  -2.809  0.00  0.00    -0.361 OA
HETATM   28  H           1       5.417   3.665  -3.015  0.00  0.00     0.217 HD
ENDBRANCH  24  27
ENDBRANCH  20  21
ENDBRANCH  19  20
BRANCH  19  29
HETATM   29  C           1       0.230  -2.150  -2.210  0.00  0.00     0.197 C 
HETATM   30  O           1       0.749  -3.270  -2.403  0.00  0.00    -0.646 OA
HETATM   31  O           1      -1.000  -1.995  -2.371  0.00  0.00    -0.646 OA
ENDBRANCH  19  29
ENDBRANCH   1  19
TORSDOF 10
