REMARK  9 active torsions:
REMARK  status: ('A' for Active; 'I' for Inactive)
REMARK    1  A    between atoms: C_2  and  C_3 
REMARK    2  A    between atoms: C_2  and  C_17 
REMARK    3  A    between atoms: C_3  and  C_4 
REMARK    4  A    between atoms: C_3  and  N_22 
REMARK       I    between atoms: C_4  and  N_5 
REMARK    5  A    between atoms: N_5  and  C_15 
REMARK    6  A    between atoms: C_8  and  C_15 
REMARK    7  A    between atoms: C_9  and  O_11 
REMARK    8  A    between atoms: C_15  and  C_25 
REMARK    9  A    between atoms: C_24  and  C_25 
ROOT
HETATM    1  C           1      -0.366  -0.766   0.641  0.00  0.00     0.278 C 
ENDROOT
BRANCH   1   2
HETATM    2  C           1      -1.815  -0.313   0.518  0.00  0.00     0.081 C 
BRANCH   2   3
HETATM    3  C           1      -2.726  -1.462   0.822  0.00  0.00    -0.056 A 
HETATM    4  C           1      -2.191  -2.706   1.155  0.00  0.00     0.010 A 
HETATM    5  C           1      -3.039  -3.777   1.439  0.00  0.00     0.037 A 
HETATM    6  C           1      -4.422  -3.602   1.390  0.00  0.00     0.065 A 
HETATM    7  C           1      -4.957  -2.357   1.058  0.00  0.00     0.037 A 
HETATM    8  C           1      -4.109  -1.287   0.774  0.00  0.00     0.010 A 
BRANCH   6   9
HETATM    9  O           1      -5.247  -4.642   1.666  0.00  0.00    -0.361 OA
HETATM   10  H           1      -6.163  -4.329   1.581  0.00  0.00     0.217 HD
ENDBRANCH   6   9
ENDBRANCH   2   3
ENDBRANCH   1   2
BRANCH   1  11
HETATM   11  C           1       0.494   0.033  -0.307  0.00  0.00     0.249 C 
HETATM   12  O           1      -0.007   0.879  -1.009  0.00  0.00    -0.271 OA
HETATM   13  N           1       1.841  -0.201  -0.372  0.00  0.00    -0.344 N 
HETATM   14  H           1       2.260  -0.910   0.216  0.00  0.00     0.163 HD
BRANCH  13  15
HETATM   15  C           1       2.667   0.567  -1.283  0.00  0.00     0.189 C 
BRANCH  15  16
HETATM   16  C           1       4.103   0.118  -1.159  0.00  0.00     0.197 C 
HETATM   17  O           1       4.528  -0.324  -0.070  0.00  0.00    -0.646 OA
HETATM   18  O           1       4.866   0.187  -2.146  0.00  0.00    -0.646 OA
ENDBRANCH  15  16
BRANCH  15  19
HETATM   19  C           1       2.568   2.046  -0.935  0.00  0.00     0.014 C 
HETATM   20  C           1       3.950   2.578  -0.580  0.00  0.00     0.012 C 
BRANCH  19  21
HETATM   21  C           1       2.021   2.814  -2.131  0.00  0.00     0.002 C 
HETATM   22  C           1       0.722   3.506  -1.740  0.00  0.00     0.005 C 
ENDBRANCH  19  21
ENDBRANCH  15  19
ENDBRANCH  13  15
ENDBRANCH   1  11
BRANCH   1  23
HETATM   23  N           1       0.107  -0.550   2.048  0.00  0.00    -0.066 N 
HETATM   24  H           1       0.038   0.465   2.286  0.00  0.00     0.275 HD
HETATM   25  H           1       1.101  -0.862   2.132  0.00  0.00     0.275 HD
HETATM   26  H           1      -0.488  -1.103   2.705  0.00  0.00     0.275 HD
ENDBRANCH   1  23
TORSDOF 9
