REMARK  7 active torsions:
REMARK  status: ('A' for Active; 'I' for Inactive)
REMARK    1  A    between atoms: C_2  and  C_5 
REMARK    2  A    between atoms: C_2  and  N_17 
REMARK    3  A    between atoms: N_4  and  C_11 
REMARK    4  A    between atoms: C_6  and  O_7 
REMARK    5  A    between atoms: C_11  and  C_23 
REMARK    6  A    between atoms: C_11  and  C_16 
REMARK    7  A    between atoms: C_14  and  C_16 
REMARK       I    between atoms: N_17  and  C_23 
ROOT
HETATM    1  C           1       0.210   0.077   0.235  0.00  0.00     0.278 C 
ENDROOT
BRANCH   1   2
HETATM    2  N           1       0.684   0.294   1.642  0.00  0.00    -0.066 N 
HETATM    3  H           1       0.089  -0.259   2.299  0.00  0.00     0.275 HD
HETATM    4  H           1       1.678  -0.018   1.726  0.00  0.00     0.275 HD
HETATM    5  H           1       0.614   1.309   1.880  0.00  0.00     0.275 HD
ENDBRANCH   1   2
BRANCH   1   6
HETATM    6  C           1       1.071   0.877  -0.713  0.00  0.00     0.249 C 
HETATM    7  O           1       0.570   1.723  -1.415  0.00  0.00    -0.271 OA
HETATM    8  N           1       2.418   0.643  -0.778  0.00  0.00    -0.345 N 
HETATM    9  H           1       2.837  -0.067  -0.190  0.00  0.00     0.163 HD
BRANCH   8  10
HETATM   10  C           1       3.244   1.411  -1.689  0.00  0.00     0.181 C 
HETATM   11  C           1       3.145   2.890  -1.341  0.00  0.00     0.043 C 
BRANCH  10  12
HETATM   12  C           1       4.679   0.961  -1.565  0.00  0.00     0.196 C 
HETATM   13  O           1       4.986  -0.226  -1.807  0.00  0.00    -0.646 OA
HETATM   14  O           1       5.562   1.776  -1.220  0.00  0.00    -0.646 OA
ENDBRANCH  10  12
ENDBRANCH   8  10
ENDBRANCH   1   6
BRANCH   1  15
HETATM   15  C           1      -1.238   0.530   0.112  0.00  0.00     0.081 C 
BRANCH  15  16
HETATM   16  C           1      -2.149  -0.618   0.416  0.00  0.00    -0.056 A 
HETATM   17  C           1      -1.614  -1.863   0.749  0.00  0.00     0.010 A 
HETATM   18  C           1      -2.462  -2.933   1.033  0.00  0.00     0.037 A 
HETATM   19  C           1      -3.845  -2.758   0.984  0.00  0.00     0.065 A 
HETATM   20  C           1      -4.380  -1.514   0.652  0.00  0.00     0.037 A 
HETATM   21  C           1      -3.532  -0.444   0.368  0.00  0.00     0.010 A 
BRANCH  19  22
HETATM   22  O           1      -4.670  -3.798   1.260  0.00  0.00    -0.361 OA
HETATM   23  H           1      -5.586  -3.485   1.175  0.00  0.00     0.217 HD
ENDBRANCH  19  22
ENDBRANCH  15  16
ENDBRANCH   1  15
TORSDOF 7
