REMARK  10 active torsions:
REMARK  status: ('A' for Active; 'I' for Inactive)
REMARK    1  A    between atoms: C_5  and  C_20 
REMARK    2  A    between atoms: S_7  and  C_23 
REMARK    3  A    between atoms: C_8  and  C_9 
REMARK    4  A    between atoms: C_9  and  C_16 
REMARK    5  A    between atoms: C_12  and  O_25 
REMARK    6  A    between atoms: N_14  and  C_16 
REMARK    7  A    between atoms: C_16  and  C_21 
REMARK    8  A    between atoms: C_20  and  C_24 
REMARK    9  A    between atoms: C_20  and  N_22 
REMARK       I    between atoms: C_21  and  N_22 
REMARK   10  A    between atoms: C_23  and  C_24 
ROOT
HETATM    1  C           1      -0.133  -0.815   0.833  0.00  0.00     0.278 C 
ENDROOT
BRANCH   1   2
HETATM    2  C           1      -1.582  -0.362   0.710  0.00  0.00     0.081 C 
BRANCH   2   3
HETATM    3  C           1      -2.492  -1.510   1.015  0.00  0.00    -0.056 A 
HETATM    4  C           1      -1.957  -2.755   1.347  0.00  0.00     0.010 A 
HETATM    5  C           1      -2.806  -3.825   1.631  0.00  0.00     0.037 A 
HETATM    6  C           1      -4.189  -3.651   1.582  0.00  0.00     0.065 A 
HETATM    7  C           1      -4.724  -2.406   1.250  0.00  0.00     0.037 A 
HETATM    8  C           1      -3.875  -1.336   0.966  0.00  0.00     0.010 A 
BRANCH   6   9
HETATM    9  O           1      -5.013  -4.690   1.858  0.00  0.00    -0.361 OA
HETATM   10  H           1      -5.929  -4.378   1.773  0.00  0.00     0.217 HD
ENDBRANCH   6   9
ENDBRANCH   2   3
ENDBRANCH   1   2
BRANCH   1  11
HETATM   11  N           1       0.340  -0.599   2.240  0.00  0.00    -0.066 N 
HETATM   12  H           1       0.271   0.416   2.478  0.00  0.00     0.275 HD
HETATM   13  H           1       1.334  -0.910   2.324  0.00  0.00     0.275 HD
HETATM   14  H           1      -0.255  -1.152   2.897  0.00  0.00     0.275 HD
ENDBRANCH   1  11
BRANCH   1  15
HETATM   15  C           1       0.727  -0.016  -0.115  0.00  0.00     0.249 C 
HETATM   16  N           1       2.074  -0.250  -0.179  0.00  0.00    -0.345 N 
HETATM   17  H           1       2.494  -0.959   0.408  0.00  0.00     0.163 HD
HETATM   18  O           1       0.227   0.831  -0.816  0.00  0.00    -0.271 OA
BRANCH  16  19
HETATM   19  C           1       2.901   0.518  -1.090  0.00  0.00     0.186 C 
BRANCH  19  20
HETATM   20  C           1       4.336   0.069  -0.967  0.00  0.00     0.196 C 
HETATM   21  O           1       4.642  -1.119  -1.209  0.00  0.00    -0.646 OA
HETATM   22  O           1       5.219   0.884  -0.622  0.00  0.00    -0.646 OA
ENDBRANCH  19  20
BRANCH  19  23
HETATM   23  C           1       2.801   1.998  -0.742  0.00  0.00     0.046 C 
BRANCH  23  24
HETATM   24  C           1       2.254   2.766  -1.938  0.00  0.00     0.076 C 
BRANCH  24  25
HETATM   25  S           1       2.136   4.529  -1.524  0.00  0.00    -0.173 SA
HETATM   26  C           1       1.477   5.066  -3.127  0.00  0.00     0.089 C 
ENDBRANCH  24  25
ENDBRANCH  23  24
ENDBRANCH  19  23
ENDBRANCH  16  19
ENDBRANCH   1  15
TORSDOF 10
