REMARK  9 active torsions:
REMARK  status: ('A' for Active; 'I' for Inactive)
REMARK    1  A    between atoms: C_1  and  Se_10 
REMARK    2  A    between atoms: C_1  and  C_21 
REMARK    3  A    between atoms: C_4  and  O_20 
REMARK    4  A    between atoms: C_7  and  C_24 
REMARK    5  A    between atoms: N_9  and  C_21 
REMARK       I    between atoms: N_9  and  C_25 
REMARK    6  A    between atoms: N_12  and  C_23 
REMARK    7  A    between atoms: C_14  and  C_21 
REMARK    8  A    between atoms: C_23  and  C_25 
REMARK    9  A    between atoms: C_23  and  C_24 
ROOT
HETATM    1  C           1       0.148  -0.083   0.316  0.00  0.00     0.278 C 
ENDROOT
BRANCH   1   2
HETATM    2  N           1       0.621   0.134   1.723  0.00  0.00    -0.066 N 
HETATM    3  H           1       0.026  -0.420   2.380  0.00  0.00     0.275 HD
HETATM    4  H           1       1.615  -0.178   1.808  0.00  0.00     0.275 HD
HETATM    5  H           1       0.552   1.149   1.961  0.00  0.00     0.275 HD
ENDBRANCH   1   2
BRANCH   1   6
HETATM    6  C           1       1.008   0.717  -0.632  0.00  0.00     0.249 C 
HETATM    7  O           1       0.508   1.563  -1.333  0.00  0.00    -0.271 OA
HETATM    8  N           1       2.355   0.483  -0.696  0.00  0.00    -0.345 N 
HETATM    9  H           1       2.774  -0.227  -0.108  0.00  0.00     0.163 HD
BRANCH   8  10
HETATM   10  C           1       3.182   1.251  -1.607  0.00  0.00     0.185 C 
BRANCH  10  11
HETATM   11  C           1       3.082   2.730  -1.259  0.00  0.00     0.039 C 
BRANCH  11  12
HETATM   12 Se           1       2.382   3.713  -2.790  0.00  0.00     0.000 Se
HETATM   13  H           1       2.425   5.021  -2.117  0.00  0.00     0.000 HD
ENDBRANCH  11  12
ENDBRANCH  10  11
BRANCH  10  14
HETATM   14  C           1       4.617   0.801  -1.483  0.00  0.00     0.196 C 
HETATM   15  O           1       5.500   1.616  -1.139  0.00  0.00    -0.646 OA
HETATM   16  O           1       4.923  -0.386  -1.726  0.00  0.00    -0.646 OA
ENDBRANCH  10  14
ENDBRANCH   8  10
ENDBRANCH   1   6
BRANCH   1  17
HETATM   17  C           1      -1.301   0.370   0.193  0.00  0.00     0.081 C 
BRANCH  17  18
HETATM   18  C           1      -2.211  -0.778   0.498  0.00  0.00    -0.056 A 
HETATM   19  C           1      -1.677  -2.023   0.830  0.00  0.00     0.010 A 
HETATM   20  C           1      -2.525  -3.093   1.114  0.00  0.00     0.037 A 
HETATM   21  C           1      -3.908  -2.918   1.066  0.00  0.00     0.065 A 
HETATM   22  C           1      -4.443  -1.674   0.733  0.00  0.00     0.037 A 
HETATM   23  C           1      -3.594  -0.604   0.449  0.00  0.00     0.010 A 
BRANCH  21  24
HETATM   24  O           1      -4.732  -3.958   1.341  0.00  0.00    -0.361 OA
HETATM   25  H           1      -5.649  -3.646   1.257  0.00  0.00     0.217 HD
ENDBRANCH  21  24
ENDBRANCH  17  18
ENDBRANCH   1  17
TORSDOF 9
