REMARK  10 active torsions:
REMARK  status: ('A' for Active; 'I' for Inactive)
REMARK    1  A    between atoms: C_2  and  C_21 
REMARK    2  A    between atoms: C_2  and  C_3 
REMARK    3  A    between atoms: C_3  and  C_23 
REMARK    4  A    between atoms: C_3  and  N_14 
REMARK    5  A    between atoms: C_4  and  C_15 
REMARK    6  A    between atoms: C_4  and  C_5 
REMARK       I    between atoms: N_14  and  C_22 
REMARK    7  A    between atoms: C_15  and  C_22 
REMARK    8  A    between atoms: C_15  and  N_18 
REMARK    9  A    between atoms: C_17  and  O_19 
REMARK   10  A    between atoms: C_21  and  Se_26 
ROOT
HETATM    1  C           1      -0.127  -0.830   0.843  0.00  0.00     0.278 C 
ENDROOT
BRANCH   1   2
HETATM    2  C           1      -1.576  -0.376   0.720  0.00  0.00     0.081 C 
BRANCH   2   3
HETATM    3  C           1      -2.487  -1.525   1.024  0.00  0.00    -0.056 A 
HETATM    4  C           1      -1.952  -2.769   1.357  0.00  0.00     0.010 A 
HETATM    5  C           1      -2.800  -3.840   1.641  0.00  0.00     0.037 A 
HETATM    6  C           1      -4.183  -3.665   1.592  0.00  0.00     0.065 A 
HETATM    7  C           1      -4.718  -2.421   1.260  0.00  0.00     0.037 A 
HETATM    8  C           1      -3.870  -1.350   0.976  0.00  0.00     0.010 A 
BRANCH   6   9
HETATM    9  O           1      -5.007  -4.705   1.868  0.00  0.00    -0.361 OA
HETATM   10  H           1      -5.924  -4.392   1.783  0.00  0.00     0.217 HD
ENDBRANCH   6   9
ENDBRANCH   2   3
ENDBRANCH   1   2
BRANCH   1  11
HETATM   11  C           1       0.733  -0.030  -0.105  0.00  0.00     0.249 C 
HETATM   12  O           1       0.232   0.816  -0.807  0.00  0.00    -0.271 OA
HETATM   13  N           1       2.080  -0.264  -0.170  0.00  0.00    -0.345 N 
HETATM   14  H           1       2.499  -0.973   0.418  0.00  0.00     0.163 HD
BRANCH  13  15
HETATM   15  C           1       2.907   0.504  -1.081  0.00  0.00     0.185 C 
BRANCH  15  16
HETATM   16  C           1       2.807   1.983  -0.733  0.00  0.00     0.036 C 
BRANCH  16  17
HETATM   17  C           1       2.260   2.751  -1.929  0.00  0.00     0.003 C 
BRANCH  17  18
HETATM   18 Se           1       2.132   4.644  -1.484  0.00  0.00     0.000 Se
HETATM   19  C           1       1.427   5.174  -3.222  0.00  0.00     0.000 C 
ENDBRANCH  17  18
ENDBRANCH  16  17
ENDBRANCH  15  16
BRANCH  15  20
HETATM   20  C           1       4.342   0.054  -0.957  0.00  0.00     0.196 C 
HETATM   21  O           1       4.648  -1.133  -1.199  0.00  0.00    -0.646 OA
HETATM   22  O           1       5.224   0.870  -0.612  0.00  0.00    -0.646 OA
ENDBRANCH  15  20
ENDBRANCH  13  15
ENDBRANCH   1  11
BRANCH   1  23
HETATM   23  N           1       0.346  -0.613   2.249  0.00  0.00    -0.066 N 
HETATM   24  H           1      -0.249  -1.166   2.907  0.00  0.00     0.275 HD
HETATM   25  H           1       1.340  -0.925   2.334  0.00  0.00     0.275 HD
HETATM   26  H           1       0.277   0.402   2.488  0.00  0.00     0.275 HD
ENDBRANCH   1  23
TORSDOF 10
