REMARK  12 active torsions:
REMARK  status: ('A' for Active; 'I' for Inactive)
REMARK    1  A    between atoms: C_5  and  C_25 
REMARK    2  A    between atoms: C_5  and  C_14 
REMARK    3  A    between atoms: C_11  and  C_13 
REMARK    4  A    between atoms: C_11  and  C_20 
REMARK    5  A    between atoms: N_12  and  C_13 
REMARK    6  A    between atoms: C_13  and  C_18 
REMARK    7  A    between atoms: C_14  and  C_23 
REMARK    8  A    between atoms: C_16  and  O_17 
REMARK       I    between atoms: C_18  and  N_19 
REMARK    9  A    between atoms: N_19  and  C_27 
REMARK   10  A    between atoms: C_23  and  C_27 
REMARK   11  A    between atoms: N_24  and  C_25 
REMARK   12  A    between atoms: C_27  and  C_28 
ROOT
HETATM    1  O           1      -0.429   0.427  -1.791  0.00  0.00    -0.271 OA
HETATM    2  H           1       1.838  -1.363  -0.566  0.00  0.00     0.163 HD
HETATM    3  C           1       0.071  -0.420  -1.090  0.00  0.00     0.249 C 
HETATM    4  N           1       1.419  -0.654  -1.154  0.00  0.00    -0.345 N 
ENDROOT
BRANCH   3   5
HETATM    5  C           1      -0.789  -1.219  -0.142  0.00  0.00     0.278 C 
BRANCH   5   6
HETATM    6  C           1      -2.237  -0.766  -0.265  0.00  0.00     0.081 C 
BRANCH   6   7
HETATM    7  C           1      -3.148  -1.914   0.040  0.00  0.00    -0.056 A 
HETATM    8  C           1      -2.613  -3.159   0.372  0.00  0.00     0.010 A 
HETATM    9  C           1      -3.462  -4.229   0.656  0.00  0.00     0.037 A 
HETATM   10  C           1      -4.845  -4.055   0.608  0.00  0.00     0.065 A 
HETATM   11  C           1      -5.379  -2.810   0.275  0.00  0.00     0.037 A 
HETATM   12  C           1      -4.531  -1.740  -0.009  0.00  0.00     0.010 A 
BRANCH  10  13
HETATM   13  O           1      -5.669  -5.094   0.883  0.00  0.00    -0.361 OA
HETATM   14  H           1      -6.585  -4.782   0.799  0.00  0.00     0.217 HD
ENDBRANCH  10  13
ENDBRANCH   6   7
ENDBRANCH   5   6
BRANCH   5  15
HETATM   15  N           1      -0.315  -1.003   1.265  0.00  0.00    -0.066 N 
HETATM   16  H           1      -0.385   0.013   1.503  0.00  0.00     0.275 HD
HETATM   17  H           1      -0.911  -1.556   1.922  0.00  0.00     0.275 HD
HETATM   18  H           1       0.678  -1.314   1.350  0.00  0.00     0.275 HD
ENDBRANCH   5  15
ENDBRANCH   3   5
BRANCH   4  19
HETATM   19  C           1       2.245   0.114  -2.065  0.00  0.00     0.185 C 
BRANCH  19  20
HETATM   20  C           1       2.145   1.594  -1.717  0.00  0.00     0.036 C 
BRANCH  20  21
HETATM   21  C           1       2.626   1.814  -0.289  0.00  0.00     0.004 C 
BRANCH  21  22
HETATM   22  C           1       2.526   3.293   0.059  0.00  0.00     0.027 C 
BRANCH  22  23
HETATM   23  C           1       3.007   3.513   1.488  0.00  0.00     0.229 C 
BRANCH  23  24
HETATM   24  N           1       2.909   4.970   1.830  0.00  0.00    -0.079 N 
HETATM   25  H           1       3.238   5.121   2.811  0.00  0.00     0.274 HD
HETATM   26  H           1       3.505   5.522   1.174  0.00  0.00     0.274 HD
HETATM   27  H           1       1.915   5.281   1.746  0.00  0.00     0.274 HD
ENDBRANCH  23  24
ENDBRANCH  22  23
ENDBRANCH  21  22
ENDBRANCH  20  21
ENDBRANCH  19  20
BRANCH  19  28
HETATM   28  C           1       3.680  -0.335  -1.941  0.00  0.00     0.196 C 
HETATM   29  O           1       4.563   0.480  -1.597  0.00  0.00    -0.646 OA
HETATM   30  O           1       3.986  -1.523  -2.184  0.00  0.00    -0.646 OA
ENDBRANCH  19  28
ENDBRANCH   4  19
TORSDOF 12
