REMARK  9 active torsions:
REMARK  status: ('A' for Active; 'I' for Inactive)
REMARK    1  A    between atoms: S_2  and  C_7 
REMARK    2  A    between atoms: C_3  and  C_6 
REMARK    3  A    between atoms: C_3  and  C_18 
REMARK    4  A    between atoms: C_3  and  N_22 
REMARK    5  A    between atoms: O_4  and  C_17 
REMARK       I    between atoms: C_6  and  N_12 
REMARK    6  A    between atoms: C_7  and  C_9 
REMARK    7  A    between atoms: C_8  and  C_18 
REMARK    8  A    between atoms: C_9  and  C_25 
REMARK    9  A    between atoms: C_9  and  N_12 
ROOT
HETATM    1  C           1       0.146  -0.076   0.313  0.00  0.00     0.278 C 
ENDROOT
BRANCH   1   2
HETATM    2  C           1       1.006   0.723  -0.635  0.00  0.00     0.249 C 
HETATM    3  N           1       2.353   0.489  -0.700  0.00  0.00    -0.344 N 
HETATM    4  H           1       2.772  -0.220  -0.112  0.00  0.00     0.163 HD
HETATM    5  O           1       0.505   1.570  -1.337  0.00  0.00    -0.271 OA
BRANCH   3   6
HETATM    6  C           1       3.179   1.257  -1.610  0.00  0.00     0.194 C 
BRANCH   6   7
HETATM    7  C           1       3.080   2.737  -1.263  0.00  0.00     0.106 C 
BRANCH   7   8
HETATM    8  S           1       2.428   3.652  -2.688  0.00  0.00    -0.180 SA
HETATM    9  H           1       2.455   4.862  -2.102  0.00  0.00     0.101 HD
ENDBRANCH   7   8
ENDBRANCH   6   7
BRANCH   6  10
HETATM   10  C           1       4.615   0.808  -1.487  0.00  0.00     0.197 C 
HETATM   11  O           1       5.497   1.623  -1.142  0.00  0.00    -0.646 OA
HETATM   12  O           1       4.921  -0.380  -1.729  0.00  0.00    -0.646 OA
ENDBRANCH   6  10
ENDBRANCH   3   6
ENDBRANCH   1   2
BRANCH   1  13
HETATM   13  C           1      -1.303   0.377   0.190  0.00  0.00     0.081 C 
BRANCH  13  14
HETATM   14  C           1      -2.214  -0.771   0.494  0.00  0.00    -0.056 A 
HETATM   15  C           1      -1.679  -2.016   0.827  0.00  0.00     0.010 A 
HETATM   16  C           1      -2.527  -3.086   1.111  0.00  0.00     0.037 A 
HETATM   17  C           1      -3.910  -2.912   1.062  0.00  0.00     0.065 A 
HETATM   18  C           1      -4.445  -1.667   0.730  0.00  0.00     0.037 A 
HETATM   19  C           1      -3.597  -0.597   0.446  0.00  0.00     0.010 A 
BRANCH  17  20
HETATM   20  O           1      -4.734  -3.951   1.338  0.00  0.00    -0.361 OA
HETATM   21  H           1      -5.651  -3.639   1.253  0.00  0.00     0.217 HD
ENDBRANCH  17  20
ENDBRANCH  13  14
ENDBRANCH   1  13
BRANCH   1  22
HETATM   22  N           1       0.619   0.140   1.720  0.00  0.00    -0.066 N 
HETATM   23  H           1       1.613  -0.171   1.804  0.00  0.00     0.275 HD
HETATM   24  H           1       0.550   1.155   1.958  0.00  0.00     0.275 HD
HETATM   25  H           1       0.024  -0.413   2.377  0.00  0.00     0.275 HD
ENDBRANCH   1  22
TORSDOF 9
