REMARK  9 active torsions:
REMARK  status: ('A' for Active; 'I' for Inactive)
REMARK    1  A    between atoms: N_3  and  C_26 
REMARK       I    between atoms: N_3  and  C_23 
REMARK    2  A    between atoms: C_4  and  C_16 
REMARK    3  A    between atoms: O_5  and  C_18 
REMARK    4  A    between atoms: C_7  and  C_13 
REMARK    5  A    between atoms: N_10  and  C_17 
REMARK    6  A    between atoms: C_13  and  C_26 
REMARK    7  A    between atoms: C_16  and  C_17 
REMARK    8  A    between atoms: C_17  and  C_23 
REMARK    9  A    between atoms: C_25  and  C_26 
ROOT
HETATM    1  C           1      -0.279  -0.640   0.937  0.00  0.00     0.260 C 
ENDROOT
BRANCH   1   2
HETATM    2  N           1       0.194  -0.424   2.344  0.00  0.00    -0.067 N 
HETATM    3  H           1      -0.401  -0.977   3.001  0.00  0.00     0.275 HD
HETATM    4  H           1       1.188  -0.735   2.429  0.00  0.00     0.275 HD
HETATM    5  H           1       0.125   0.592   2.582  0.00  0.00     0.275 HD
ENDBRANCH   1   2
BRANCH   1   6
HETATM    6  C           1      -1.728  -0.187   0.814  0.00  0.00     0.079 C 
BRANCH   6   7
HETATM    7  C           1      -2.638  -1.335   1.119  0.00  0.00    -0.056 A 
HETATM    8  C           1      -2.103  -2.580   1.451  0.00  0.00     0.010 A 
HETATM    9  C           1      -2.952  -3.650   1.735  0.00  0.00     0.037 A 
HETATM   10  C           1      -4.335  -3.476   1.687  0.00  0.00     0.065 A 
HETATM   11  C           1      -4.870  -2.231   1.354  0.00  0.00     0.037 A 
HETATM   12  C           1      -4.021  -1.161   1.070  0.00  0.00     0.010 A 
BRANCH  10  13
HETATM   13  O           1      -5.159  -4.515   1.962  0.00  0.00    -0.361 OA
HETATM   14  H           1      -6.075  -4.203   1.878  0.00  0.00     0.217 HD
ENDBRANCH  10  13
ENDBRANCH   6   7
ENDBRANCH   1   6
BRANCH   1  15
HETATM   15  C           1       0.581   0.159  -0.011  0.00  0.00     0.130 C 
HETATM   16  N           1       1.928  -0.075  -0.075  0.00  0.00    -0.359 N 
HETATM   17  H           1       2.348  -0.784   0.513  0.00  0.00     0.162 HD
HETATM   18  O           1       0.081   1.006  -0.712  0.00  0.00    -0.397 OA
BRANCH  16  19
HETATM   19  C           1       2.755   0.693  -0.986  0.00  0.00     0.184 C 
BRANCH  19  20
HETATM   20  C           1       2.655   2.173  -0.638  0.00  0.00     0.040 C 
BRANCH  20  21
HETATM   21  C           1       2.108   2.941  -1.834  0.00  0.00    -0.018 C 
HETATM   22  C           1       0.726   2.410  -2.191  0.00  0.00     0.289 C 
HETATM   23  C           1       3.043   2.760  -3.023  0.00  0.00     0.009 C 
ENDBRANCH  20  21
ENDBRANCH  19  20
BRANCH  19  24
HETATM   24  C           1       4.190   0.244  -0.862  0.00  0.00     0.196 C 
HETATM   25  O           1       5.073   1.059  -0.518  0.00  0.00    -0.646 OA
HETATM   26  O           1       4.496  -0.943  -1.105  0.00  0.00    -0.646 OA
ENDBRANCH  19  24
ENDBRANCH  16  19
ENDBRANCH   1  15
TORSDOF 9
