REMARK  7 active torsions:
REMARK  status: ('A' for Active; 'I' for Inactive)
REMARK    1  A    between atoms: N_3  and  C_12 
REMARK       I    between atoms: N_3  and  C_20 
REMARK    2  A    between atoms: C_8  and  C_12 
REMARK    3  A    between atoms: C_10  and  O_11 
REMARK    4  A    between atoms: C_10  and  C_12 
REMARK    5  A    between atoms: C_13  and  C_14 
REMARK    6  A    between atoms: C_14  and  C_20 
REMARK    7  A    between atoms: C_14  and  N_17 
ROOT
HETATM    1  O           1       0.168  -1.254   0.684  0.00  0.00    -0.271 OA
HETATM    2  N           1      -0.227   0.305  -0.865  0.00  0.00    -0.343 N 
HETATM    3  H           1      -0.083   1.256  -1.181  0.00  0.00     0.163 HD
HETATM    4  C           1       0.340  -0.119   0.307  0.00  0.00     0.249 C 
ENDROOT
BRANCH   2   5
HETATM    5  C           1      -1.033  -0.607  -1.653  0.00  0.00     0.214 C 
BRANCH   5   6
HETATM    6  C           1      -0.194  -1.793  -2.062  0.00  0.00     0.199 C 
HETATM    7  O           1      -0.016  -2.045  -3.273  0.00  0.00    -0.646 OA
HETATM    8  O           1       0.322  -2.524  -1.189  0.00  0.00    -0.646 OA
ENDBRANCH   5   6
BRANCH   5   9
HETATM    9  C           1      -1.540   0.111  -2.897  0.00  0.00     0.147 C 
HETATM   10  C           1      -3.063   0.111  -2.897  0.00  0.00     0.042 C 
BRANCH   9  11
HETATM   11  O           1      -1.072   1.432  -2.897  0.00  0.00    -0.393 OA
HETATM   12  H           1      -0.131   1.390  -2.897  0.00  0.00     0.210 HD
ENDBRANCH   9  11
ENDBRANCH   5   9
ENDBRANCH   2   5
BRANCH   4  13
HETATM   13  C           1       1.178   0.830   1.127  0.00  0.00     0.278 C 
BRANCH  13  14
HETATM   14  C           1       1.686   0.114   2.372  0.00  0.00     0.017 C 
HETATM   15  C           1       0.502  -0.364   3.202  0.00  0.00     0.012 C 
HETATM   16  C           1       2.531  -1.084   1.958  0.00  0.00     0.012 C 
ENDBRANCH  13  14
BRANCH  13  17
HETATM   17  N           1       0.345   2.008   1.534  0.00  0.00    -0.066 N 
HETATM   18  H           1      -0.003   2.500   0.680  0.00  0.00     0.275 HD
HETATM   19  H           1      -0.468   1.680   2.104  0.00  0.00     0.275 HD
HETATM   20  H           1       0.925   2.666   2.102  0.00  0.00     0.275 HD
ENDBRANCH  13  17
ENDBRANCH   4  13
TORSDOF 7
