REMARK  5 active torsions:
REMARK  status: ('A' for Active; 'I' for Inactive)
REMARK    1  A    between atoms: C_1  and  C_3 
REMARK    2  A    between atoms: C_1  and  C_4 
REMARK    3  A    between atoms: C_1  and  N_13 
REMARK       I    between atoms: C_3  and  N_11 
REMARK    4  A    between atoms: C_7  and  C_12 
REMARK    5  A    between atoms: N_11  and  C_12 
ROOT
HETATM    1  C           1      -0.803   0.727  -0.186  0.00  0.00     0.278 C 
ENDROOT
BRANCH   1   2
HETATM    2  C           1       0.177  -0.421  -0.186  0.00  0.00     0.249 C 
HETATM    3  N           1      -0.280  -1.711  -0.186  0.00  0.00    -0.349 N 
HETATM    4  H           1      -1.275  -1.896  -0.186  0.00  0.00     0.163 HD
HETATM    5  O           1       1.365  -0.201  -0.186  0.00  0.00    -0.271 OA
BRANCH   3   6
HETATM    6  C           1       0.662  -2.814  -0.186  0.00  0.00     0.235 C 
BRANCH   6   7
HETATM    7  C           1      -0.092  -4.121  -0.186  0.00  0.00     0.191 C 
HETATM    8  O           1      -1.342  -4.121  -0.186  0.00  0.00    -0.647 OA
HETATM    9  O           1       0.533  -5.203  -0.186  0.00  0.00    -0.647 OA
ENDBRANCH   6   7
ENDBRANCH   3   6
ENDBRANCH   1   2
BRANCH   1  10
HETATM   10  C           1      -0.041   2.046  -0.186  0.00  0.00     0.017 C 
HETATM   11  C           1       0.835   2.127   1.057  0.00  0.00     0.012 C 
HETATM   12  C           1       0.835   2.125  -1.430  0.00  0.00     0.012 C 
ENDBRANCH   1  10
BRANCH   1  13
HETATM   13  N           1      -1.664   0.648   1.039  0.00  0.00    -0.066 N 
HETATM   14  H           1      -1.063   0.703   1.892  0.00  0.00     0.275 HD
HETATM   15  H           1      -2.343   1.442   1.040  0.00  0.00     0.275 HD
HETATM   16  H           1      -2.187  -0.257   1.039  0.00  0.00     0.275 HD
ENDBRANCH   1  13
TORSDOF 5
