REMARK  7 active torsions:
REMARK  status: ('A' for Active; 'I' for Inactive)
REMARK    1  A    between atoms: N_1  and  C_12 
REMARK    2  A    between atoms: C_6  and  C_8 
REMARK    3  A    between atoms: C_8  and  C_11 
REMARK    4  A    between atoms: C_8  and  N_20 
REMARK    5  A    between atoms: C_9  and  C_11 
REMARK    6  A    between atoms: C_12  and  C_13 
REMARK    7  A    between atoms: C_12  and  C_14 
REMARK       I    between atoms: C_13  and  N_20 
ROOT
HETATM    1  C           1      -0.008   0.268   0.033  0.00  0.00     0.249 C 
HETATM    2  H           1       1.688  -0.920   0.034  0.00  0.00     0.163 HD
HETATM    3  O           1      -1.216   0.269   0.033  0.00  0.00    -0.271 OA
HETATM    4  N           1       0.676  -0.919   0.033  0.00  0.00    -0.344 N 
ENDROOT
BRANCH   1   5
HETATM    5  C           1       0.748   1.574   0.034  0.00  0.00     0.278 C 
BRANCH   5   6
HETATM    6  N           1       1.610   1.652  -1.191  0.00  0.00    -0.066 N 
HETATM    7  H           1       2.134   2.557  -1.191  0.00  0.00     0.275 HD
HETATM    8  H           1       2.289   0.857  -1.190  0.00  0.00     0.275 HD
HETATM    9  H           1       1.009   1.598  -2.044  0.00  0.00     0.275 HD
ENDBRANCH   5   6
BRANCH   5  10
HETATM   10  C           1      -0.240   2.733   0.034  0.00  0.00     0.017 C 
HETATM   11  C           1      -1.115   2.655  -1.209  0.00  0.00     0.012 C 
HETATM   12  C           1      -1.116   2.652   1.277  0.00  0.00     0.012 C 
ENDBRANCH   5  10
ENDBRANCH   1   5
BRANCH   4  13
HETATM   13  C           1      -0.051  -2.174   0.032  0.00  0.00     0.195 C 
BRANCH  13  14
HETATM   14  C           1      -0.918  -2.253   1.264  0.00  0.00     0.197 C 
HETATM   15  O           1      -0.753  -3.179   2.087  0.00  0.00    -0.646 OA
HETATM   16  O           1      -1.803  -1.392   1.462  0.00  0.00    -0.646 OA
ENDBRANCH  13  14
BRANCH  13  17
HETATM   17  C           1       0.939  -3.332   0.032  0.00  0.00     0.149 C 
BRANCH  17  18
HETATM   18  C           1       0.184  -4.639   0.032  0.00  0.00     0.175 C 
HETATM   19  O           1      -1.066  -4.639   0.032  0.00  0.00    -0.648 OA
HETATM   20  O           1       0.809  -5.721   0.032  0.00  0.00    -0.648 OA
ENDBRANCH  17  18
ENDBRANCH  13  17
ENDBRANCH   4  13
TORSDOF 7
