REMARK  7 active torsions:
REMARK  status: ('A' for Active; 'I' for Inactive)
REMARK    1  A    between atoms: N_2  and  C_12 
REMARK    2  A    between atoms: C_5  and  C_19 
REMARK    3  A    between atoms: C_5  and  C_13 
REMARK    4  A    between atoms: C_10  and  C_13 
REMARK    5  A    between atoms: C_11  and  C_12 
REMARK    6  A    between atoms: C_12  and  C_14 
REMARK    7  A    between atoms: C_13  and  N_18 
REMARK       I    between atoms: C_14  and  N_18 
ROOT
HETATM    1  H           1      -0.305   0.479   1.474  0.00  0.00     0.163 HD
HETATM    2  C           1       0.727  -0.981   0.433  0.00  0.00     0.249 C 
HETATM    3  O           1       1.020  -1.396  -0.664  0.00  0.00    -0.271 OA
HETATM    4  N           1      -0.060   0.132   0.556  0.00  0.00    -0.345 N 
ENDROOT
BRANCH   2   5
HETATM    5  C           1       1.230  -1.691   1.666  0.00  0.00     0.278 C 
BRANCH   5   6
HETATM    6  N           1       0.062  -2.161   2.482  0.00  0.00    -0.066 N 
HETATM    7  H           1       0.409  -2.652   3.337  0.00  0.00     0.275 HD
HETATM    8  H           1      -0.518  -1.339   2.765  0.00  0.00     0.275 HD
HETATM    9  H           1      -0.518  -2.819   1.913  0.00  0.00     0.275 HD
ENDBRANCH   5   6
BRANCH   5  10
HETATM   10  C           1       2.076  -2.888   1.255  0.00  0.00     0.017 C 
HETATM   11  C           1       3.260  -2.411   0.425  0.00  0.00     0.012 C 
HETATM   12  C           1       1.231  -3.848   0.428  0.00  0.00     0.012 C 
ENDBRANCH   5  10
ENDBRANCH   2   5
BRANCH   4  13
HETATM   13  C           1      -0.542   0.813  -0.630  0.00  0.00     0.185 C 
BRANCH  13  14
HETATM   14  C           1      -1.389   2.011  -0.217  0.00  0.00     0.040 C 
BRANCH  14  15
HETATM   15  C           1      -1.895   2.728  -1.461  0.00  0.00    -0.020 C 
HETATM   16  C           1      -3.418   2.728  -1.461  0.00  0.00     0.009 C 
HETATM   17  C           1      -1.387   4.164  -1.461  0.00  0.00     0.009 C 
ENDBRANCH  14  15
ENDBRANCH  13  14
BRANCH  13  18
HETATM   18  C           1       0.632   1.286  -1.451  0.00  0.00     0.196 C 
HETATM   19  O           1       1.458   0.459  -1.893  0.00  0.00    -0.646 OA
HETATM   20  O           1       0.779   2.504  -1.688  0.00  0.00    -0.646 OA
ENDBRANCH  13  18
ENDBRANCH   4  13
TORSDOF 7
