REMARK  7 active torsions:
REMARK  status: ('A' for Active; 'I' for Inactive)
REMARK    1  A    between atoms: C_1  and  O_8 
REMARK    2  A    between atoms: C_1  and  C_15 
REMARK    3  A    between atoms: C_6  and  C_19 
REMARK    4  A    between atoms: N_10  and  C_19 
REMARK    5  A    between atoms: N_14  and  C_15 
REMARK       I    between atoms: N_14  and  C_18 
REMARK    6  A    between atoms: C_15  and  C_16 
REMARK    7  A    between atoms: C_18  and  C_19 
ROOT
HETATM    1  O           1      -0.545   1.134   0.034  0.00  0.00    -0.271 OA
HETATM    2  H           1      -0.123  -1.974   0.035  0.00  0.00     0.163 HD
HETATM    3  N           1      -0.628  -1.097   0.034  0.00  0.00    -0.343 N 
HETATM    4  C           1       0.057   0.088   0.035  0.00  0.00     0.249 C 
ENDROOT
BRANCH   4   5
HETATM    5  C           1       1.566   0.086   0.035  0.00  0.00     0.278 C 
BRANCH   5   6
HETATM    6  C           1       2.076   1.521   0.035  0.00  0.00     0.017 C 
HETATM    7  C           1       1.571   2.240  -1.208  0.00  0.00     0.012 C 
HETATM    8  C           1       1.568   2.240   1.278  0.00  0.00     0.012 C 
ENDBRANCH   5   6
BRANCH   5   9
HETATM    9  N           1       2.066  -0.621  -1.190  0.00  0.00    -0.066 N 
HETATM   10  H           1       3.111  -0.623  -1.190  0.00  0.00     0.275 HD
HETATM   11  H           1       1.716  -1.606  -1.189  0.00  0.00     0.275 HD
HETATM   12  H           1       1.718  -0.128  -2.043  0.00  0.00     0.275 HD
ENDBRANCH   5   9
ENDBRANCH   4   5
BRANCH   3  13
HETATM   13  C           1      -2.078  -1.096   0.034  0.00  0.00     0.209 C 
BRANCH  13  14
HETATM   14  C           1      -2.587  -2.531   0.034  0.00  0.00     0.200 C 
BRANCH  14  15
HETATM   15  O           1      -3.989  -2.531   0.034  0.00  0.00    -0.398 OA
HETATM   16  H           1      -4.262  -3.433   0.034  0.00  0.00     0.209 HD
ENDBRANCH  14  15
ENDBRANCH  13  14
BRANCH  13  17
HETATM   17  C           1      -2.581  -0.383   1.265  0.00  0.00     0.198 C 
HETATM   18  O           1      -2.278   0.813   1.463  0.00  0.00    -0.646 OA
HETATM   19  O           1      -3.300  -0.990   2.089  0.00  0.00    -0.646 OA
ENDBRANCH  13  17
ENDBRANCH   3  13
TORSDOF 7
