REMARK  8 active torsions:
REMARK  status: ('A' for Active; 'I' for Inactive)
REMARK    1  A    between atoms: N_1  and  C_6 
REMARK       I    between atoms: N_1  and  C_3 
REMARK    2  A    between atoms: C_3  and  C_9 
REMARK    3  A    between atoms: N_4  and  C_9 
REMARK    4  A    between atoms: C_5  and  C_8 
REMARK    5  A    between atoms: C_5  and  C_6 
REMARK    6  A    between atoms: C_6  and  C_17 
REMARK    7  A    between atoms: C_8  and  C_20 
REMARK    8  A    between atoms: C_9  and  C_18 
ROOT
HETATM    1  N           1       0.476   0.318  -0.700  0.00  0.00    -0.345 N 
HETATM    2  C           1      -0.420   0.455   0.326  0.00  0.00     0.249 C 
HETATM    3  H           1       0.482   0.987  -1.459  0.00  0.00     0.163 HD
HETATM    4  O           1      -0.427  -0.344   1.232  0.00  0.00    -0.271 OA
ENDROOT
BRANCH   1   5
HETATM    5  C           1       1.417  -0.785  -0.699  0.00  0.00     0.186 C 
BRANCH   5   6
HETATM    6  C           1       2.293  -0.706  -1.942  0.00  0.00     0.046 C 
BRANCH   6   7
HETATM    7  C           1       3.282  -1.864  -1.942  0.00  0.00     0.116 C 
BRANCH   7   8
HETATM    8  C           1       2.527  -3.171  -1.942  0.00  0.00     0.172 C 
HETATM    9  O           1       1.277  -3.171  -1.942  0.00  0.00    -0.648 OA
HETATM   10  O           1       3.152  -4.253  -1.942  0.00  0.00    -0.648 OA
ENDBRANCH   7   8
ENDBRANCH   6   7
ENDBRANCH   5   6
BRANCH   5  11
HETATM   11  C           1       2.283  -0.706   0.534  0.00  0.00     0.196 C 
HETATM   12  O           1       1.761  -0.753   1.668  0.00  0.00    -0.646 OA
HETATM   13  O           1       3.523  -0.592   0.420  0.00  0.00    -0.646 OA
ENDBRANCH   5  11
ENDBRANCH   1   5
BRANCH   2  14
HETATM   14  C           1      -1.399   1.603   0.325  0.00  0.00     0.278 C 
BRANCH  14  15
HETATM   15  N           1      -2.261   1.524  -0.900  0.00  0.00    -0.066 N 
HETATM   16  H           1      -2.939   2.319  -0.901  0.00  0.00     0.275 HD
HETATM   17  H           1      -1.659   1.578  -1.752  0.00  0.00     0.275 HD
HETATM   18  H           1      -2.784   0.619  -0.899  0.00  0.00     0.275 HD
ENDBRANCH  14  15
BRANCH  14  19
HETATM   19  C           1      -2.275   1.525   1.568  0.00  0.00     0.017 C 
HETATM   20  C           1      -1.400   1.604   2.812  0.00  0.00     0.012 C 
HETATM   21  C           1      -3.039   0.208   1.569  0.00  0.00     0.012 C 
ENDBRANCH  14  19
ENDBRANCH   2  14
TORSDOF 8
