REMARK  8 active torsions:
REMARK  status: ('A' for Active; 'I' for Inactive)
REMARK    1  A    between atoms: N_3  and  C_4 
REMARK       I    between atoms: N_3  and  C_20 
REMARK    2  A    between atoms: C_4  and  C_5 
REMARK    3  A    between atoms: C_4  and  C_11 
REMARK    4  A    between atoms: C_5  and  C_6 
REMARK    5  A    between atoms: C_6  and  Se_15 
REMARK    6  A    between atoms: C_8  and  C_12 
REMARK    7  A    between atoms: N_9  and  C_12 
REMARK    8  A    between atoms: C_12  and  C_20 
ROOT
HETATM    1  H           1      -1.372   0.147  -0.013  0.00  0.00     0.163 HD
HETATM    2  N           1      -0.386  -0.015   0.146  0.00  0.00    -0.345 N 
HETATM    3  O           1       1.519  -0.938  -0.566  0.00  0.00    -0.271 OA
HETATM    4  C           1       0.342  -0.744  -0.756  0.00  0.00     0.249 C 
ENDROOT
BRANCH   2   5
HETATM    5  C           1       0.256   0.524   1.329  0.00  0.00     0.185 C 
BRANCH   5   6
HETATM    6  C           1      -0.769   1.288   2.158  0.00  0.00     0.036 C 
BRANCH   6   7
HETATM    7  C           1      -0.096   1.854   3.401  0.00  0.00     0.003 C 
BRANCH   7   8
HETATM    8 Se           1      -0.259   3.797   3.401  0.00  0.00     0.000 Se
HETATM    9  C           1      -2.208   3.797   3.401  0.00  0.00     0.000 C 
ENDBRANCH   7   8
ENDBRANCH   6   7
ENDBRANCH   5   6
BRANCH   5  10
HETATM   10  C           1       0.827  -0.605   2.149  0.00  0.00     0.196 C 
HETATM   11  O           1       1.691  -1.362   1.656  0.00  0.00    -0.646 OA
HETATM   12  O           1       0.437  -0.785   3.323  0.00  0.00    -0.646 OA
ENDBRANCH   5  10
ENDBRANCH   2   5
BRANCH   4  13
HETATM   13  C           1      -0.327  -1.306  -1.987  0.00  0.00     0.278 C 
BRANCH  13  14
HETATM   14  C           1       0.697  -2.070  -2.817  0.00  0.00     0.017 C 
HETATM   15  C           1       1.818  -1.127  -3.234  0.00  0.00     0.012 C 
HETATM   16  C           1       1.274  -3.209  -1.987  0.00  0.00     0.012 C 
ENDBRANCH  13  14
BRANCH  13  17
HETATM   17  N           1      -0.894  -0.183  -2.803  0.00  0.00    -0.066 N 
HETATM   18  H           1      -1.357  -0.571  -3.656  0.00  0.00     0.275 HD
HETATM   19  H           1      -1.597   0.341  -2.234  0.00  0.00     0.275 HD
HETATM   20  H           1      -0.124   0.464  -3.089  0.00  0.00     0.275 HD
ENDBRANCH  13  17
ENDBRANCH   4  13
TORSDOF 8
