REMARK  4 active torsions:
REMARK  status: ('A' for Active; 'I' for Inactive)
REMARK    1  A    between atoms: N_2  and  C_12 
REMARK    2  A    between atoms: C_5  and  C_12 
REMARK    3  A    between atoms: C_9  and  C_11 
REMARK    4  A    between atoms: C_12  and  C_15 
REMARK       I    between atoms: C_15  and  N_17 
ROOT
HETATM    1  C           1      -2.930  -1.347  -0.540  0.00  0.00     0.038 C 
HETATM    2  O           1      -0.314   1.564   0.668  0.00  0.00    -0.271 OA
HETATM    3  C           1      -2.291  -0.506   0.551  0.00  0.00     0.188 C 
HETATM    4  C           1      -1.830  -2.293  -1.007  0.00  0.00     0.022 C 
HETATM    5  C           1       0.041   0.465   0.313  0.00  0.00     0.251 C 
HETATM    6  N           1      -0.866  -0.558   0.241  0.00  0.00    -0.336 N 
HETATM    7  C           1      -0.618  -1.939  -0.163  0.00  0.00     0.127 C 
ENDROOT
BRANCH   5   8
HETATM    8  C           1       1.486   0.220  -0.050  0.00  0.00     0.278 C 
BRANCH   8   9
HETATM    9  N           1       1.571  -0.240  -1.475  0.00  0.00    -0.066 N 
HETATM   10  H           1       2.571  -0.409  -1.727  0.00  0.00     0.275 HD
HETATM   11  H           1       1.028  -1.125  -1.588  0.00  0.00     0.275 HD
HETATM   12  H           1       1.174   0.496  -2.102  0.00  0.00     0.275 HD
ENDBRANCH   8   9
BRANCH   8  13
HETATM   13  C           1       2.277   1.511   0.115  0.00  0.00     0.017 C 
HETATM   14  C           1       2.189   1.978   1.562  0.00  0.00     0.012 C 
HETATM   15  C           1       1.699   2.582  -0.800  0.00  0.00     0.012 C 
ENDBRANCH   8  13
ENDBRANCH   5   8
BRANCH   3  16
HETATM   16  C           1      -2.567  -1.094   1.913  0.00  0.00     0.196 C 
HETATM   17  O           1      -1.625  -1.540   2.603  0.00  0.00    -0.646 OA
HETATM   18  O           1      -3.737  -1.135   2.351  0.00  0.00    -0.646 OA
ENDBRANCH   3  16
TORSDOF 4
