REMARK  7 active torsions:
REMARK  status: ('A' for Active; 'I' for Inactive)
REMARK    1  A    between atoms: C_7  and  C_10 
REMARK    2  A    between atoms: C_7  and  C_14 
REMARK    3  A    between atoms: C_7  and  N_22 
REMARK    4  A    between atoms: C_9  and  C_13 
REMARK    5  A    between atoms: C_11  and  C_14 
REMARK    6  A    between atoms: C_13  and  C_23 
REMARK    7  A    between atoms: C_13  and  N_19 
REMARK       I    between atoms: N_22  and  C_23 
ROOT
HETATM    1  H           1       2.927   1.526  -0.200  0.00  0.00     0.163 HD
HETATM    2  O           1       1.880  -0.802   1.022  0.00  0.00    -0.271 OA
HETATM    3  N           1       2.140   0.916  -0.381  0.00  0.00    -0.344 N 
HETATM    4  C           1       1.507   0.288   0.658  0.00  0.00     0.249 C 
ENDROOT
BRANCH   3   5
HETATM    5  C           1       1.682   0.707  -1.741  0.00  0.00     0.189 C 
BRANCH   5   6
HETATM    6  C           1       2.542   1.506  -2.689  0.00  0.00     0.197 C 
HETATM    7  O           1       2.025   2.382  -3.415  0.00  0.00    -0.646 OA
HETATM    8  O           1       3.773   1.292  -2.748  0.00  0.00    -0.646 OA
ENDBRANCH   5   6
BRANCH   5   9
HETATM    9  C           1       0.234   1.160  -1.864  0.00  0.00     0.074 C 
BRANCH   9  10
HETATM   10  C           1      -0.677   0.011  -1.560  0.00  0.00    -0.056 A 
HETATM   11  C           1      -0.142  -1.233  -1.227  0.00  0.00     0.007 A 
HETATM   12  C           1      -0.991  -2.304  -0.943  0.00  0.00     0.001 A 
HETATM   13  C           1      -2.374  -2.129  -0.992  0.00  0.00     0.000 A 
HETATM   14  C           1      -2.908  -0.884  -1.324  0.00  0.00     0.001 A 
HETATM   15  C           1      -2.060   0.186  -1.608  0.00  0.00     0.007 A 
ENDBRANCH   9  10
ENDBRANCH   5   9
ENDBRANCH   3   5
BRANCH   4  16
HETATM   16  C           1       0.344   0.958   1.348  0.00  0.00     0.278 C 
BRANCH  16  17
HETATM   17  C           1      -0.175   0.055   2.460  0.00  0.00     0.017 C 
HETATM   18  C           1      -0.633  -1.271   1.867  0.00  0.00     0.012 C 
HETATM   19  C           1       0.938  -0.198   3.469  0.00  0.00     0.012 C 
ENDBRANCH  16  17
BRANCH  16  20
HETATM   20  N           1      -0.751   1.205   0.354  0.00  0.00    -0.066 N 
HETATM   21  H           1      -1.557   1.669   0.831  0.00  0.00     0.275 HD
HETATM   22  H           1      -0.395   1.825  -0.409  0.00  0.00     0.275 HD
HETATM   23  H           1      -1.064   0.295  -0.053  0.00  0.00     0.275 HD
ENDBRANCH  16  20
ENDBRANCH   4  16
TORSDOF 7
