REMARK  7 active torsions:
REMARK  status: ('A' for Active; 'I' for Inactive)
REMARK    1  A    between atoms: C_1  and  C_15 
REMARK    2  A    between atoms: C_1  and  C_8 
REMARK    3  A    between atoms: C_1  and  N_18 
REMARK    4  A    between atoms: C_2  and  C_9 
REMARK    5  A    between atoms: C_2  and  C_3 
REMARK    6  A    between atoms: C_2  and  N_5 
REMARK       I    between atoms: C_9  and  N_18 
REMARK    7  A    between atoms: C_15  and  S_17 
ROOT
HETATM    1  C           1       0.081   0.102   0.035  0.00  0.00     0.249 C 
HETATM    2  H           1      -0.100  -1.960   0.035  0.00  0.00     0.163 HD
HETATM    3  O           1      -0.522   1.149   0.034  0.00  0.00    -0.271 OA
HETATM    4  N           1      -0.605  -1.083   0.034  0.00  0.00    -0.344 N 
ENDROOT
BRANCH   1   5
HETATM    5  C           1       1.590   0.101   0.035  0.00  0.00     0.278 C 
BRANCH   5   6
HETATM    6  C           1       2.099   1.536   0.035  0.00  0.00     0.017 C 
HETATM    7  C           1       1.594   2.255  -1.208  0.00  0.00     0.012 C 
HETATM    8  C           1       1.591   2.254   1.278  0.00  0.00     0.012 C 
ENDBRANCH   5   6
BRANCH   5   9
HETATM    9  N           1       2.089  -0.606  -1.190  0.00  0.00    -0.066 N 
HETATM   10  H           1       3.134  -0.608  -1.190  0.00  0.00     0.275 HD
HETATM   11  H           1       1.740  -1.591  -1.189  0.00  0.00     0.275 HD
HETATM   12  H           1       1.741  -0.113  -2.043  0.00  0.00     0.275 HD
ENDBRANCH   5   9
ENDBRANCH   1   5
BRANCH   4  13
HETATM   13  C           1      -2.055  -1.081   0.034  0.00  0.00     0.194 C 
BRANCH  13  14
HETATM   14  C           1      -2.564  -2.517   0.034  0.00  0.00     0.106 C 
BRANCH  14  15
HETATM   15  S           1      -4.379  -2.517   0.034  0.00  0.00    -0.180 SA
HETATM   16  H           1      -4.519  -3.854   0.034  0.00  0.00     0.101 HD
ENDBRANCH  14  15
ENDBRANCH  13  14
BRANCH  13  17
HETATM   17  C           1      -2.557  -0.369   1.265  0.00  0.00     0.197 C 
HETATM   18  O           1      -2.255   0.828   1.463  0.00  0.00    -0.646 OA
HETATM   19  O           1      -3.276  -0.976   2.089  0.00  0.00    -0.646 OA
ENDBRANCH  13  17
ENDBRANCH   4  13
TORSDOF 7
