REMARK  5 active torsions:
REMARK  status: ('A' for Active; 'I' for Inactive)
REMARK    1  A    between atoms: N_2  and  C_10 
REMARK       I    between atoms: C_3  and  N_4 
REMARK    2  A    between atoms: C_3  and  C_10 
REMARK    3  A    between atoms: N_4  and  C_14 
REMARK    4  A    between atoms: C_8  and  C_10 
REMARK    5  A    between atoms: C_14  and  C_15 
ROOT
HETATM    1  C           1      -0.062   0.073  -0.055  0.00  0.00     0.249 C 
HETATM    2  N           1      -1.408   0.198  -0.272  0.00  0.00    -0.345 N 
HETATM    3  H           1      -2.066  -0.186   0.394  0.00  0.00     0.163 HD
HETATM    4  O           1       0.723   0.531  -0.850  0.00  0.00    -0.271 OA
ENDROOT
BRANCH   1   5
HETATM    5  C           1       0.440  -0.638   1.178  0.00  0.00     0.278 C 
BRANCH   5   6
HETATM    6  N           1      -0.060  -2.052   1.178  0.00  0.00    -0.066 N 
HETATM    7  H           1       0.288  -2.545   2.031  0.00  0.00     0.275 HD
HETATM    8  H           1      -1.105  -2.052   1.178  0.00  0.00     0.275 HD
HETATM    9  H           1       0.289  -2.545   0.325  0.00  0.00     0.275 HD
ENDBRANCH   5   6
BRANCH   5  10
HETATM   10  C           1       1.963  -0.639   1.180  0.00  0.00     0.017 C 
HETATM   11  C           1       2.471   0.797   1.178  0.00  0.00     0.012 C 
HETATM   12  C           1       2.472  -1.358  -0.063  0.00  0.00     0.012 C 
ENDBRANCH   5  10
ENDBRANCH   1   5
BRANCH   2  13
HETATM   13  C           1      -1.891   0.881  -1.456  0.00  0.00     0.181 C 
HETATM   14  C           1      -3.414   0.881  -1.456  0.00  0.00     0.043 C 
BRANCH  13  15
HETATM   15  C           1      -1.387   2.303  -1.456  0.00  0.00     0.196 C 
HETATM   16  O           1      -2.199   3.254  -1.456  0.00  0.00    -0.646 OA
HETATM   17  O           1      -0.158   2.531  -1.456  0.00  0.00    -0.646 OA
ENDBRANCH  13  15
ENDBRANCH   2  13
TORSDOF 5
