REMARK  7 active torsions:
REMARK  status: ('A' for Active; 'I' for Inactive)
REMARK    1  A    between atoms: C_1  and  C_2 
REMARK    2  A    between atoms: C_1  and  C_11 
REMARK    3  A    between atoms: C_1  and  N_6 
REMARK       I    between atoms: C_2  and  N_19 
REMARK    4  A    between atoms: C_4  and  C_17 
REMARK    5  A    between atoms: C_4  and  C_9 
REMARK    6  A    between atoms: C_7  and  C_9 
REMARK    7  A    between atoms: C_9  and  N_19 
ROOT
HETATM    1  C           1      -0.070   0.266  -0.846  0.00  0.00     0.249 C 
HETATM    2  H           1       0.355  -1.110   0.640  0.00  0.00     0.163 HD
HETATM    3  N           1       0.497  -0.159   0.325  0.00  0.00    -0.344 N 
HETATM    4  O           1       0.100   1.402  -1.222  0.00  0.00    -0.271 OA
ENDROOT
BRANCH   1   5
HETATM    5  C           1      -0.908  -0.683  -1.667  0.00  0.00     0.278 C 
BRANCH   5   6
HETATM    6  C           1      -1.418   0.034  -2.910  0.00  0.00     0.017 C 
HETATM    7  C           1      -0.234   0.513  -3.740  0.00  0.00     0.012 C 
HETATM    8  C           1      -2.264   1.230  -2.497  0.00  0.00     0.012 C 
ENDBRANCH   5   6
BRANCH   5   9
HETATM    9  N           1      -2.075  -1.153  -0.849  0.00  0.00    -0.066 N 
HETATM   10  H           1      -2.656  -1.811  -1.416  0.00  0.00     0.275 HD
HETATM   11  H           1      -1.725  -1.646   0.004  0.00  0.00     0.275 HD
HETATM   12  H           1      -2.655  -0.332  -0.565  0.00  0.00     0.275 HD
ENDBRANCH   5   9
ENDBRANCH   1   5
BRANCH   3  13
HETATM   13  C           1       1.303   0.753   1.113  0.00  0.00     0.189 C 
BRANCH  13  14
HETATM   14  C           1       1.811   0.036   2.357  0.00  0.00     0.014 C 
HETATM   15  C           1       1.304   0.754   3.600  0.00  0.00     0.012 C 
BRANCH  14  16
HETATM   16  C           1       1.303  -1.400   2.357  0.00  0.00     0.002 C 
HETATM   17  C           1      -0.220  -1.400   2.357  0.00  0.00     0.005 C 
ENDBRANCH  14  16
ENDBRANCH  13  14
BRANCH  13  18
HETATM   18  C           1       2.476   1.227   0.291  0.00  0.00     0.197 C 
HETATM   19  O           1       2.280   1.845  -0.779  0.00  0.00    -0.646 OA
HETATM   20  O           1       3.643   1.003   0.678  0.00  0.00    -0.646 OA
ENDBRANCH  13  18
ENDBRANCH   3  13
TORSDOF 7
