REMARK  8 active torsions:
REMARK  status: ('A' for Active; 'I' for Inactive)
REMARK    1  A    between atoms: C_3  and  C_5 
REMARK    2  A    between atoms: C_3  and  C_4 
REMARK    3  A    between atoms: C_3  and  N_19 
REMARK    4  A    between atoms: C_5  and  C_10 
REMARK       I    between atoms: C_13  and  N_19 
REMARK    5  A    between atoms: C_13  and  C_18 
REMARK    6  A    between atoms: N_16  and  C_18 
REMARK    7  A    between atoms: C_18  and  C_25 
REMARK    8  A    between atoms: O_22  and  C_23 
ROOT
HETATM    1  C           1       0.319  -1.393  -0.905  0.00  0.00     0.189 C 
ENDROOT
BRANCH   1   2
HETATM    2  C           1       1.768  -1.846  -0.782  0.00  0.00     0.074 C 
BRANCH   2   3
HETATM    3  C           1       2.678  -0.698  -1.087  0.00  0.00    -0.056 A 
HETATM    4  C           1       4.061  -0.872  -1.038  0.00  0.00     0.010 A 
HETATM    5  C           1       4.910   0.198  -1.322  0.00  0.00     0.037 A 
HETATM    6  C           1       4.375   1.443  -1.654  0.00  0.00     0.065 A 
HETATM    7  C           1       2.992   1.617  -1.703  0.00  0.00     0.037 A 
HETATM    8  C           1       2.144   0.547  -1.419  0.00  0.00     0.010 A 
BRANCH   6   9
HETATM    9  O           1       5.199   2.482  -1.930  0.00  0.00    -0.361 OA
HETATM   10  H           1       4.648   3.256  -2.137  0.00  0.00     0.217 HD
ENDBRANCH   6   9
ENDBRANCH   2   3
ENDBRANCH   1   2
BRANCH   1  11
HETATM   11  C           1      -0.539  -2.559  -1.332  0.00  0.00     0.197 C 
HETATM   12  O           1      -1.769  -2.404  -1.493  0.00  0.00    -0.646 OA
HETATM   13  O           1      -0.020  -3.679  -1.524  0.00  0.00    -0.646 OA
ENDBRANCH   1  11
BRANCH   1  14
HETATM   14  N           1      -0.142  -0.898   0.377  0.00  0.00    -0.344 N 
HETATM   15  H           1       0.482  -0.897   1.174  0.00  0.00     0.163 HD
HETATM   16  C           1      -1.423  -0.433   0.511  0.00  0.00     0.249 C 
HETATM   17  O           1      -2.169  -0.435  -0.439  0.00  0.00    -0.271 OA
BRANCH  16  18
HETATM   18  C           1      -1.903   0.082   1.846  0.00  0.00     0.278 C 
BRANCH  18  19
HETATM   19  N           1      -1.051   1.241   2.270  0.00  0.00    -0.066 N 
HETATM   20  H           1      -1.119   2.002   1.557  0.00  0.00     0.275 HD
HETATM   21  H           1      -0.057   0.930   2.354  0.00  0.00     0.275 HD
HETATM   22  H           1      -1.383   1.598   3.194  0.00  0.00     0.275 HD
ENDBRANCH  18  19
BRANCH  18  23
HETATM   23  C           1      -3.352   0.535   1.724  0.00  0.00     0.017 C 
HETATM   24  C           1      -3.452   1.646   0.687  0.00  0.00     0.012 C 
HETATM   25  C           1      -4.217  -0.641   1.292  0.00  0.00     0.012 C 
ENDBRANCH  18  23
ENDBRANCH  16  18
ENDBRANCH   1  14
TORSDOF 8
