REMARK  9 active torsions:
REMARK  status: ('A' for Active; 'I' for Inactive)
REMARK    1  A    between atoms: C_2  and  C_21 
REMARK    2  A    between atoms: C_2  and  C_3 
REMARK    3  A    between atoms: C_2  and  N_8 
REMARK    4  A    between atoms: C_4  and  C_19 
REMARK    5  A    between atoms: P_5  and  O_6 
REMARK    6  A    between atoms: P_5  and  O_10 
REMARK    7  A    between atoms: O_6  and  C_23 
REMARK    8  A    between atoms: N_13  and  C_19 
REMARK       I    between atoms: N_13  and  C_21 
REMARK    9  A    between atoms: C_19  and  C_23 
ROOT
HETATM    1  O           1       0.880   0.502   1.025  0.00  0.00    -0.271 OA
HETATM    2  N           1       0.103  -1.510   0.447  0.00  0.00    -0.343 N 
HETATM    3  H           1       0.107  -2.272  -0.219  0.00  0.00     0.163 HD
HETATM    4  C           1       0.885  -0.408   0.230  0.00  0.00     0.249 C 
ENDROOT
BRANCH   2   5
HETATM    5  C           1      -0.730  -1.587   1.632  0.00  0.00     0.210 C 
BRANCH   5   6
HETATM    6  C           1      -1.484  -2.894   1.632  0.00  0.00     0.198 C 
HETATM    7  O           1      -2.734  -2.894   1.632  0.00  0.00    -0.646 OA
HETATM    8  O           1      -0.859  -3.976   1.632  0.00  0.00    -0.646 OA
ENDBRANCH   5   6
BRANCH   5   9
HETATM    9  C           1      -1.719  -0.429   1.632  0.00  0.00     0.217 C 
BRANCH   9  10
HETATM   10  O           1      -2.525  -0.502   0.487  0.00  0.00    -0.287 OA
BRANCH  10  11
HETATM   11  P           1      -3.637   0.659   0.329  0.00  0.00     0.406 P 
HETATM   12  O           1      -2.969   1.978   0.277  0.00  0.00    -0.624 OA
HETATM   13  O           1      -4.560   0.619   1.485  0.00  0.00    -0.624 OA
BRANCH  11  14
HETATM   14  O           1      -4.469   0.423  -1.035  0.00  0.00    -0.300 OA
HETATM   15  H           1      -5.094   1.128  -1.064  0.00  0.00     0.223 HD
ENDBRANCH  11  14
ENDBRANCH  10  11
ENDBRANCH   9  10
ENDBRANCH   5   9
ENDBRANCH   2   5
BRANCH   4  16
HETATM   16  C           1       1.751  -0.328  -1.003  0.00  0.00     0.278 C 
BRANCH  16  17
HETATM   17  C           1       2.513   0.991  -1.004  0.00  0.00     0.017 C 
HETATM   18  C           1       1.525   2.149  -1.004  0.00  0.00     0.012 C 
HETATM   19  C           1       3.389   1.071   0.239  0.00  0.00     0.012 C 
ENDBRANCH  16  17
BRANCH  16  20
HETATM   20  N           1       0.887  -0.406  -2.227  0.00  0.00    -0.066 N 
HETATM   21  H           1       1.486  -0.351  -3.081  0.00  0.00     0.275 HD
HETATM   22  H           1       0.365  -1.311  -2.226  0.00  0.00     0.275 HD
HETATM   23  H           1       0.209   0.389  -2.225  0.00  0.00     0.275 HD
ENDBRANCH  16  20
ENDBRANCH   4  16
TORSDOF 9
