REMARK  7 active torsions:
REMARK  status: ('A' for Active; 'I' for Inactive)
REMARK    1  A    between atoms: N_1  and  C_8 
REMARK    2  A    between atoms: C_3  and  C_4 
REMARK    3  A    between atoms: C_4  and  C_5 
REMARK    4  A    between atoms: C_4  and  N_9 
REMARK    5  A    between atoms: C_5  and  Se_6 
REMARK       I    between atoms: C_7  and  N_9 
REMARK    6  A    between atoms: C_7  and  C_8 
REMARK    7  A    between atoms: C_8  and  C_15 
ROOT
HETATM    1  C           1       0.089   0.107   0.035  0.00  0.00     0.249 C 
HETATM    2  N           1      -0.597  -1.078   0.034  0.00  0.00    -0.345 N 
HETATM    3  H           1      -0.092  -1.955   0.035  0.00  0.00     0.163 HD
HETATM    4  O           1      -0.514   1.153   0.034  0.00  0.00    -0.271 OA
ENDROOT
BRANCH   1   5
HETATM    5  C           1       1.598   0.105   0.035  0.00  0.00     0.278 C 
BRANCH   5   6
HETATM    6  N           1       2.097  -0.602  -1.190  0.00  0.00    -0.066 N 
HETATM    7  H           1       3.142  -0.604  -1.190  0.00  0.00     0.275 HD
HETATM    8  H           1       1.748  -1.587  -1.189  0.00  0.00     0.275 HD
HETATM    9  H           1       1.749  -0.109  -2.043  0.00  0.00     0.275 HD
ENDBRANCH   5   6
BRANCH   5  10
HETATM   10  C           1       2.107   1.540   0.035  0.00  0.00     0.017 C 
HETATM   11  C           1       1.602   2.259  -1.208  0.00  0.00     0.012 C 
HETATM   12  C           1       1.599   2.259   1.278  0.00  0.00     0.012 C 
ENDBRANCH   5  10
ENDBRANCH   1   5
BRANCH   2  13
HETATM   13  C           1      -2.047  -1.077   0.034  0.00  0.00     0.185 C 
BRANCH  13  14
HETATM   14  C           1      -2.549  -0.365   1.265  0.00  0.00     0.196 C 
HETATM   15  O           1      -2.246   0.832   1.463  0.00  0.00    -0.646 OA
HETATM   16  O           1      -3.268  -0.971   2.089  0.00  0.00    -0.646 OA
ENDBRANCH  13  14
BRANCH  13  17
HETATM   17  C           1      -2.555  -2.512   0.034  0.00  0.00     0.039 C 
BRANCH  17  18
HETATM   18 Se           1      -4.504  -2.512   0.034  0.00  0.00     0.000 Se
HETATM   19  H           1      -4.620  -3.980   0.034  0.00  0.00     0.000 HD
ENDBRANCH  17  18
ENDBRANCH  13  17
ENDBRANCH   2  13
TORSDOF 7
