REMARK  10 active torsions:
REMARK  status: ('A' for Active; 'I' for Inactive)
REMARK    1  A    between atoms: O_3  and  P_4 
REMARK    2  A    between atoms: P_4  and  O_5 
REMARK    3  A    between atoms: O_5  and  C_6 
REMARK    4  A    between atoms: N_8  and  C_16 
REMARK    5  A    between atoms: C_9  and  C_17 
REMARK    6  A    between atoms: C_9  and  C_26 
REMARK    7  A    between atoms: C_9  and  N_28 
REMARK    8  A    between atoms: C_16  and  C_23 
REMARK    9  A    between atoms: C_16  and  C_24 
REMARK       I    between atoms: C_23  and  N_28 
REMARK   10  A    between atoms: C_25  and  C_26 
ROOT
HETATM    1  C           1       2.295   1.022  -1.616  0.00  0.00     0.189 C 
ENDROOT
BRANCH   1   2
HETATM    2  C           1       3.155   1.821  -2.563  0.00  0.00     0.197 C 
HETATM    3  O           1       2.637   2.697  -3.289  0.00  0.00    -0.646 OA
HETATM    4  O           1       4.385   1.608  -2.622  0.00  0.00    -0.646 OA
ENDBRANCH   1   2
BRANCH   1   5
HETATM    5  C           1       0.846   1.475  -1.739  0.00  0.00     0.074 C 
BRANCH   5   6
HETATM    6  C           1      -0.065   0.327  -1.434  0.00  0.00    -0.056 A 
HETATM    7  C           1       0.470  -0.918  -1.101  0.00  0.00     0.010 A 
HETATM    8  C           1      -0.378  -1.988  -0.818  0.00  0.00     0.038 A 
HETATM    9  C           1      -1.761  -1.814  -0.866  0.00  0.00     0.081 A 
HETATM   10  C           1      -2.296  -0.569  -1.199  0.00  0.00     0.038 A 
HETATM   11  C           1      -1.448   0.501  -1.482  0.00  0.00     0.010 A 
BRANCH   9  12
HETATM   12  O           1      -2.586  -2.853  -0.590  0.00  0.00    -0.247 OA
BRANCH  12  13
HETATM   13  P           1      -4.179  -2.597  -0.661  0.00  0.00     0.411 P 
HETATM   14  O           1      -4.553  -1.543   0.308  0.00  0.00    -0.624 OA
HETATM   15  O           1      -4.894  -3.849  -0.329  0.00  0.00    -0.624 OA
BRANCH  13  16
HETATM   16  O           1      -4.582  -2.125  -2.152  0.00  0.00    -0.300 OA
HETATM   17  H           1      -5.514  -1.995  -2.123  0.00  0.00     0.223 HD
ENDBRANCH  13  16
ENDBRANCH  12  13
ENDBRANCH   9  12
ENDBRANCH   5   6
ENDBRANCH   1   5
BRANCH   1  18
HETATM   18  N           1       2.752   1.231  -0.256  0.00  0.00    -0.344 N 
HETATM   19  H           1       3.539   1.841  -0.075  0.00  0.00     0.163 HD
HETATM   20  C           1       2.119   0.604   0.784  0.00  0.00     0.249 C 
HETATM   21  O           1       2.492  -0.486   1.148  0.00  0.00    -0.271 OA
BRANCH  20  22
HETATM   22  C           1       0.956   1.273   1.474  0.00  0.00     0.278 C 
BRANCH  22  23
HETATM   23  N           1      -0.139   1.521   0.480  0.00  0.00    -0.066 N 
HETATM   24  H           1      -0.452   0.611   0.072  0.00  0.00     0.275 HD
HETATM   25  H           1      -0.945   1.985   0.957  0.00  0.00     0.275 HD
HETATM   26  H           1       0.217   2.141  -0.283  0.00  0.00     0.275 HD
ENDBRANCH  22  23
BRANCH  22  27
HETATM   27  C           1       0.437   0.371   2.586  0.00  0.00     0.017 C 
HETATM   28  C           1       1.550   0.118   3.594  0.00  0.00     0.012 C 
HETATM   29  C           1      -0.020  -0.955   1.992  0.00  0.00     0.012 C 
ENDBRANCH  22  27
ENDBRANCH  20  22
ENDBRANCH   1  18
TORSDOF 10
