REMARK  7 active torsions:
REMARK  status: ('A' for Active; 'I' for Inactive)
REMARK    1  A    between atoms: C_6  and  C_7 
REMARK    2  A    between atoms: C_6  and  C_17 
REMARK    3  A    between atoms: C_7  and  C_16 
REMARK    4  A    between atoms: C_7  and  N_8 
REMARK       I    between atoms: N_8  and  C_15 
REMARK    5  A    between atoms: N_12  and  C_25 
REMARK    6  A    between atoms: C_15  and  C_25 
REMARK    7  A    between atoms: C_21  and  C_25 
ROOT
HETATM    1  C           1      -2.006   0.188   1.937  0.00  0.00     0.190 C 
ENDROOT
BRANCH   1   2
HETATM    2  C           1      -1.004   1.225   1.447  0.00  0.00     0.077 C 
BRANCH   2   3
HETATM    3  C           1       0.326   0.571   1.232  0.00  0.00    -0.028 A 
HETATM    4  C           1       1.511   1.212   0.778  0.00  0.00    -0.002 A 
HETATM    5  C           1       2.509   0.238   0.720  0.00  0.00     0.042 A 
HETATM    6  C           1       1.832   2.533   0.409  0.00  0.00     0.014 A 
HETATM    7  N           1       1.939  -0.948   1.126  0.00  0.00    -0.365 N 
HETATM    8  C           1       3.817   0.520   0.310  0.00  0.00     0.030 A 
HETATM    9  C           1       0.619  -0.758   1.438  0.00  0.00     0.096 A 
HETATM   10  H           1       2.445  -1.867   1.188  0.00  0.00     0.165 HD
HETATM   11  C           1       4.111   1.838  -0.052  0.00  0.00     0.002 A 
HETATM   12  C           1       3.136   2.832  -0.004  0.00  0.00     0.001 A 
ENDBRANCH   2   3
ENDBRANCH   1   2
BRANCH   1  13
HETATM   13  C           1      -3.032   0.857   2.819  0.00  0.00     0.197 C 
HETATM   14  O           1      -3.952   0.183   3.330  0.00  0.00    -0.646 OA
HETATM   15  O           1      -2.961   2.085   3.040  0.00  0.00    -0.646 OA
ENDBRANCH   1  13
BRANCH   1  16
HETATM   16  N           1      -2.671  -0.417   0.799  0.00  0.00    -0.344 N 
HETATM   17  C           1      -1.938  -1.085  -0.145  0.00  0.00     0.249 C 
HETATM   18  O           1      -1.730  -2.269  -0.022  0.00  0.00    -0.271 OA
HETATM   19  H           1      -3.675  -0.345   0.702  0.00  0.00     0.163 HD
BRANCH  17  20
HETATM   20  C           1      -1.390  -0.343  -1.340  0.00  0.00     0.278 C 
BRANCH  20  21
HETATM   21  N           1      -0.471   0.746  -0.872  0.00  0.00    -0.066 N 
HETATM   22  H           1      -0.091   1.261  -1.699  0.00  0.00     0.275 HD
HETATM   23  H           1      -1.000   1.410  -0.263  0.00  0.00     0.275 HD
HETATM   24  H           1       0.318   0.327  -0.330  0.00  0.00     0.275 HD
ENDBRANCH  20  21
BRANCH  20  25
HETATM   25  C           1      -0.620  -1.310  -2.229  0.00  0.00     0.017 C 
HETATM   26  C           1       0.531  -1.920  -1.440  0.00  0.00     0.012 C 
HETATM   27  C           1      -1.553  -2.417  -2.702  0.00  0.00     0.012 C 
ENDBRANCH  20  25
ENDBRANCH  17  20
ENDBRANCH   1  16
TORSDOF 7
