REMARK  7 active torsions:
REMARK  status: ('A' for Active; 'I' for Inactive)
REMARK    1  A    between atoms: C_3  and  C_15 
REMARK       I    between atoms: C_6  and  N_22 
REMARK    2  A    between atoms: C_6  and  C_15 
REMARK       I    between atoms: C_11  and  N_12 
REMARK    3  A    between atoms: C_11  and  C_13 
REMARK    4  A    between atoms: C_13  and  C_14 
REMARK    5  A    between atoms: C_14  and  C_19 
REMARK    6  A    between atoms: C_14  and  N_22 
REMARK    7  A    between atoms: C_15  and  N_16 
ROOT
HETATM    1  C           1      -0.079   0.650   0.031  0.00  0.00     0.249 C 
HETATM    2  O           1      -1.287   0.651   0.031  0.00  0.00    -0.271 OA
HETATM    3  H           1       1.617  -0.537   0.032  0.00  0.00     0.163 HD
HETATM    4  N           1       0.605  -0.536   0.031  0.00  0.00    -0.344 N 
ENDROOT
BRANCH   4   5
HETATM    5  C           1      -0.122  -1.791   0.030  0.00  0.00     0.194 C 
BRANCH   5   6
HETATM    6  C           1       0.868  -2.949   0.030  0.00  0.00     0.138 C 
BRANCH   6   7
HETATM    7  C           1       0.113  -4.256   0.030  0.00  0.00     0.217 C 
HETATM    8  O           1      -1.095  -4.256   0.030  0.00  0.00    -0.274 OA
HETATM    9  N           1       0.798  -5.442   0.030  0.00  0.00    -0.370 N 
HETATM   10  H           1       1.810  -5.442   0.030  0.00  0.00     0.159 HD
HETATM   11  H           1       0.292  -6.318   0.030  0.00  0.00     0.159 HD
ENDBRANCH   6   7
ENDBRANCH   5   6
BRANCH   5  12
HETATM   12  C           1      -0.990  -1.870   1.262  0.00  0.00     0.197 C 
HETATM   13  O           1      -1.874  -1.009   1.460  0.00  0.00    -0.646 OA
HETATM   14  O           1      -0.824  -2.796   2.085  0.00  0.00    -0.646 OA
ENDBRANCH   5  12
ENDBRANCH   4   5
BRANCH   1  15
HETATM   15  C           1       0.677   1.956   0.032  0.00  0.00     0.278 C 
BRANCH  15  16
HETATM   16  C           1      -0.311   3.115   0.032  0.00  0.00     0.017 C 
HETATM   17  C           1      -1.186   3.037  -1.211  0.00  0.00     0.012 C 
HETATM   18  C           1      -1.187   3.034   1.275  0.00  0.00     0.012 C 
ENDBRANCH  15  16
BRANCH  15  19
HETATM   19  N           1       1.539   2.035  -1.193  0.00  0.00    -0.066 N 
HETATM   20  H           1       0.938   1.981  -2.046  0.00  0.00     0.275 HD
HETATM   21  H           1       2.218   1.240  -1.192  0.00  0.00     0.275 HD
HETATM   22  H           1       2.063   2.939  -1.193  0.00  0.00     0.275 HD
ENDBRANCH  15  19
ENDBRANCH   1  15
TORSDOF 7
