REMARK  8 active torsions:
REMARK  status: ('A' for Active; 'I' for Inactive)
REMARK    1  A    between atoms: N_2  and  C_17 
REMARK       I    between atoms: N_2  and  C_14 
REMARK       I    between atoms: N_4  and  C_8 
REMARK    2  A    between atoms: C_7  and  C_13 
REMARK    3  A    between atoms: C_8  and  C_21 
REMARK    4  A    between atoms: C_13  and  C_14 
REMARK    5  A    between atoms: C_13  and  N_16 
REMARK    6  A    between atoms: C_17  and  C_22 
REMARK    7  A    between atoms: C_17  and  C_20 
REMARK    8  A    between atoms: C_21  and  C_22 
ROOT
HETATM    1  N           1       0.281   0.587  -0.592  0.00  0.00    -0.345 N 
HETATM    2  O           1      -0.622  -0.075   1.340  0.00  0.00    -0.271 OA
HETATM    3  H           1       0.286   1.257  -1.351  0.00  0.00     0.163 HD
HETATM    4  C           1      -0.615   0.724   0.434  0.00  0.00     0.249 C 
ENDROOT
BRANCH   1   5
HETATM    5  C           1       1.221  -0.516  -0.591  0.00  0.00     0.186 C 
BRANCH   5   6
HETATM    6  C           1       2.097  -0.437  -1.835  0.00  0.00     0.045 C 
BRANCH   6   7
HETATM    7  C           1       3.086  -1.595  -1.835  0.00  0.00     0.105 C 
BRANCH   7   8
HETATM    8  C           1       2.332  -2.901  -1.835  0.00  0.00     0.215 C 
HETATM    9  N           1       3.016  -4.087  -1.835  0.00  0.00    -0.370 N 
HETATM   10  H           1       4.028  -4.087  -1.835  0.00  0.00     0.159 HD
HETATM   11  H           1       2.510  -4.963  -1.835  0.00  0.00     0.159 HD
HETATM   12  O           1       1.124  -2.901  -1.835  0.00  0.00    -0.274 OA
ENDBRANCH   7   8
ENDBRANCH   6   7
ENDBRANCH   5   6
BRANCH   5  13
HETATM   13  C           1       2.088  -0.437   0.641  0.00  0.00     0.196 C 
HETATM   14  O           1       1.566  -0.484   1.776  0.00  0.00    -0.646 OA
HETATM   15  O           1       3.328  -0.323   0.528  0.00  0.00    -0.646 OA
ENDBRANCH   5  13
ENDBRANCH   1   5
BRANCH   4  16
HETATM   16  C           1      -1.594   1.873   0.433  0.00  0.00     0.278 C 
BRANCH  16  17
HETATM   17  C           1      -2.471   1.794   1.676  0.00  0.00     0.017 C 
HETATM   18  C           1      -3.235   0.477   1.677  0.00  0.00     0.012 C 
HETATM   19  C           1      -1.595   1.873   2.920  0.00  0.00     0.012 C 
ENDBRANCH  16  17
BRANCH  16  20
HETATM   20  N           1      -2.456   1.793  -0.792  0.00  0.00    -0.066 N 
HETATM   21  H           1      -1.854   1.847  -1.644  0.00  0.00     0.275 HD
HETATM   22  H           1      -3.134   2.588  -0.793  0.00  0.00     0.275 HD
HETATM   23  H           1      -2.979   0.889  -0.791  0.00  0.00     0.275 HD
ENDBRANCH  16  20
ENDBRANCH   4  16
TORSDOF 8
