REMARK  10 active torsions:
REMARK  status: ('A' for Active; 'I' for Inactive)
REMARK    1  A    between atoms: N_1  and  C_7 
REMARK    2  A    between atoms: C_4  and  C_5 
REMARK    3  A    between atoms: C_4  and  C_14 
REMARK    4  A    between atoms: C_5  and  C_6 
REMARK    5  A    between atoms: C_6  and  N_20 
REMARK    6  A    between atoms: C_7  and  C_19 
REMARK    7  A    between atoms: C_7  and  C_8 
REMARK    8  A    between atoms: C_14  and  C_17 
REMARK    9  A    between atoms: C_16  and  C_17 
REMARK   10  A    between atoms: C_17  and  N_24 
REMARK       I    between atoms: C_19  and  N_24 
ROOT
HETATM    1  C           1       1.057  -0.019   0.278  0.00  0.00     0.185 C 
ENDROOT
BRANCH   1   2
HETATM    2  C           1       1.564  -1.455   0.279  0.00  0.00     0.036 C 
BRANCH   2   3
HETATM    3  C           1       3.087  -1.457   0.278  0.00  0.00     0.004 C 
BRANCH   3   4
HETATM    4  C           1       3.594  -2.176  -0.966  0.00  0.00     0.027 C 
BRANCH   4   5
HETATM    5  C           1       3.085  -3.611  -0.966  0.00  0.00     0.229 C 
BRANCH   5   6
HETATM    6  N           1       1.585  -3.611  -0.966  0.00  0.00    -0.079 N 
HETATM    7  H           1       1.237  -3.119  -1.819  0.00  0.00     0.274 HD
HETATM    8  H           1       1.237  -3.119  -0.112  0.00  0.00     0.274 HD
HETATM    9  H           1       1.236  -4.596  -0.966  0.00  0.00     0.274 HD
ENDBRANCH   5   6
ENDBRANCH   4   5
ENDBRANCH   3   4
ENDBRANCH   2   3
ENDBRANCH   1   2
BRANCH   1  10
HETATM   10  C           1       1.559   0.692  -0.954  0.00  0.00     0.196 C 
HETATM   11  O           1       2.277   0.084  -1.777  0.00  0.00    -0.646 OA
HETATM   12  O           1       1.257   1.889  -1.152  0.00  0.00    -0.646 OA
ENDBRANCH   1  10
BRANCH   1  13
HETATM   13  N           1      -0.393  -0.019   0.278  0.00  0.00    -0.345 N 
HETATM   14  C           1      -1.078   1.166   0.278  0.00  0.00     0.249 C 
HETATM   15  O           1      -0.474   2.213   0.278  0.00  0.00    -0.271 OA
HETATM   16  H           1      -0.899  -0.896   0.278  0.00  0.00     0.163 HD
BRANCH  14  17
HETATM   17  C           1      -2.587   1.166   0.278  0.00  0.00     0.278 C 
BRANCH  17  18
HETATM   18  N           1      -3.086   0.460   1.504  0.00  0.00    -0.066 N 
HETATM   19  H           1      -4.131   0.460   1.504  0.00  0.00     0.275 HD
HETATM   20  H           1      -2.738  -0.525   1.503  0.00  0.00     0.275 HD
HETATM   21  H           1      -2.737   0.954   2.356  0.00  0.00     0.275 HD
ENDBRANCH  17  18
BRANCH  17  22
HETATM   22  C           1      -3.095   2.602   0.278  0.00  0.00     0.017 C 
HETATM   23  C           1      -2.587   3.320  -0.966  0.00  0.00     0.012 C 
HETATM   24  C           1      -2.588   3.321   1.521  0.00  0.00     0.012 C 
ENDBRANCH  17  22
ENDBRANCH  14  17
ENDBRANCH   1  13
TORSDOF 10
