REMARK  7 active torsions:
REMARK  status: ('A' for Active; 'I' for Inactive)
REMARK    1  A    between atoms: N_4  and  C_14 
REMARK    2  A    between atoms: N_5  and  C_12 
REMARK       I    between atoms: N_5  and  C_6 
REMARK    3  A    between atoms: C_6  and  C_14 
REMARK    4  A    between atoms: C_9  and  C_12 
REMARK    5  A    between atoms: C_9  and  C_16 
REMARK    6  A    between atoms: C_12  and  C_23 
REMARK    7  A    between atoms: C_14  and  C_17 
ROOT
HETATM    1  N           1       1.361   1.600  -0.512  0.00  0.00    -0.344 N 
HETATM    2  C           1       1.220   0.614   0.427  0.00  0.00     0.249 C 
HETATM    3  O           1       2.033  -0.278   0.493  0.00  0.00    -0.271 OA
HETATM    4  H           1       1.885   2.437  -0.292  0.00  0.00     0.163 HD
ENDROOT
BRANCH   1   5
HETATM    5  C           1       0.758   1.445  -1.822  0.00  0.00     0.191 C 
BRANCH   5   6
HETATM    6  C           1      -0.749   1.291  -1.672  0.00  0.00     0.094 C 
BRANCH   6   7
HETATM    7  C           1      -1.092  -0.159  -1.528  0.00  0.00     0.028 A 
HETATM    8  N           1      -2.364  -0.647  -1.373  0.00  0.00    -0.354 N 
HETATM    9  C           1      -2.226  -1.950  -1.284  0.00  0.00     0.180 A 
ATOM     10  HN          1      -3.232  -0.112  -1.335  1.00  0.00     0.166 HD
HETATM   11  N           1      -0.915  -2.322  -1.375  0.00  0.00    -0.360 N 
HETATM   12  H           1      -0.543  -3.303  -1.333  0.00  0.00     0.166 HD
HETATM   13  C           1      -0.175  -1.183  -1.532  0.00  0.00     0.114 A 
ENDBRANCH   6   7
ENDBRANCH   5   6
BRANCH   5  14
HETATM   14  C           1       1.060   2.662  -2.661  0.00  0.00     0.197 C 
HETATM   15  O           1       2.245   2.973  -2.909  0.00  0.00    -0.646 OA
HETATM   16  O           1       0.124   3.360  -3.108  0.00  0.00    -0.646 OA
ENDBRANCH   5  14
ENDBRANCH   1   5
BRANCH   2  17
HETATM   17  C           1       0.050   0.640   1.379  0.00  0.00     0.278 C 
BRANCH  17  18
HETATM   18  N           1      -1.230   0.583   0.599  0.00  0.00    -0.066 N 
HETATM   19  H           1      -2.041   0.601   1.258  0.00  0.00     0.275 HD
HETATM   20  H           1      -1.284   1.406  -0.042  0.00  0.00     0.275 HD
HETATM   21  H           1      -1.257  -0.299   0.039  0.00  0.00     0.275 HD
ENDBRANCH  17  18
BRANCH  17  22
HETATM   22  C           1       0.128  -0.559   2.314  0.00  0.00     0.017 C 
HETATM   23  C           1       1.428  -0.502   3.105  0.00  0.00     0.012 C 
HETATM   24  C           1       0.088  -1.844   1.497  0.00  0.00     0.012 C 
ENDBRANCH  17  22
ENDBRANCH   2  17
TORSDOF 7
