REMARK  17 active torsions:
REMARK  status: ('A' for Active; 'I' for Inactive)
REMARK    1  A    between atoms: C_2  and  C_3 
REMARK    2  A    between atoms: C_3  and  C_4 
REMARK    3  A    between atoms: C_4  and  C_5 
REMARK    4  A    between atoms: C_5  and  C_6 
REMARK    5  A    between atoms: C_7  and  C_8 
REMARK    6  A    between atoms: C_8  and  C_9 
REMARK    7  A    between atoms: C_9  and  C_10 
REMARK    8  A    between atoms: C_9  and  O_23 
REMARK    9  A    between atoms: C_11  and  C_12 
REMARK   10  A    between atoms: C_13  and  C_14 
REMARK   11  A    between atoms: C_14  and  C_15 
REMARK   12  A    between atoms: C_16  and  C_17 
REMARK   13  A    between atoms: C_17  and  C_18 
REMARK   14  A    between atoms: C_18  and  C_19 
REMARK   15  A    between atoms: C_19  and  C_20 
REMARK   16  A    between atoms: C_20  and  O_22 
REMARK   17  A    between atoms: O_23  and  O_24 
ROOT
HETATM    1  C   UNL     1       8.802   6.243   0.276  1.00  0.00     0.008 C 
HETATM    2  C   UNL     1       8.529   7.548   0.102  1.00  0.00    -0.002 C 
ENDROOT
BRANCH   1   3
HETATM    3  C   UNL     1       9.279   5.331  -0.831  1.00  0.00     0.186 C 
BRANCH   3   4
HETATM    4  C   UNL     1       8.751   3.881  -0.723  1.00  0.00     0.066 C 
BRANCH   4   5
HETATM    5  C   UNL     1       7.254   3.775  -0.756  1.00  0.00    -0.028 C 
HETATM    6  C   UNL     1       6.536   3.166   0.199  1.00  0.00    -0.031 C 
BRANCH   6   7
HETATM    7  C   UNL     1       5.037   3.180   0.234  1.00  0.00     0.027 C 
BRANCH   7   8
HETATM    8  C   UNL     1       4.514   3.886   1.490  1.00  0.00     0.004 C 
BRANCH   8   9
HETATM    9  C   UNL     1       4.989   5.340   1.599  1.00  0.00    -0.000 C 
BRANCH   9  10
HETATM   10  C   UNL     1       4.429   6.017   2.846  1.00  0.00    -0.005 C 
HETATM   11  C   UNL     1       4.916   7.451   2.961  1.00  0.00     0.005 C 
ENDBRANCH   9  10
ENDBRANCH   8   9
ENDBRANCH   7   8
ENDBRANCH   6   7
ENDBRANCH   4   5
ENDBRANCH   3   4
BRANCH   3  12
HETATM   12  O   UNL     1      10.713   5.299  -0.741  1.00  0.00    -0.234 OA
BRANCH  12  13
HETATM   13  O   UNL     1      11.188   4.705  -1.986  1.00  0.00    -0.250 OA
HETATM   14  H   UNL     1      12.137   4.823  -1.800  1.00  0.00     0.253 HD
ENDBRANCH  12  13
ENDBRANCH   3  12
ENDBRANCH   1   3
BRANCH   2  15
HETATM   15  C   UNL     1       8.071   8.417   1.162  1.00  0.00    -0.004 C 
HETATM   16  C   UNL     1       7.811   9.724   0.984  1.00  0.00    -0.023 C 
BRANCH  16  17
HETATM   17  C   UNL     1       7.317  10.647   2.064  1.00  0.00     0.054 C 
BRANCH  17  18
HETATM   18  C   UNL     1       6.034  11.320   1.657  1.00  0.00    -0.027 C 
HETATM   19  C   UNL     1       5.886  12.650   1.551  1.00  0.00    -0.030 C 
BRANCH  19  20
HETATM   20  C   UNL     1       4.617  13.327   1.111  1.00  0.00     0.027 C 
BRANCH  20  21
HETATM   21  C   UNL     1       4.815  14.141  -0.170  1.00  0.00     0.014 C 
BRANCH  21  22
HETATM   22  C   UNL     1       5.243  13.280  -1.362  1.00  0.00     0.110 C 
BRANCH  22  23
HETATM   23  C   UNL     1       5.421  14.097  -2.619  1.00  0.00     0.139 C 
HETATM   24  O   UNL     1       5.239  15.300  -2.717  1.00  0.00    -0.650 OA
BRANCH  23  25
HETATM   25  O   UNL     1       5.820  13.338  -3.667  1.00  0.00    -0.776 OA
HETATM   26  H   UNL     1       5.930  12.394  -3.446  1.00  0.00     0.167 HD
ENDBRANCH  23  25
ENDBRANCH  22  23
ENDBRANCH  21  22
ENDBRANCH  20  21
ENDBRANCH  19  20
ENDBRANCH  17  18
ENDBRANCH  16  17
ENDBRANCH   2  15
TORSDOF 17
