REMARK  6 active torsions:
REMARK  status: ('A' for Active; 'I' for Inactive)
REMARK    1  A    between atoms: N_1  and  C_2 
REMARK    2  A    between atoms: C_2  and  C_3 
REMARK    3  A    between atoms: C_3  and  O_4 
REMARK    4  A    between atoms: O_4  and  B_5 
REMARK    5  A    between atoms: B_5  and  C_6 
REMARK    6  A    between atoms: B_5  and  C_12 
ROOT
HETATM    1  B   UNL     1       4.885  -1.105   2.610  1.00  0.00     0.402 B 
ENDROOT
BRANCH   1   2
HETATM    2  O   UNL     1       4.361  -0.618   1.312  1.00  0.00    -0.442 OA
BRANCH   2   3
HETATM    3  C   UNL     1       3.588   0.548   1.513  1.00  0.00     0.173 C 
BRANCH   3   4
HETATM    4  C   UNL     1       3.166   1.137   0.163  1.00  0.00     0.290 C 
BRANCH   4   5
HETATM    5  N   UNL     1       4.326   1.586  -0.601  1.00  0.00     0.080 N 
HETATM    6  H   UNL     1       3.987   2.022  -1.490  1.00  0.00     0.312 HD
HETATM    7  H   UNL     1       4.914   0.760  -0.857  1.00  0.00     0.312 HD
ENDBRANCH   4   5
ENDBRANCH   3   4
ENDBRANCH   2   3
ENDBRANCH   1   2
BRANCH   1   8
HETATM    8  C   UNL     1       3.912  -1.701   3.719  1.00  0.00    -0.060 A 
HETATM    9  C   UNL     1       2.656  -2.236   3.393  1.00  0.00    -0.002 A 
HETATM   10  C   UNL     1       1.826  -2.746   4.402  1.00  0.00    -0.000 A 
HETATM   11  C   UNL     1       2.236  -2.704   5.740  1.00  0.00     0.000 A 
HETATM   12  C   UNL     1       3.473  -2.153   6.073  1.00  0.00    -0.000 A 
HETATM   13  C   UNL     1       4.305  -1.659   5.071  1.00  0.00    -0.002 A 
ENDBRANCH   1   8
BRANCH   1  14
HETATM   14  C   UNL     1       6.448  -1.084   2.887  1.00  0.00    -0.060 A 
HETATM   15  C   UNL     1       7.277  -0.092   2.340  1.00  0.00    -0.002 A 
HETATM   16  C   UNL     1       8.649  -0.089   2.628  1.00  0.00    -0.000 A 
HETATM   17  C   UNL     1       9.204  -1.093   3.433  1.00  0.00     0.000 A 
HETATM   18  C   UNL     1       8.392  -2.096   3.951  1.00  0.00    -0.000 A 
HETATM   19  C   UNL     1       7.025  -2.093   3.685  1.00  0.00    -0.002 A 
ENDBRANCH   1  14
TORSDOF 6
