REMARK  16 active torsions:
REMARK  status: ('A' for Active; 'I' for Inactive)
REMARK    1  A    between atoms: C_2  and  C_3 
REMARK    2  A    between atoms: C_3  and  C_4 
REMARK    3  A    between atoms: C_4  and  C_5 
REMARK    4  A    between atoms: C_5  and  C_6 
REMARK    5  A    between atoms: C_7  and  C_8 
REMARK    6  A    between atoms: C_8  and  C_9 
REMARK    7  A    between atoms: C_10  and  C_11 
REMARK    8  A    between atoms: C_11  and  C_12 
REMARK    9  A    between atoms: C_13  and  C_14 
REMARK   10  A    between atoms: C_15  and  C_16 
REMARK   11  A    between atoms: C_16  and  O_17 
REMARK   12  A    between atoms: C_16  and  C_18 
REMARK   13  A    between atoms: C_18  and  C_19 
REMARK   14  A    between atoms: C_19  and  C_20 
REMARK   15  A    between atoms: C_20  and  C_21 
REMARK   16  A    between atoms: C_21  and  O_23 
ROOT
HETATM    1  C   UNL     1      12.682  -4.999   5.277  1.00  0.00    -0.023 C 
HETATM    2  C   UNL     1      13.401  -6.105   5.032  1.00  0.00    -0.004 C 
ENDROOT
BRANCH   2   3
HETATM    3  C   UNL     1      14.840  -6.124   5.077  1.00  0.00    -0.002 C 
HETATM    4  C   UNL     1      15.562  -7.228   4.832  1.00  0.00     0.004 C 
BRANCH   4   5
HETATM    5  C   UNL     1      17.063  -7.237   4.828  1.00  0.00     0.141 C 
BRANCH   5   6
HETATM    6  O   UNL     1      17.509  -8.183   5.793  1.00  0.00    -0.392 OA
HETATM    7  H   UNL     1      17.117  -9.043   5.572  1.00  0.00     0.210 HD
ENDBRANCH   5   6
BRANCH   5   8
HETATM    8  C   UNL     1      17.645  -7.610   3.457  1.00  0.00     0.036 C 
BRANCH   8   9
HETATM    9  C   UNL     1      17.232  -6.618   2.367  1.00  0.00     0.013 C 
BRANCH   9  10
HETATM   10  C   UNL     1      17.813  -6.973   1.001  1.00  0.00     0.110 C 
BRANCH  10  11
HETATM   11  C   UNL     1      17.374  -5.976  -0.048  1.00  0.00     0.139 C 
HETATM   12  O   UNL     1      16.658  -5.009   0.150  1.00  0.00    -0.650 OA
BRANCH  11  13
HETATM   13  O   UNL     1      17.868  -6.268  -1.274  1.00  0.00    -0.776 OA
HETATM   14  H   UNL     1      18.427  -7.065  -1.294  1.00  0.00     0.167 HD
ENDBRANCH  11  13
ENDBRANCH  10  11
ENDBRANCH   9  10
ENDBRANCH   8   9
ENDBRANCH   5   8
ENDBRANCH   4   5
ENDBRANCH   2   3
BRANCH   1  15
HETATM   15  C   UNL     1      11.184  -4.978   5.263  1.00  0.00     0.054 C 
BRANCH  15  16
HETATM   16  C   UNL     1      10.658  -4.003   4.254  1.00  0.00    -0.027 C 
HETATM   17  C   UNL     1       9.863  -2.967   4.564  1.00  0.00    -0.027 C 
BRANCH  17  18
HETATM   18  C   UNL     1       9.309  -2.017   3.546  1.00  0.00     0.053 C 
BRANCH  18  19
HETATM   19  C   UNL     1       9.744  -0.611   3.822  1.00  0.00    -0.027 C 
HETATM   20  C   UNL     1       8.890   0.398   4.047  1.00  0.00    -0.030 C 
BRANCH  20  21
HETATM   21  C   UNL     1       9.332   1.806   4.307  1.00  0.00     0.027 C 
BRANCH  21  22
HETATM   22  C   UNL     1       8.858   2.287   5.676  1.00  0.00     0.004 C 
BRANCH  22  23
HETATM   23  C   UNL     1       9.319   3.721   5.932  1.00  0.00    -0.000 C 
BRANCH  23  24
HETATM   24  C   UNL     1       8.851   4.216   7.298  1.00  0.00    -0.005 C 
HETATM   25  C   UNL     1       9.311   5.641   7.551  1.00  0.00     0.005 C 
ENDBRANCH  23  24
ENDBRANCH  22  23
ENDBRANCH  21  22
ENDBRANCH  20  21
ENDBRANCH  18  19
ENDBRANCH  17  18
ENDBRANCH  15  16
ENDBRANCH   1  15
TORSDOF 16
