REMARK  4 active torsions:
REMARK  status: ('A' for Active; 'I' for Inactive)
REMARK    1  A    between atoms: C_5  and  N_6 
REMARK       I    between atoms: N_6  and  C_7 
REMARK       I    between atoms: C_7  and  N_9 
REMARK    2  A    between atoms: N_9  and  C_10 
REMARK    3  A    between atoms: C_12  and  C_13 
REMARK    4  A    between atoms: C_12  and  C_15 
ROOT
HETATM    1  N   UNL     1       6.598   5.527   1.468  1.00  0.00    -0.308 N 
HETATM    2  C   UNL     1       5.559   5.083   0.703  1.00  0.00     0.321 C 
HETATM    3  O   UNL     1       5.559   4.098  -0.022  1.00  0.00    -0.247 OA
HETATM    4  N   UNL     1       4.466   5.892   0.723  1.00  0.00    -0.334 N 
HETATM    5  H   UNL     1       6.653   6.532   1.405  1.00  0.00     0.170 HD
HETATM    6  H   UNL     1       3.920   5.773  -0.120  1.00  0.00     0.165 HD
ENDROOT
BRANCH   4   7
HETATM    7  C   UNL     1       4.130   6.997   1.606  1.00  0.00     0.125 C 
HETATM    8  C   UNL     1       2.617   7.022   2.036  1.00  0.00     0.073 C 
HETATM    9  C   UNL     1       1.703   7.027   0.771  1.00  0.00     0.121 C 
HETATM   10  O   UNL     1       2.380   7.710  -0.324  1.00  0.00    -0.335 OA
HETATM   11  C   UNL     1       3.201   8.714   0.147  1.00  0.00     0.080 C 
HETATM   12  C   UNL     1       2.858  10.055   0.069  1.00  0.00     0.061 C 
HETATM   13  C   UNL     1       4.306   8.327   0.912  1.00  0.00    -0.002 C 
HETATM   14  C   UNL     1       3.714  10.996   0.646  1.00  0.00     0.036 C 
HETATM   15 CL   UNL     1       3.188  12.626   0.835  1.00  0.00    -0.084 Cl
HETATM   16  C   UNL     1       4.955  10.618   1.168  1.00  0.00     0.024 C 
HETATM   17  C   UNL     1       5.261   9.266   1.307  1.00  0.00     0.013 C 
BRANCH   9  18
HETATM   18  C   UNL     1       0.337   7.729   0.849  1.00  0.00     0.263 C 
HETATM   19  F   UNL     1      -0.286   7.560  -0.365  1.00  0.00    -0.252 F 
ENDBRANCH   9  18
BRANCH   9  20
HETATM   20  C   UNL     1       1.359   5.550   0.474  1.00  0.00     0.263 C 
HETATM   21  F   UNL     1       0.605   5.074   1.513  1.00  0.00    -0.252 F 
ENDBRANCH   9  20
ENDBRANCH   4   7
BRANCH   1  22
HETATM   22  C   UNL     1       7.859   4.891   1.523  1.00  0.00     0.047 A 
HETATM   23  C   UNL     1       8.066   3.558   1.993  1.00  0.00     0.004 A 
HETATM   24  C   UNL     1       7.051   2.629   2.329  1.00  0.00     0.039 A 
HETATM   25  C   UNL     1       9.400   3.139   2.176  1.00  0.00    -0.008 A 
HETATM   26  C   UNL     1       7.384   1.360   2.812  1.00  0.00     0.005 A 
HETATM   27  C   UNL     1       6.327   0.336   3.092  1.00  0.00     0.068 C 
HETATM   28  N   UNL     1       8.658   0.983   3.036  1.00  0.00    -0.369 N 
HETATM   29  C   UNL     1       9.624   1.870   2.718  1.00  0.00     0.100 A 
ATOM     30  HN  UNL     1       8.882   0.068   3.428  1.00  0.00     0.165 HD
HETATM   31  C   UNL     1      10.476   3.981   1.849  1.00  0.00     0.014 A 
HETATM   32  C   UNL     1      10.253   5.255   1.340  1.00  0.00     0.003 A 
HETATM   33  C   UNL     1       8.951   5.713   1.199  1.00  0.00     0.030 A 
ENDBRANCH   1  22
TORSDOF 4
