REMARK  4 active torsions:
REMARK  status: ('A' for Active; 'I' for Inactive)
REMARK       I    between atoms: C_2  and  N_3 
REMARK       I    between atoms: C_2  and  N_15 
REMARK    1  A    between atoms: N_3  and  C_4 
REMARK    2  A    between atoms: C_4  and  C_5 
REMARK    3  A    between atoms: C_8  and  C_9 
REMARK    4  A    between atoms: N_15  and  C_16 
ROOT
HETATM    1  O   UNL     1       1.396   0.002   0.294  1.00  0.00    -0.247 OA
HETATM    2  C   UNL     1       2.595  -0.234   0.213  1.00  0.00     0.321 C 
HETATM    3  N   UNL     1       3.205  -0.413  -1.007  1.00  0.00    -0.339 N 
HETATM    4  N   UNL     1       3.477  -0.386   1.272  1.00  0.00    -0.308 N 
HETATM    5  H   UNL     1       4.206  -0.501  -1.069  1.00  0.00     0.164 HD
HETATM    6  H   UNL     1       4.334  -0.863   1.048  1.00  0.00     0.170 HD
ENDROOT
BRANCH   3   7
HETATM    7  C   UNL     1       2.451  -0.328  -2.245  1.00  0.00     0.162 C 
BRANCH   7   8
HETATM    8  C   UNL     1       2.878   0.848  -3.093  1.00  0.00    -0.040 A 
HETATM    9  C   UNL     1       3.419   0.653  -4.371  1.00  0.00     0.009 A 
HETATM   10  C   UNL     1       3.765   1.746  -5.176  1.00  0.00     0.017 A 
HETATM   11  C   UNL     1       3.572   3.054  -4.712  1.00  0.00     0.047 A 
HETATM   12  C   UNL     1       3.031   3.249  -3.429  1.00  0.00     0.017 A 
HETATM   13  C   UNL     1       2.686   2.156  -2.628  1.00  0.00     0.009 A 
BRANCH  11  14
HETATM   14  C   UNL     1       3.925   4.245  -5.571  1.00  0.00     0.417 C 
HETATM   15  F   UNL     1       4.421   3.907  -6.795  1.00  0.00    -0.166 F 
HETATM   16  F   UNL     1       2.855   5.053  -5.813  1.00  0.00    -0.166 F 
HETATM   17  F   UNL     1       4.867   5.042  -4.995  1.00  0.00    -0.166 F 
ENDBRANCH  11  14
ENDBRANCH   7   8
ENDBRANCH   3   7
BRANCH   4  18
HETATM   18  C   UNL     1       3.115  -0.348   2.656  1.00  0.00     0.047 C 
HETATM   19  C   UNL     1       1.903   0.235   3.056  1.00  0.00     0.030 C 
HETATM   20  C   UNL     1       1.436   0.109   4.363  1.00  0.00     0.003 C 
HETATM   21  C   UNL     1       2.151  -0.653   5.274  1.00  0.00     0.014 C 
HETATM   22  C   UNL     1       3.394  -1.194   4.921  1.00  0.00    -0.008 C 
HETATM   23  C   UNL     1       4.124  -1.952   5.837  1.00  0.00     0.100 C 
HETATM   24  C   UNL     1       3.946  -0.964   3.637  1.00  0.00     0.004 C 
HETATM   25  N   UNL     1       5.393  -2.368   5.648  1.00  0.00    -0.374 N 
HETATM   26  C   UNL     1       5.963  -2.017   4.482  1.00  0.00     0.088 C 
ATOM     27  HN  UNL     1       5.891  -2.917   6.349  1.00  0.00     0.164 HD
HETATM   28  C   UNL     1       5.290  -1.365   3.454  1.00  0.00     0.031 C 
ENDBRANCH   4  18
TORSDOF 4
