REMARK  3 active torsions:
REMARK  status: ('A' for Active; 'I' for Inactive)
REMARK    1  A    between atoms: C_2  and  C_5 
REMARK    2  A    between atoms: C_13  and  N_14 
REMARK       I    between atoms: N_14  and  C_15 
REMARK       I    between atoms: C_15  and  N_17 
REMARK    3  A    between atoms: N_17  and  C_18 
ROOT
HETATM    1  N   UNL     1       3.091   5.190   4.114  1.00  0.00    -0.334 N 
HETATM    2  C   UNL     1       3.549   6.203   4.927  1.00  0.00     0.321 C 
HETATM    3  O   UNL     1       4.505   6.891   4.582  1.00  0.00    -0.247 OA
HETATM    4  N   UNL     1       2.866   6.301   6.122  1.00  0.00    -0.308 N 
HETATM    5  H   UNL     1       2.131   4.894   4.198  1.00  0.00     0.165 HD
HETATM    6  H   UNL     1       2.317   5.495   6.369  1.00  0.00     0.170 HD
ENDROOT
BRANCH   1   7
HETATM    7  C   UNL     1       3.747   5.016   2.830  1.00  0.00     0.120 C 
HETATM    8  C   UNL     1       3.513   3.664   2.232  1.00  0.00    -0.029 A 
HETATM    9  C   UNL     1       4.109   2.472   2.591  1.00  0.00     0.010 A 
HETATM   10  C   UNL     1       2.623   3.726   1.160  1.00  0.00    -0.049 A 
HETATM   11  C   UNL     1       3.793   1.323   1.861  1.00  0.00     0.008 A 
HETATM   12  C   UNL     1       2.878   1.348   0.781  1.00  0.00    -0.050 A 
HETATM   13  C   UNL     1       2.296   2.588   0.437  1.00  0.00     0.015 A 
HETATM   14  C   UNL     1       2.118   5.122   0.972  1.00  0.00     0.041 C 
HETATM   15  C   UNL     1       3.184   5.934   1.725  1.00  0.00     0.035 C 
BRANCH  12  16
HETATM   16  C   UNL     1       2.490   0.071   0.011  1.00  0.00    -0.024 C 
HETATM   17  C   UNL     1       3.193  -1.201   0.535  1.00  0.00     0.019 C 
HETATM   18  C   UNL     1       2.849   0.208  -1.484  1.00  0.00     0.019 C 
HETATM   19  C   UNL     1       0.969  -0.157   0.142  1.00  0.00     0.019 C 
ENDBRANCH  12  16
ENDBRANCH   1   7
BRANCH   4  20
HETATM   20  C   UNL     1       3.161   7.248   7.153  1.00  0.00     0.047 A 
HETATM   21  C   UNL     1       3.925   8.392   6.867  1.00  0.00     0.030 A 
HETATM   22  C   UNL     1       4.325   9.278   7.862  1.00  0.00     0.003 A 
HETATM   23  C   UNL     1       3.941   9.056   9.174  1.00  0.00     0.014 A 
HETATM   24  C   UNL     1       3.126   7.962   9.493  1.00  0.00    -0.008 A 
HETATM   25  C   UNL     1       2.719   7.757  10.812  1.00  0.00     0.100 A 
HETATM   26  C   UNL     1       2.705   7.044   8.494  1.00  0.00     0.004 A 
HETATM   27  N   UNL     1       1.925   6.745  11.223  1.00  0.00    -0.374 N 
HETATM   28  C   UNL     1       1.518   5.890  10.272  1.00  0.00     0.088 A 
ATOM     29  HN  UNL     1       1.651   6.637  12.199  1.00  0.00     0.164 HD
HETATM   30  C   UNL     1       1.871   5.989   8.930  1.00  0.00     0.031 A 
ENDBRANCH   4  20
TORSDOF 3
