REMARK  24 active torsions:
REMARK  status: ('A' for Active; 'I' for Inactive)
REMARK    1  A    between atoms: N_1  and  C_2 
REMARK    2  A    between atoms: C_2  and  C_3 
REMARK    3  A    between atoms: C_3  and  C_4 
REMARK    4  A    between atoms: C_4  and  N_5 
REMARK    5  A    between atoms: N_5  and  C_6 
REMARK    6  A    between atoms: C_6  and  C_7 
REMARK    7  A    between atoms: C_7  and  C_8 
REMARK    8  A    between atoms: C_8  and  C_9 
REMARK    9  A    between atoms: C_9  and  N_10 
REMARK   10  A    between atoms: N_10  and  C_11 
REMARK   11  A    between atoms: C_11  and  C_12 
REMARK   12  A    between atoms: C_12  and  C_13 
REMARK   13  A    between atoms: C_13  and  N_14 
REMARK   14  A    between atoms: N_14  and  C_15 
REMARK   15  A    between atoms: C_15  and  C_16 
REMARK   16  A    between atoms: C_16  and  C_17 
REMARK   17  A    between atoms: C_17  and  N_18 
REMARK   18  A    between atoms: N_18  and  O_19 
REMARK   19  A    between atoms: N_18  and  C_20 
REMARK   20  A    between atoms: C_20  and  C_21 
REMARK   21  A    between atoms: C_21  and  C_22 
REMARK   22  A    between atoms: C_22  and  N_23 
REMARK       I    between atoms: N_23  and  C_24 
REMARK   23  A    between atoms: C_24  and  C_26 
REMARK   24  A    between atoms: C_26  and  C_27 
ROOT
HETATM    1  C   UNL     1      16.907  10.666   3.512  1.00  0.00     0.122 C 
ENDROOT
BRANCH   1   2
HETATM    2  C   UNL     1      16.384   9.304   3.077  1.00  0.00     0.046 C 
BRANCH   2   3
HETATM    3  C   UNL     1      14.866   9.329   3.097  1.00  0.00     0.270 C 
BRANCH   3   4
HETATM    4  N   UNL     1      14.378   8.037   2.640  1.00  0.00     0.083 N 
HETATM    5  H   UNL     1      14.737   7.833   1.709  1.00  0.00     0.315 HD
BRANCH   4   6
HETATM    6  C   UNL     1      12.920   8.031   2.627  1.00  0.00     0.271 C 
BRANCH   6   7
HETATM    7  C   UNL     1      12.424   6.673   2.152  1.00  0.00     0.060 C 
BRANCH   7   8
HETATM    8  C   UNL     1      10.902   6.697   2.140  1.00  0.00     0.271 C 
BRANCH   8   9
HETATM    9  N   UNL     1      10.393   5.415   1.689  1.00  0.00     0.083 N 
HETATM   10  H   UNL     1      10.756   5.186   0.765  1.00  0.00     0.315 HD
BRANCH   9  11
HETATM   11  C   UNL     1       8.937   5.411   1.688  1.00  0.00     0.269 C 
BRANCH  11  12
HETATM   12  C   UNL     1       8.440   4.050   1.235  1.00  0.00     0.032 C 
BRANCH  12  13
HETATM   13  C   UNL     1       8.920   2.925   2.163  1.00  0.00     0.032 C 
BRANCH  13  14
HETATM   14  C   UNL     1       8.414   1.562   1.715  1.00  0.00     0.269 C 
BRANCH  14  15
HETATM   15  N   UNL     1       8.913   1.264   0.377  1.00  0.00     0.083 N 
HETATM   16  H   UNL     1       8.609   1.993  -0.263  1.00  0.00     0.315 HD
BRANCH  15  17
HETATM   17  C   UNL     1       8.416  -0.019  -0.083  1.00  0.00     0.271 C 
BRANCH  17  18
HETATM   18  C   UNL     1       8.928  -0.316  -1.486  1.00  0.00     0.059 C 
BRANCH  18  19
HETATM   19  C   UNL     1       8.410  -1.675  -1.940  1.00  0.00     0.268 C 
BRANCH  19  20
HETATM   20  N   UNL     1       8.895  -1.967  -3.282  1.00  0.00     0.078 N 
HETATM   21  H   UNL     1       8.553  -2.875  -3.588  1.00  0.00     0.312 HD
HETATM   22  H   UNL     1       9.915  -1.983  -3.277  1.00  0.00     0.312 HD
ENDBRANCH  19  20
ENDBRANCH  18  19
ENDBRANCH  17  18
ENDBRANCH  15  17
ENDBRANCH  14  15
ENDBRANCH  13  14
ENDBRANCH  12  13
ENDBRANCH  11  12
ENDBRANCH   9  11
ENDBRANCH   8   9
ENDBRANCH   7   8
ENDBRANCH   6   7
ENDBRANCH   4   6
ENDBRANCH   3   4
ENDBRANCH   2   3
ENDBRANCH   1   2
BRANCH   1  23
HETATM   23  N   UNL     1      18.374  10.691   3.527  1.00  0.00    -0.200 NA
BRANCH  23  24
HETATM   24  O   UNL     1      18.798  10.449   2.155  1.00  0.00    -0.313 OA
HETATM   25  H   UNL     1      18.953   9.483   2.175  1.00  0.00     0.237 HD
ENDBRANCH  23  24
BRANCH  23  26
HETATM   26  C   UNL     1      18.874  12.036   3.857  1.00  0.00     0.122 C 
BRANCH  26  27
HETATM   27  C   UNL     1      18.443  12.514   5.250  1.00  0.00     0.036 C 
BRANCH  27  28
HETATM   28  C   UNL     1      18.888  11.531   6.319  1.00  0.00     0.123 C 
BRANCH  28  29
HETATM   29  N   UNL     1      18.451  11.946   7.677  1.00  0.00    -0.361 N 
HETATM   30  C   UNL     1      17.250  11.524   8.217  1.00  0.00     0.221 C 
HETATM   31  O   UNL     1      16.500  10.774   7.586  1.00  0.00    -0.273 OA
HETATM   32  H   UNL     1      19.004  12.623   8.185  1.00  0.00     0.162 HD
BRANCH  30  33
HETATM   33  C   UNL     1      16.865  11.979   9.653  1.00  0.00     0.143 C 
BRANCH  33  34
HETATM   34  C   UNL     1      16.106  13.274   9.593  1.00  0.00    -0.022 A 
HETATM   35  C   UNL     1      16.517  14.437  10.198  1.00  0.00     0.097 A 
HETATM   36  N   UNL     1      15.684  15.464   9.818  1.00  0.00    -0.365 N 
HETATM   37  C   UNL     1      14.644  14.954   9.073  1.00  0.00     0.042 A 
HETATM   38  H   UNL     1      15.774  16.431  10.098  1.00  0.00     0.165 HD
HETATM   39  C   UNL     1      13.469  15.546   8.593  1.00  0.00     0.030 A 
HETATM   40  C   UNL     1      14.891  13.584   8.940  1.00  0.00    -0.001 A 
HETATM   41  C   UNL     1      12.555  14.715   7.956  1.00  0.00     0.002 A 
HETATM   42  C   UNL     1      12.795  13.367   7.791  1.00  0.00     0.001 A 
HETATM   43  C   UNL     1      13.966  12.803   8.252  1.00  0.00     0.014 A 
ENDBRANCH  33  34
ENDBRANCH  30  33
ENDBRANCH  28  29
ENDBRANCH  27  28
ENDBRANCH  26  27
ENDBRANCH  23  26
ENDBRANCH   1  23
TORSDOF 24
