REMARK  5 active torsions:
REMARK  status: ('A' for Active; 'I' for Inactive)
REMARK    1  A    between atoms: C_2  and  C_3 
REMARK    2  A    between atoms: C_3  and  S_4 
REMARK    3  A    between atoms: S_4  and  S_5 
REMARK    4  A    between atoms: S_5  and  C_7 
REMARK    5  A    between atoms: C_7  and  C_8 
ROOT
HETATM    1  S   UNL     1       5.898   1.890   2.174  1.00  0.00     0.081 S 
HETATM    2  O   UNL     1       5.414   1.246   3.439  1.00  0.00    -0.246 OA
ENDROOT
BRANCH   1   3
HETATM    3  S   UNL     1       5.084   0.619   0.820  1.00  0.00    -0.062 SA
BRANCH   3   4
HETATM    4  C   UNL     1       3.322   0.745   1.232  1.00  0.00     0.114 C 
BRANCH   4   5
HETATM    5  C   UNL     1       2.531  -0.130   0.305  1.00  0.00    -0.026 C 
HETATM    6  C   UNL     1       1.582   0.310  -0.533  1.00  0.00     0.007 C 
ENDBRANCH   4   5
ENDBRANCH   3   4
ENDBRANCH   1   3
BRANCH   1   7
HETATM    7  C   UNL     1       7.677   1.529   1.982  1.00  0.00     0.147 C 
BRANCH   7   8
HETATM    8  C   UNL     1       8.493   2.382   2.908  1.00  0.00    -0.024 C 
HETATM    9  C   UNL     1       9.430   3.254   2.511  1.00  0.00     0.008 C 
ENDBRANCH   7   8
ENDBRANCH   1   7
TORSDOF 5
