REMARK  5 active torsions:
REMARK  status: ('A' for Active; 'I' for Inactive)
REMARK       I    between atoms: C_2  and  N_4 
REMARK    1  A    between atoms: N_4  and  C_5 
REMARK    2  A    between atoms: C_9  and  O_10 
REMARK    3  A    between atoms: O_10  and  C_11 
REMARK    4  A    between atoms: C_13  and  C_14 
REMARK    5  A    between atoms: C_17  and  C_18 
ROOT
HETATM    1  C   UNL     1       8.472  -1.862  -4.751  1.00  0.00     0.151 A 
HETATM    2  C   UNL     1       9.350  -2.890  -4.475  1.00  0.00     0.086 A 
HETATM    3  C   UNL     1      10.383  -3.066  -5.376  1.00  0.00     0.047 A 
HETATM    4  N   UNL     1      10.513  -2.279  -6.468  1.00  0.00    -0.352 N 
ATOM      5  HN  UNL     1      11.289  -2.396  -7.120  1.00  0.00     0.166 HD
HETATM    6  C   UNL     1       9.577  -1.339  -6.655  1.00  0.00     0.182 A 
HETATM    7  N   UNL     1       8.543  -1.092  -5.849  1.00  0.00    -0.333 N 
ATOM      8  HN  UNL     1       7.854  -0.368  -6.053  1.00  0.00     0.168 HD
ENDROOT
BRANCH   1   9
HETATM    9  O   UNL     1       7.467  -1.636  -3.815  1.00  0.00    -0.291 OA
BRANCH   9  10
HETATM   10  C   UNL     1       7.023  -0.336  -3.639  1.00  0.00     0.105 A 
HETATM   11  C   UNL     1       5.659  -0.114  -3.318  1.00  0.00     0.085 A 
HETATM   12  N   UNL     1       4.652  -1.074  -3.178  1.00  0.00    -0.333 N 
HETATM   13  C   UNL     1       5.231   1.203  -3.125  1.00  0.00     0.038 A 
HETATM   14  C   UNL     1       3.498  -0.478  -2.993  1.00  0.00     0.152 A 
ATOM     15  HN  UNL     1       4.793  -2.084  -3.214  1.00  0.00     0.168 HD
HETATM   16  S   UNL     1       3.550   1.207  -2.784  1.00  0.00    -0.052 SA
HETATM   17  C   UNL     1       6.094   2.305  -3.219  1.00  0.00     0.021 A 
HETATM   18  C   UNL     1       7.433   2.067  -3.513  1.00  0.00     0.004 A 
HETATM   19  C   UNL     1       7.896   0.770  -3.697  1.00  0.00     0.040 A 
BRANCH  14  20
HETATM   20  N   UNL     1       2.318  -1.179  -2.907  1.00  0.00    -0.307 N 
HETATM   21  C   UNL     1       1.059  -0.638  -3.063  1.00  0.00     0.219 C 
HETATM   22  C   UNL     1      -0.033  -1.660  -2.888  1.00  0.00     0.117 C 
HETATM   23  O   UNL     1       0.774   0.526  -3.324  1.00  0.00    -0.274 OA
HETATM   24  H   UNL     1       2.438  -2.182  -2.926  1.00  0.00     0.171 HD
ENDBRANCH  14  20
ENDBRANCH   9  10
ENDBRANCH   1   9
BRANCH   3  25
HETATM   25  C   UNL     1      11.436  -4.091  -5.203  1.00  0.00    -0.009 A 
HETATM   26  C   UNL     1      11.172  -5.340  -4.610  1.00  0.00     0.014 A 
HETATM   27  C   UNL     1      12.186  -6.293  -4.441  1.00  0.00     0.017 A 
HETATM   28  C   UNL     1      13.496  -6.030  -4.860  1.00  0.00     0.048 A 
HETATM   29  C   UNL     1      13.769  -4.798  -5.463  1.00  0.00     0.017 A 
HETATM   30  C   UNL     1      12.755  -3.849  -5.632  1.00  0.00     0.014 A 
BRANCH  28  31
HETATM   31  C   UNL     1      14.596  -7.047  -4.677  1.00  0.00     0.417 C 
HETATM   32  F   UNL     1      14.182  -8.196  -4.073  1.00  0.00    -0.166 F 
HETATM   33  F   UNL     1      15.159  -7.429  -5.857  1.00  0.00    -0.166 F 
HETATM   34  F   UNL     1      15.618  -6.574  -3.911  1.00  0.00    -0.166 F 
ENDBRANCH  28  31
ENDBRANCH   3  25
TORSDOF 5
