REMARK  4 active torsions:
REMARK  status: ('A' for Active; 'I' for Inactive)
REMARK    1  A    between atoms: C_2  and  C_5 
REMARK    2  A    between atoms: C_8  and  C_9 
REMARK    3  A    between atoms: C_10  and  C_11 
REMARK       I    between atoms: C_11  and  N_13 
REMARK    4  A    between atoms: N_13  and  C_14 
ROOT
HETATM    1  C   UNL     1       5.035  -6.648   4.040  1.00  0.00     0.245 C 
HETATM    2  O   UNL     1       4.729  -7.633   3.384  1.00  0.00    -0.268 OA
HETATM    3  N   UNL     1       5.754  -6.626   5.222  1.00  0.00    -0.324 N 
HETATM    4  H   UNL     1       5.908  -5.718   5.646  1.00  0.00     0.169 HD
ENDROOT
BRANCH   1   5
HETATM    5  C   UNL     1       4.655  -5.270   3.598  1.00  0.00     0.075 C 
HETATM    6  C   UNL     1       3.977  -5.082   2.454  1.00  0.00     0.017 C 
BRANCH   6   7
HETATM    7  C   UNL     1       3.584  -3.772   1.907  1.00  0.00    -0.036 A 
HETATM    8  C   UNL     1       4.344  -2.615   2.092  1.00  0.00     0.012 A 
HETATM    9  C   UNL     1       3.963  -1.398   1.504  1.00  0.00     0.009 A 
HETATM   10  C   UNL     1       2.822  -1.293   0.689  1.00  0.00    -0.051 A 
HETATM   11  C   UNL     1       2.063  -2.463   0.517  1.00  0.00     0.009 A 
HETATM   12  C   UNL     1       2.442  -3.680   1.105  1.00  0.00     0.012 A 
BRANCH  10  13
HETATM   13  C   UNL     1       2.401   0.050   0.058  1.00  0.00    -0.024 C 
HETATM   14  C   UNL     1       3.608   0.979  -0.214  1.00  0.00     0.019 C 
HETATM   15  C   UNL     1       1.441   0.770   1.025  1.00  0.00     0.019 C 
HETATM   16  C   UNL     1       1.678  -0.123  -1.299  1.00  0.00     0.019 C 
ENDBRANCH  10  13
ENDBRANCH   6   7
ENDBRANCH   1   5
BRANCH   3  17
HETATM   17  C   UNL     1       6.339  -7.712   5.908  1.00  0.00     0.037 A 
HETATM   18  C   UNL     1       6.284  -9.033   5.477  1.00  0.00     0.032 A 
HETATM   19  C   UNL     1       6.956 -10.038   6.196  1.00  0.00     0.042 A 
HETATM   20  C   UNL     1       7.679  -9.728   7.348  1.00  0.00     0.102 A 
HETATM   21  C   UNL     1       7.681  -8.418   7.816  1.00  0.00     0.104 A 
HETATM   22  O   UNL     1       8.364 -10.748   7.934  1.00  0.00    -0.346 OA
HETATM   23  C   UNL     1       7.030  -7.419   7.088  1.00  0.00     0.069 A 
HETATM   24  O   UNL     1       8.269  -8.041   8.988  1.00  0.00    -0.346 OA
HETATM   25  C   UNL     1       9.273  -8.952   9.422  1.00  0.00     0.202 C 
HETATM   26  C   UNL     1       8.953 -10.425   9.191  1.00  0.00     0.202 C 
ENDBRANCH   3  17
TORSDOF 4
