REMARK  18 active torsions:
REMARK  status: ('A' for Active; 'I' for Inactive)
REMARK    1  A    between atoms: C_2  and  C_3 
REMARK    2  A    between atoms: C_3  and  C_4 
REMARK    3  A    between atoms: C_4  and  C_5 
REMARK    4  A    between atoms: C_5  and  C_6 
REMARK    5  A    between atoms: C_7  and  C_8 
REMARK    6  A    between atoms: C_8  and  C_9 
REMARK    7  A    between atoms: C_10  and  C_11 
REMARK    8  A    between atoms: C_11  and  C_12 
REMARK    9  A    between atoms: C_13  and  C_14 
REMARK   10  A    between atoms: C_14  and  C_15 
REMARK   11  A    between atoms: C_16  and  C_17 
REMARK   12  A    between atoms: C_17  and  C_18 
REMARK   13  A    between atoms: C_18  and  C_19 
REMARK   14  A    between atoms: C_19  and  C_20 
REMARK       I    between atoms: C_20  and  N_22 
REMARK   15  A    between atoms: N_22  and  C_23 
REMARK   16  A    between atoms: C_23  and  C_24 
REMARK   17  A    between atoms: C_27  and  O_28 
REMARK   18  A    between atoms: C_29  and  O_30 
ROOT
HETATM    1  C   UNL     1      16.200   8.006  -8.759  1.00  0.00     0.027 C 
ENDROOT
BRANCH   1   2
HETATM    2  C   UNL     1      15.693   7.171  -7.618  1.00  0.00    -0.030 C 
HETATM    3  C   UNL     1      15.388   5.866  -7.742  1.00  0.00    -0.027 C 
BRANCH   3   4
HETATM    4  C   UNL     1      14.858   5.021  -6.629  1.00  0.00     0.053 C 
BRANCH   4   5
HETATM    5  C   UNL     1      13.358   5.003  -6.610  1.00  0.00    -0.027 C 
HETATM    6  C   UNL     1      12.631   5.432  -5.565  1.00  0.00    -0.027 C 
BRANCH   6   7
HETATM    7  C   UNL     1      11.133   5.401  -5.511  1.00  0.00     0.053 C 
BRANCH   7   8
HETATM    8  C   UNL     1      10.536   6.692  -5.984  1.00  0.00    -0.027 C 
HETATM    9  C   UNL     1       9.212   6.890  -6.085  1.00  0.00    -0.027 C 
BRANCH   9  10
HETATM   10  C   UNL     1       8.599   8.162  -6.589  1.00  0.00     0.053 C 
BRANCH  10  11
HETATM   11  C   UNL     1       8.351   8.084  -8.064  1.00  0.00    -0.027 C 
HETATM   12  C   UNL     1       8.877   8.944  -8.950  1.00  0.00    -0.030 C 
BRANCH  12  13
HETATM   13  C   UNL     1       8.639   8.858 -10.427  1.00  0.00     0.027 C 
BRANCH  13  14
HETATM   14  C   UNL     1       9.947   8.621 -11.181  1.00  0.00     0.004 C 
BRANCH  14  15
HETATM   15  C   UNL     1       9.690   8.531 -12.684  1.00  0.00    -0.000 C 
BRANCH  15  16
HETATM   16  C   UNL     1      10.984   8.290 -13.456  1.00  0.00    -0.005 C 
HETATM   17  C   UNL     1      10.718   8.206 -14.950  1.00  0.00     0.005 C 
ENDBRANCH  15  16
ENDBRANCH  14  15
ENDBRANCH  13  14
ENDBRANCH  12  13
ENDBRANCH  10  11
ENDBRANCH   9  10
ENDBRANCH   7   8
ENDBRANCH   6   7
ENDBRANCH   4   5
ENDBRANCH   3   4
ENDBRANCH   1   2
BRANCH   1  18
HETATM   18  C   UNL     1      15.235   8.053  -9.954  1.00  0.00     0.013 C 
BRANCH  18  19
HETATM   19  C   UNL     1      13.865   8.641  -9.596  1.00  0.00     0.103 C 
BRANCH  19  20
HETATM   20  C   UNL     1      13.988  10.083  -9.147  1.00  0.00     0.217 C 
HETATM   21  O   UNL     1      14.852  10.837  -9.586  1.00  0.00    -0.274 OA
HETATM   22  N   UNL     1      13.052  10.480  -8.226  1.00  0.00    -0.357 N 
HETATM   23  H   UNL     1      12.344   9.829  -7.915  1.00  0.00     0.162 HD
BRANCH  22  24
HETATM   24  C   UNL     1      13.047  11.820  -7.679  1.00  0.00     0.161 C 
BRANCH  24  25
HETATM   25  C   UNL     1      11.763  12.525  -8.027  1.00  0.00    -0.038 A 
HETATM   26  C   UNL     1      11.682  13.285  -9.196  1.00  0.00     0.012 A 
HETATM   27  C   UNL     1      10.471  13.849  -9.579  1.00  0.00     0.040 A 
HETATM   28  C   UNL     1       9.325  13.672  -8.800  1.00  0.00     0.099 A 
HETATM   29  C   UNL     1       9.387  12.940  -7.613  1.00  0.00     0.101 A 
HETATM   30  C   UNL     1      10.616  12.374  -7.230  1.00  0.00     0.048 A 
BRANCH  28  31
HETATM   31  O   UNL     1       8.155  14.213  -9.251  1.00  0.00    -0.358 OA
HETATM   32  H   UNL     1       8.313  14.657 -10.099  1.00  0.00     0.217 HD
ENDBRANCH  28  31
BRANCH  29  33
HETATM   33  O   UNL     1       8.367  12.677  -6.732  1.00  0.00    -0.353 OA
HETATM   34  C   UNL     1       7.080  13.192  -7.055  1.00  0.00     0.210 C 
ENDBRANCH  29  33
ENDBRANCH  24  25
ENDBRANCH  22  24
ENDBRANCH  19  20
ENDBRANCH  18  19
ENDBRANCH   1  18
TORSDOF 18
