REMARK  3 active torsions:
REMARK  status: ('A' for Active; 'I' for Inactive)
REMARK    1  A    between atoms: C_2  and  C_5 
REMARK    2  A    between atoms: C_8  and  N_9 
REMARK       I    between atoms: N_9  and  C_10 
REMARK       I    between atoms: C_10  and  N_12 
REMARK    3  A    between atoms: N_15  and  C_16 
ROOT
HETATM    1  N   UNL     1       3.675   3.475   4.431  1.00  0.00    -0.309 N 
HETATM    2  C   UNL     1       3.533   4.842   4.474  1.00  0.00     0.323 C 
HETATM    3  O   UNL     1       3.102   5.521   3.544  1.00  0.00    -0.247 OA
HETATM    4  N   UNL     1       3.891   5.441   5.670  1.00  0.00    -0.331 N 
HETATM    5  C   UNL     1       4.496   4.802   6.856  1.00  0.00     0.147 C 
HETATM    6  C   UNL     1       3.799   5.282   8.142  1.00  0.00     0.144 C 
HETATM    7  N   UNL     1       3.876   6.740   8.184  1.00  0.00    -0.363 N 
HETATM    8  C   UNL     1       3.188   7.403   7.067  1.00  0.00     0.144 C 
HETATM    9  C   UNL     1       3.822   6.915   5.748  1.00  0.00     0.147 C 
HETATM   10  H   UNL     1       3.835   2.996   5.296  1.00  0.00     0.170 HD
ENDROOT
BRANCH   1  11
HETATM   11  C   UNL     1       3.405   2.633   3.333  1.00  0.00     0.036 A 
HETATM   12  C   UNL     1       3.174   3.098   2.049  1.00  0.00     0.030 A 
HETATM   13  C   UNL     1       2.859   2.211   1.018  1.00  0.00     0.010 A 
HETATM   14  C   UNL     1       2.796   0.825   1.229  1.00  0.00    -0.051 A 
HETATM   15  C   UNL     1       3.050   0.367   2.532  1.00  0.00     0.010 A 
HETATM   16  C   UNL     1       3.363   1.256   3.569  1.00  0.00     0.030 A 
BRANCH  14  17
HETATM   17  C   UNL     1       2.406  -0.127   0.087  1.00  0.00    -0.024 C 
HETATM   18  C   UNL     1       2.823   0.429  -1.295  1.00  0.00     0.019 C 
HETATM   19  C   UNL     1       0.876  -0.307   0.102  1.00  0.00     0.019 C 
HETATM   20  C   UNL     1       3.067  -1.517   0.217  1.00  0.00     0.019 C 
ENDBRANCH  14  17
ENDBRANCH   1  11
BRANCH   7  21
HETATM   21  C   UNL     1       4.321   7.477   9.251  1.00  0.00     0.125 A 
HETATM   22  N   UNL     1       3.653   8.639   9.485  1.00  0.00    -0.351 N 
HETATM   23  C   UNL     1       4.047   9.439  10.499  1.00  0.00     0.090 A 
ATOM     24  HN  UNL     1       2.861   8.904   8.899  1.00  0.00     0.166 HD
HETATM   25  C   UNL     1       5.102   9.150  11.338  1.00  0.00     0.019 A 
HETATM   26  C   UNL     1       5.803   7.976  11.108  1.00  0.00     0.029 A 
HETATM   27  C   UNL     1       5.428   7.138  10.055  1.00  0.00     0.077 A 
HETATM   28 CL   UNL     1       6.485   5.796   9.755  1.00  0.00    -0.080 Cl
ENDBRANCH   7  21
TORSDOF 3
