REMARK  0 active torsions:
REMARK  status: ('A' for Active; 'I' for Inactive)
ROOT
HETATM    1  C   UNL     1       0.982   0.022   0.006  1.00  0.00     0.024 C 
HETATM    2  C   UNL     1       2.491   0.058   0.057  1.00  0.00     0.024 C 
HETATM    3  C   UNL     1       3.148   1.261  -0.661  1.00  0.00     0.018 C 
HETATM    4  C   UNL     1       4.587   1.254  -0.095  1.00  0.00     0.007 C 
HETATM    5  C   UNL     1       4.591   0.026   0.850  1.00  0.00     0.001 C 
HETATM    6  C   UNL     1       4.602  -1.238  -0.048  1.00  0.00     0.084 C 
HETATM    7  C   UNL     1       3.185  -1.152  -0.576  1.00  0.00     0.136 C 
HETATM    8  O   UNL     1       2.698  -1.912  -1.397  1.00  0.00    -0.297 OA
HETATM    9  C   UNL     1       3.161   0.055   1.458  1.00  0.00    -0.029 C 
HETATM   10  C   UNL     1       2.816  -1.165   2.336  1.00  0.00     0.016 C 
HETATM   11  C   UNL     1       2.859   1.306   2.307  1.00  0.00     0.016 C 
ENDROOT
TORSDOF 0
