REMARK  7 active torsions:
REMARK  status: ('A' for Active; 'I' for Inactive)
REMARK    1  A    between atoms: O_1  and  C_2 
REMARK    2  A    between atoms: C_7  and  O_8 
REMARK    3  A    between atoms: N_10  and  C_11 
REMARK    4  A    between atoms: C_11  and  N_13 
REMARK    5  A    between atoms: N_13  and  C_14 
REMARK    6  A    between atoms: C_14  and  C_15 
REMARK    7  A    between atoms: C_15  and  C_16 
ROOT
HETATM    1  C   UNL     1       2.532  -0.062   0.136  1.00  0.00     0.099 A 
HETATM    2  C   UNL     1       3.178   1.140   0.420  1.00  0.00     0.047 A 
HETATM    3  C   UNL     1       4.575   1.240   0.309  1.00  0.00    -0.047 A 
HETATM    4  C   UNL     1       5.331   0.110  -0.079  1.00  0.00    -0.031 A 
HETATM    5  C   UNL     1       4.659  -1.095  -0.364  1.00  0.00     0.048 A 
HETATM    6  C   UNL     1       3.271  -1.177  -0.255  1.00  0.00     0.099 A 
HETATM    7  C   UNL     1       6.837   0.183  -0.198  1.00  0.00     0.164 C 
HETATM    8  N   UNL     1       7.248   1.072  -1.301  1.00  0.00    -0.354 N 
HETATM    9  C   UNL     1       7.293   2.501  -0.963  1.00  0.00     0.126 C 
HETATM   10  C   UNL     1       5.926   3.127  -0.677  1.00  0.00     0.025 C 
HETATM   11  C   UNL     1       5.247   2.565   0.576  1.00  0.00     0.041 C 
ENDROOT
BRANCH   8  12
HETATM   12  C   UNL     1       7.630   0.555  -2.547  1.00  0.00     0.170 C 
HETATM   13  S   UNL     1       8.296  -0.980  -2.754  1.00  0.00    -0.041 SA
BRANCH  12  14
HETATM   14  N   UNL     1       7.394   1.413  -3.615  1.00  0.00    -0.367 N 
HETATM   15  H   UNL     1       6.843   2.228  -3.396  1.00  0.00     0.161 HD
BRANCH  14  16
HETATM   16  C   UNL     1       7.262   0.935  -4.997  1.00  0.00     0.126 C 
BRANCH  16  17
HETATM   17  C   UNL     1       7.056   2.032  -6.046  1.00  0.00     0.058 C 
BRANCH  17  18
HETATM   18  C   UNL     1       8.244   2.945  -6.233  1.00  0.00    -0.057 A 
HETATM   19  C   UNL     1       9.493   2.430  -6.612  1.00  0.00     0.009 A 
HETATM   20  C   UNL     1      10.596   3.274  -6.754  1.00  0.00     0.024 A 
HETATM   21  C   UNL     1      10.452   4.641  -6.534  1.00  0.00     0.034 A 
HETATM   22 CL   UNL     1      11.816   5.679  -6.677  1.00  0.00    -0.084 Cl
HETATM   23  C   UNL     1       9.210   5.172  -6.197  1.00  0.00     0.024 A 
HETATM   24  C   UNL     1       8.107   4.327  -6.052  1.00  0.00     0.009 A 
ENDBRANCH  17  18
ENDBRANCH  16  17
ENDBRANCH  14  16
ENDBRANCH  12  14
ENDBRANCH   8  12
BRANCH   6  25
HETATM   25  O   UNL     1       2.618  -2.344  -0.538  1.00  0.00    -0.358 OA
HETATM   26  H   UNL     1       3.268  -3.013  -0.801  1.00  0.00     0.217 HD
ENDBRANCH   6  25
BRANCH   1  27
HETATM   27  O   UNL     1       1.172  -0.154   0.222  1.00  0.00    -0.358 OA
HETATM   28  H   UNL     1       0.805   0.722   0.414  1.00  0.00     0.217 HD
ENDBRANCH   1  27
TORSDOF 7
