REMARK  6 active torsions:
REMARK  status: ('A' for Active; 'I' for Inactive)
REMARK    1  A    between atoms: C_4  and  B_5 
REMARK    2  A    between atoms: B_5  and  O_6 
REMARK    3  A    between atoms: B_5  and  C_20 
REMARK    4  A    between atoms: O_6  and  B_7 
REMARK    5  A    between atoms: B_7  and  C_8 
REMARK    6  A    between atoms: B_7  and  C_14 
ROOT
HETATM    1  O   UNL     1      -3.130   1.814  -0.748  1.00  0.00    -0.509 OA
ENDROOT
BRANCH   1   2
HETATM    2  B   UNL     1      -2.985   0.523  -0.007  1.00  0.00     0.386 B 
BRANCH   2   3
HETATM    3  C   UNL     1      -2.769  -0.834  -0.810  1.00  0.00    -0.061 A 
HETATM    4  C   UNL     1      -2.052  -1.900  -0.222  1.00  0.00    -0.002 A 
HETATM    5  C   UNL     1      -1.990  -3.147  -0.849  1.00  0.00    -0.000 A 
HETATM    6  C   UNL     1      -2.640  -3.346  -2.067  1.00  0.00     0.000 A 
HETATM    7  C   UNL     1      -3.323  -2.288  -2.676  1.00  0.00    -0.000 A 
HETATM    8  C   UNL     1      -3.377  -1.030  -2.059  1.00  0.00    -0.002 A 
ENDBRANCH   2   3
BRANCH   2   9
HETATM    9  C   UNL     1      -3.651   0.332   1.446  1.00  0.00    -0.061 A 
HETATM   10  C   UNL     1      -4.034  -0.958   1.904  1.00  0.00    -0.002 A 
HETATM   11  C   UNL     1      -4.654  -1.137   3.135  1.00  0.00    -0.000 A 
HETATM   12  C   UNL     1      -4.914  -0.040   3.945  1.00  0.00     0.000 A 
HETATM   13  C   UNL     1      -4.560   1.243   3.515  1.00  0.00    -0.000 A 
HETATM   14  C   UNL     1      -3.936   1.433   2.272  1.00  0.00    -0.002 A 
ENDBRANCH   2   9
ENDBRANCH   1   2
BRANCH   1  15
HETATM   15  B   UNL     1      -2.090   2.848  -0.427  1.00  0.00     0.386 B 
BRANCH  15  16
HETATM   16  C   UNL     1      -0.609   2.517   0.070  1.00  0.00    -0.061 A 
HETATM   17  C   UNL     1       0.088   1.366  -0.335  1.00  0.00    -0.002 A 
HETATM   18  C   UNL     1       1.393   1.138   0.118  1.00  0.00    -0.000 A 
HETATM   19  C   UNL     1       2.005   2.042   0.992  1.00  0.00     0.000 A 
HETATM   20  C   UNL     1       1.319   3.181   1.409  1.00  0.00    -0.000 A 
HETATM   21  C   UNL     1       0.025   3.419   0.950  1.00  0.00    -0.002 A 
ENDBRANCH  15  16
BRANCH  15  22
HETATM   22  C   UNL     1      -2.393   4.395  -0.764  1.00  0.00    -0.061 A 
HETATM   23  C   UNL     1      -3.701   4.911  -0.801  1.00  0.00    -0.002 A 
HETATM   24  C   UNL     1      -3.922   6.266  -1.099  1.00  0.00    -0.000 A 
HETATM   25  C   UNL     1      -2.849   7.117  -1.382  1.00  0.00     0.000 A 
HETATM   26  C   UNL     1      -1.545   6.613  -1.378  1.00  0.00    -0.000 A 
HETATM   27  C   UNL     1      -1.322   5.273  -1.071  1.00  0.00    -0.002 A 
ENDBRANCH  15  22
ENDBRANCH   1  15
TORSDOF 6
