REMARK  4 active torsions:
REMARK  status: ('A' for Active; 'I' for Inactive)
REMARK       I    between atoms: C_2  and  N_3 
REMARK       I    between atoms: C_2  and  N_15 
REMARK    1  A    between atoms: N_3  and  C_4 
REMARK    2  A    between atoms: C_7  and  C_8 
REMARK    3  A    between atoms: N_18  and  C_19 
REMARK    4  A    between atoms: C_25  and  C_26 
ROOT
HETATM    1  O   UNL     1       0.904   0.317   0.108  1.00  0.00    -0.247 OA
HETATM    2  C   UNL     1       2.048  -0.050  -0.150  1.00  0.00     0.324 C 
HETATM    3  N   UNL     1       2.680  -1.099   0.474  1.00  0.00    -0.295 N 
HETATM    4  N   UNL     1       2.830   0.596  -1.081  1.00  0.00    -0.331 N 
HETATM    5  C   UNL     1       2.482   1.961  -1.520  1.00  0.00     0.147 C 
HETATM    6  C   UNL     1       2.560   2.134  -3.053  1.00  0.00     0.144 C 
HETATM    7  N   UNL     1       3.873   1.614  -3.496  1.00  0.00    -0.363 N 
HETATM    8  C   UNL     1       3.994   0.175  -3.222  1.00  0.00     0.144 C 
HETATM    9  C   UNL     1       4.033   0.011  -1.690  1.00  0.00     0.147 C 
HETATM   10  H   UNL     1       3.633  -0.913   0.748  1.00  0.00     0.172 HD
ENDROOT
BRANCH   3  11
HETATM   11  C   UNL     1       2.027  -1.939   1.370  1.00  0.00     0.108 A 
HETATM   12  C   UNL     1       0.754  -2.427   1.111  1.00  0.00     0.049 A 
HETATM   13  C   UNL     1       0.144  -3.234   2.065  1.00  0.00     0.021 A 
HETATM   14  C   UNL     1       0.814  -3.510   3.259  1.00  0.00     0.063 A 
HETATM   15  C   UNL     1       2.096  -3.001   3.408  1.00  0.00     0.106 A 
HETATM   16  N   UNL     1       2.731  -2.255   2.475  1.00  0.00    -0.351 N 
ATOM     17  HN  UNL     1       3.695  -1.947   2.602  1.00  0.00     0.166 HD
BRANCH  14  18
HETATM   18  C   UNL     1       0.199  -4.307   4.362  1.00  0.00     0.418 C 
HETATM   19  F   UNL     1      -1.028  -4.812   4.053  1.00  0.00    -0.166 F 
HETATM   20  F   UNL     1       0.961  -5.377   4.721  1.00  0.00    -0.166 F 
HETATM   21  F   UNL     1       0.026  -3.576   5.499  1.00  0.00    -0.166 F 
ENDBRANCH  14  18
ENDBRANCH   3  11
BRANCH   7  22
HETATM   22  C   UNL     1       4.499   2.170  -4.588  1.00  0.00     0.118 A 
HETATM   23  N   UNL     1       3.708   2.877  -5.441  1.00  0.00    -0.352 N 
HETATM   24  C   UNL     1       4.262   3.509  -6.499  1.00  0.00     0.089 A 
ATOM     25  HN  UNL     1       2.702   2.929  -5.282  1.00  0.00     0.166 HD
HETATM   26  C   UNL     1       5.608   3.493  -6.780  1.00  0.00     0.018 A 
HETATM   27  C   UNL     1       6.420   2.793  -5.907  1.00  0.00     0.021 A 
HETATM   28  C   UNL     1       5.880   2.132  -4.781  1.00  0.00     0.091 A 
BRANCH  28  29
HETATM   29  C   UNL     1       6.891   1.495  -3.870  1.00  0.00     0.421 C 
HETATM   30  F   UNL     1       6.449   0.981  -2.692  1.00  0.00    -0.166 F 
HETATM   31  F   UNL     1       7.536   0.461  -4.485  1.00  0.00    -0.166 F 
HETATM   32  F   UNL     1       7.877   2.368  -3.509  1.00  0.00    -0.166 F 
ENDBRANCH  28  29
ENDBRANCH   7  22
TORSDOF 4
