REMARK  6 active torsions:
REMARK  status: ('A' for Active; 'I' for Inactive)
REMARK    1  A    between atoms: C_2  and  O_4 
REMARK    2  A    between atoms: C_2  and  C_5 
REMARK    3  A    between atoms: C_10  and  C_11 
REMARK    4  A    between atoms: C_17  and  C_18 
REMARK    5  A    between atoms: C_19  and  C_20 
REMARK    6  A    between atoms: C_23  and  C_24 
ROOT
HETATM    1  C   UNL     1       3.120  -3.063   0.248  1.00  0.00    -0.023 C 
HETATM    2  C   UNL     1       4.405  -2.801  -0.294  1.00  0.00     0.014 C 
HETATM    3  C   UNL     1       4.844  -3.319  -1.509  1.00  0.00     0.033 C 
HETATM    4  C   UNL     1       4.057  -4.279  -2.127  1.00  0.00     0.060 A 
HETATM    5  N   UNL     1       4.312  -4.939  -3.283  1.00  0.00    -0.341 N 
ATOM      6  HN  UNL     1       5.095  -4.778  -3.917  1.00  0.00     0.167 HD
HETATM    7  C   UNL     1       3.355  -5.826  -3.428  1.00  0.00     0.106 A 
HETATM    8  N   UNL     1       2.445  -5.717  -2.392  1.00  0.00    -0.341 N 
HETATM    9  C   UNL     1       2.859  -4.681  -1.562  1.00  0.00     0.061 A 
HETATM   10  C   UNL     1       2.334  -4.049  -0.409  1.00  0.00     0.044 C 
HETATM   11  H   UNL     1       1.645  -6.308  -2.236  1.00  0.00     0.167 HD
ENDROOT
BRANCH   7  12
HETATM   12  C   UNL     1       3.239  -6.758  -4.498  1.00  0.00     0.049 C 
HETATM   13  C   UNL     1       4.110  -6.568  -5.514  1.00  0.00     0.015 C 
BRANCH  13  14
HETATM   14  C   UNL     1       4.269  -7.270  -6.785  1.00  0.00    -0.036 A 
HETATM   15  C   UNL     1       4.686  -6.501  -7.885  1.00  0.00     0.012 A 
HETATM   16  C   UNL     1       4.889  -7.079  -9.138  1.00  0.00     0.017 A 
HETATM   17  C   UNL     1       4.696  -8.452  -9.318  1.00  0.00     0.048 A 
HETATM   18  C   UNL     1       4.343  -9.234  -8.203  1.00  0.00     0.017 A 
HETATM   19  C   UNL     1       4.134  -8.649  -6.945  1.00  0.00     0.012 A 
BRANCH  17  20
HETATM   20  C   UNL     1       4.851  -9.082 -10.680  1.00  0.00     0.417 C 
HETATM   21  F   UNL     1       5.149  -8.187 -11.665  1.00  0.00    -0.166 F 
HETATM   22  F   UNL     1       5.835 -10.022 -10.720  1.00  0.00    -0.166 F 
HETATM   23  F   UNL     1       3.713  -9.711 -11.087  1.00  0.00    -0.166 F 
ENDBRANCH  17  20
ENDBRANCH  13  14
ENDBRANCH   7  12
BRANCH   1  24
HETATM   24  C   UNL     1       2.630  -2.149   1.352  1.00  0.00    -0.017 A 
HETATM   25  C   UNL     1       1.733  -2.420   2.422  1.00  0.00    -0.014 A 
HETATM   26  C   UNL     1       1.288  -1.310   3.214  1.00  0.00     0.011 A 
HETATM   27  C   UNL     1       1.748  -0.005   3.051  1.00  0.00     0.001 A 
HETATM   28  C   UNL     1       2.696   0.246   2.091  1.00  0.00     0.001 A 
HETATM   29  C   UNL     1       3.098  -0.795   1.259  1.00  0.00     0.013 A 
BRANCH  25  30
HETATM   30  C   UNL     1       1.171  -3.785   2.863  1.00  0.00     0.078 C 
HETATM   31  C   UNL     1      -0.346  -3.825   2.610  1.00  0.00     0.051 C 
HETATM   32  C   UNL     1       1.465  -4.067   4.353  1.00  0.00     0.051 C 
BRANCH  30  33
HETATM   33  O   UNL     1       1.760  -4.886   2.177  1.00  0.00    -0.386 OA
HETATM   34  H   UNL     1       1.352  -5.702   2.507  1.00  0.00     0.211 HD
ENDBRANCH  30  33
ENDBRANCH  25  30
ENDBRANCH   1  24
TORSDOF 6
