REMARK  10 active torsions:
REMARK  status: ('A' for Active; 'I' for Inactive)
REMARK    1  A    between atoms: C_2  and  O_3 
REMARK    2  A    between atoms: O_3  and  C_4 
REMARK    3  A    between atoms: C_4  and  C_6 
REMARK    4  A    between atoms: C_7  and  C_8 
REMARK    5  A    between atoms: C_17  and  C_18 
REMARK    6  A    between atoms: C_18  and  S_20 
REMARK    7  A    between atoms: S_20  and  C_21 
REMARK    8  A    between atoms: C_21  and  C_22 
REMARK    9  A    between atoms: C_22  and  O_23 
REMARK   10  A    between atoms: C_25  and  C_26 
ROOT
HETATM    1  C   UNL     1       4.888   2.908   0.546  1.00  0.00     0.053 C 
HETATM    2  C   UNL     1       5.898   3.286  -0.274  1.00  0.00     0.055 C 
HETATM    3  N   UNL     1       6.325   4.593  -0.302  1.00  0.00    -0.358 N 
HETATM    4  C   UNL     1       5.729   5.644   0.381  1.00  0.00     0.017 C 
HETATM    5  C   UNL     1       6.372   6.984   0.078  1.00  0.00     0.069 C 
HETATM    6  C   UNL     1       4.699   5.412   1.241  1.00  0.00     0.030 C 
HETATM    7  C   UNL     1       4.245   3.937   1.509  1.00  0.00     0.066 C 
HETATM    8  H   UNL     1       7.111   4.792  -0.918  1.00  0.00     0.166 HD
ENDROOT
BRANCH   6   9
HETATM    9  C   UNL     1       4.064   6.577   1.988  1.00  0.00     0.217 C 
HETATM   10  O   UNL     1       4.126   7.735   1.595  1.00  0.00    -0.280 OA
BRANCH   9  11
HETATM   11  S   UNL     1       3.274   6.247   3.530  1.00  0.00    -0.085 SA
BRANCH  11  12
HETATM   12  C   UNL     1       1.841   7.390   3.506  1.00  0.00     0.108 C 
BRANCH  12  13
HETATM   13  C   UNL     1       0.963   7.400   2.249  1.00  0.00     0.177 C 
BRANCH  13  14
HETATM   14  O   UNL     1       0.298   6.147   2.079  1.00  0.00    -0.395 OA
HETATM   15  C   UNL     1      -0.513   6.139   0.907  1.00  0.00     0.201 C 
ENDBRANCH  13  14
ENDBRANCH  12  13
ENDBRANCH  11  12
ENDBRANCH   9  11
ENDBRANCH   6   9
BRANCH   7  16
HETATM   16  C   UNL     1       2.719   3.724   1.683  1.00  0.00     0.010 C 
HETATM   17  C   UNL     1       1.854   3.939   0.463  1.00  0.00     0.006 C 
ENDBRANCH   7  16
BRANCH   1  18
HETATM   18  C   UNL     1       4.494   1.467   0.554  1.00  0.00     0.292 C 
HETATM   19  O   UNL     1       5.232   0.520   0.303  1.00  0.00    -0.259 OA
BRANCH  18  20
HETATM   20  O   UNL     1       3.207   1.317   0.900  1.00  0.00    -0.318 OA
BRANCH  20  21
HETATM   21  C   UNL     1       2.678  -0.009   0.960  1.00  0.00     0.174 C 
HETATM   22  C   UNL     1       3.172  -0.743   2.190  1.00  0.00     0.034 C 
ENDBRANCH  20  21
ENDBRANCH  18  20
ENDBRANCH   1  18
BRANCH   2  23
HETATM   23  C   UNL     1       6.626   2.388  -1.197  1.00  0.00    -0.009 A 
HETATM   24  C   UNL     1       6.164   2.181  -2.508  1.00  0.00     0.014 A 
HETATM   25  C   UNL     1       6.828   1.297  -3.356  1.00  0.00     0.001 A 
HETATM   26  C   UNL     1       7.965   0.622  -2.918  1.00  0.00     0.000 A 
HETATM   27  C   UNL     1       8.444   0.832  -1.625  1.00  0.00     0.001 A 
HETATM   28  C   UNL     1       7.779   1.711  -0.767  1.00  0.00     0.014 A 
ENDBRANCH   2  23
TORSDOF 10
