REMARK  19 active torsions:
REMARK  status: ('A' for Active; 'I' for Inactive)
REMARK    1  A    between atoms: C_2  and  C_3 
REMARK    2  A    between atoms: C_3  and  C_4 
REMARK    3  A    between atoms: C_4  and  C_5 
REMARK    4  A    between atoms: C_5  and  C_6 
REMARK    5  A    between atoms: C_7  and  C_8 
REMARK    6  A    between atoms: C_8  and  C_9 
REMARK    7  A    between atoms: C_10  and  C_11 
REMARK    8  A    between atoms: C_11  and  C_12 
REMARK    9  A    between atoms: C_13  and  C_14 
REMARK   10  A    between atoms: C_14  and  C_15 
REMARK   11  A    between atoms: C_16  and  C_17 
REMARK   12  A    between atoms: C_17  and  C_18 
REMARK   13  A    between atoms: C_18  and  C_19 
REMARK   14  A    between atoms: C_19  and  C_20 
REMARK       I    between atoms: C_20  and  N_22 
REMARK   15  A    between atoms: N_22  and  C_23 
REMARK   16  A    between atoms: C_23  and  C_24 
REMARK   17  A    between atoms: C_24  and  C_25 
REMARK   18  A    between atoms: C_28  and  O_29 
REMARK   19  A    between atoms: C_30  and  O_31 
ROOT
HETATM    1  C   UNL     1      16.108   1.595 -12.445  1.00  0.00     0.013 C 
ENDROOT
BRANCH   1   2
HETATM    2  C   UNL     1      16.596   2.543 -11.345  1.00  0.00     0.027 C 
BRANCH   2   3
HETATM    3  C   UNL     1      16.100   2.134  -9.989  1.00  0.00    -0.030 C 
HETATM    4  C   UNL     1      15.310   2.903  -9.224  1.00  0.00    -0.027 C 
BRANCH   4   5
HETATM    5  C   UNL     1      14.783   2.473  -7.889  1.00  0.00     0.053 C 
BRANCH   5   6
HETATM    6  C   UNL     1      13.284   2.471  -7.878  1.00  0.00    -0.027 C 
HETATM    7  C   UNL     1      12.550   3.224  -7.042  1.00  0.00    -0.027 C 
BRANCH   7   8
HETATM    8  C   UNL     1      11.053   3.217  -7.008  1.00  0.00     0.053 C 
BRANCH   8   9
HETATM    9  C   UNL     1      10.507   4.584  -7.286  1.00  0.00    -0.027 C 
HETATM   10  C   UNL     1       9.736   5.263  -6.423  1.00  0.00    -0.027 C 
BRANCH  10  11
HETATM   11  C   UNL     1       9.181   6.624  -6.705  1.00  0.00     0.053 C 
BRANCH  11  12
HETATM   12  C   UNL     1       7.683   6.601  -6.668  1.00  0.00    -0.027 C 
HETATM   13  C   UNL     1       6.968   7.352  -5.819  1.00  0.00    -0.030 C 
BRANCH  13  14
HETATM   14  C   UNL     1       5.470   7.358  -5.756  1.00  0.00     0.027 C 
BRANCH  14  15
HETATM   15  C   UNL     1       4.927   8.747  -6.056  1.00  0.00     0.004 C 
BRANCH  15  16
HETATM   16  C   UNL     1       3.403   8.730  -6.029  1.00  0.00    -0.000 C 
BRANCH  16  17
HETATM   17  C   UNL     1       2.841  10.113  -6.329  1.00  0.00    -0.005 C 
HETATM   18  C   UNL     1       1.324  10.088  -6.301  1.00  0.00     0.005 C 
ENDBRANCH  16  17
ENDBRANCH  15  16
ENDBRANCH  14  15
ENDBRANCH  13  14
ENDBRANCH  11  12
ENDBRANCH  10  11
ENDBRANCH   8   9
ENDBRANCH   7   8
ENDBRANCH   5   6
ENDBRANCH   4   5
ENDBRANCH   2   3
ENDBRANCH   1   2
BRANCH   1  19
HETATM   19  C   UNL     1      14.583   1.554 -12.541  1.00  0.00     0.103 C 
BRANCH  19  20
HETATM   20  C   UNL     1      14.128   0.581 -13.604  1.00  0.00     0.217 C 
HETATM   21  O   UNL     1      13.937  -0.603 -13.356  1.00  0.00    -0.274 OA
HETATM   22  N   UNL     1      13.974   1.123 -14.863  1.00  0.00    -0.361 N 
HETATM   23  H   UNL     1      14.153   2.107 -15.015  1.00  0.00     0.162 HD
BRANCH  22  24
HETATM   24  C   UNL     1      13.540   0.279 -15.963  1.00  0.00     0.127 C 
BRANCH  24  25
HETATM   25  C   UNL     1      13.392   1.035 -17.283  1.00  0.00     0.058 C 
BRANCH  25  26
HETATM   26  C   UNL     1      12.955   0.123 -18.405  1.00  0.00    -0.054 A 
HETATM   27  C   UNL     1      11.593  -0.097 -18.674  1.00  0.00     0.010 A 
HETATM   28  C   UNL     1      11.194  -0.962 -19.702  1.00  0.00     0.040 A 
HETATM   29  C   UNL     1      12.164  -1.610 -20.460  1.00  0.00     0.098 A 
HETATM   30  C   UNL     1      13.516  -1.396 -20.195  1.00  0.00     0.099 A 
HETATM   31  C   UNL     1      13.916  -0.546 -19.176  1.00  0.00     0.046 A 
BRANCH  29  32
HETATM   32  O   UNL     1      11.837  -2.468 -21.472  1.00  0.00    -0.358 OA
HETATM   33  H   UNL     1      10.866  -2.525 -21.523  1.00  0.00     0.217 HD
ENDBRANCH  29  32
BRANCH  30  34
HETATM   34  O   UNL     1      14.473  -2.026 -20.936  1.00  0.00    -0.358 OA
HETATM   35  H   UNL     1      13.977  -2.556 -21.590  1.00  0.00     0.217 HD
ENDBRANCH  30  34
ENDBRANCH  25  26
ENDBRANCH  24  25
ENDBRANCH  22  24
ENDBRANCH  19  20
ENDBRANCH   1  19
TORSDOF 19
