REMARK  19 active torsions:
REMARK  status: ('A' for Active; 'I' for Inactive)
REMARK    1  A    between atoms: C_2  and  C_3 
REMARK    2  A    between atoms: C_3  and  C_4 
REMARK    3  A    between atoms: C_4  and  C_5 
REMARK    4  A    between atoms: C_5  and  C_6 
REMARK    5  A    between atoms: C_6  and  C_7 
REMARK    6  A    between atoms: C_7  and  C_8 
REMARK    7  A    between atoms: C_8  and  C_9 
REMARK    8  A    between atoms: C_10  and  C_11 
REMARK    9  A    between atoms: C_11  and  C_12 
REMARK   10  A    between atoms: C_12  and  C_13 
REMARK   11  A    between atoms: C_13  and  C_14 
REMARK   12  A    between atoms: C_14  and  C_15 
REMARK   13  A    between atoms: C_15  and  C_16 
REMARK   14  A    between atoms: C_16  and  C_17 
REMARK   15  A    between atoms: C_17  and  C_18 
REMARK       I    between atoms: C_18  and  N_20 
REMARK   16  A    between atoms: N_20  and  C_21 
REMARK   17  A    between atoms: C_21  and  C_22 
REMARK   18  A    between atoms: C_25  and  O_26 
REMARK   19  A    between atoms: C_27  and  O_28 
ROOT
HETATM    1  C   UNL     1      16.549  -7.842  -2.701  1.00  0.00     0.009 C 
ENDROOT
BRANCH   1   2
HETATM    2  C   UNL     1      15.024  -7.823  -2.644  1.00  0.00     0.000 C 
BRANCH   2   3
HETATM    3  C   UNL     1      14.411  -7.931  -4.036  1.00  0.00     0.000 C 
BRANCH   3   4
HETATM    4  C   UNL     1      12.882  -7.839  -4.015  1.00  0.00     0.000 C 
BRANCH   4   5
HETATM    5  C   UNL     1      12.323  -6.546  -3.411  1.00  0.00     0.004 C 
BRANCH   5   6
HETATM    6  C   UNL     1      12.816  -5.301  -4.146  1.00  0.00     0.027 C 
BRANCH   6   7
HETATM    7  C   UNL     1      12.322  -4.051  -3.486  1.00  0.00    -0.031 C 
HETATM    8  C   UNL     1      13.146  -3.132  -2.965  1.00  0.00    -0.031 C 
BRANCH   8   9
HETATM    9  C   UNL     1      12.671  -1.868  -2.326  1.00  0.00     0.027 C 
BRANCH   9  10
HETATM   10  C   UNL     1      13.168  -0.656  -3.111  1.00  0.00     0.004 C 
BRANCH  10  11
HETATM   11  C   UNL     1      12.655   0.631  -2.476  1.00  0.00     0.000 C 
BRANCH  11  12
HETATM   12  C   UNL     1      13.146   1.852  -3.245  1.00  0.00     0.000 C 
BRANCH  12  13
HETATM   13  C   UNL     1      12.626   3.134  -2.603  1.00  0.00     0.000 C 
BRANCH  13  14
HETATM   14  C   UNL     1      13.114   4.359  -3.369  1.00  0.00    -0.000 C 
BRANCH  14  15
HETATM   15  C   UNL     1      12.598   5.646  -2.732  1.00  0.00    -0.005 C 
HETATM   16  C   UNL     1      13.086   6.866  -3.495  1.00  0.00     0.005 C 
ENDBRANCH  14  15
ENDBRANCH  13  14
ENDBRANCH  12  13
ENDBRANCH  11  12
ENDBRANCH  10  11
ENDBRANCH   9  10
ENDBRANCH   8   9
ENDBRANCH   6   7
ENDBRANCH   5   6
ENDBRANCH   4   5
ENDBRANCH   3   4
ENDBRANCH   2   3
ENDBRANCH   1   2
BRANCH   1  17
HETATM   17  C   UNL     1      17.101  -7.768  -1.285  1.00  0.00     0.103 C 
BRANCH  17  18
HETATM   18  C   UNL     1      18.611  -7.767  -1.224  1.00  0.00     0.217 C 
HETATM   19  O   UNL     1      19.333  -7.791  -2.218  1.00  0.00    -0.274 OA
HETATM   20  N   UNL     1      19.176  -7.744   0.021  1.00  0.00    -0.357 N 
HETATM   21  H   UNL     1      20.186  -7.684   0.003  1.00  0.00     0.162 HD
BRANCH  20  22
HETATM   22  C   UNL     1      18.496  -7.607   1.294  1.00  0.00     0.161 C 
BRANCH  22  23
HETATM   23  C   UNL     1      18.238  -6.161   1.630  1.00  0.00    -0.038 A 
HETATM   24  C   UNL     1      19.308  -5.286   1.837  1.00  0.00     0.012 A 
HETATM   25  C   UNL     1      19.075  -3.940   2.114  1.00  0.00     0.040 A 
HETATM   26  C   UNL     1      17.769  -3.446   2.188  1.00  0.00     0.099 A 
HETATM   27  C   UNL     1      16.679  -4.301   1.995  1.00  0.00     0.101 A 
HETATM   28  C   UNL     1      16.929  -5.656   1.724  1.00  0.00     0.048 A 
BRANCH  26  29
HETATM   29  O   UNL     1      17.599  -2.114   2.447  1.00  0.00    -0.358 OA
HETATM   30  H   UNL     1      18.468  -1.685   2.487  1.00  0.00     0.217 HD
ENDBRANCH  26  29
BRANCH  27  31
HETATM   31  O   UNL     1      15.344  -3.998   2.027  1.00  0.00    -0.353 OA
HETATM   32  C   UNL     1      14.969  -2.651   2.280  1.00  0.00     0.210 C 
ENDBRANCH  27  31
ENDBRANCH  22  23
ENDBRANCH  20  22
ENDBRANCH  17  18
ENDBRANCH   1  17
TORSDOF 19
