REMARK  22 active torsions:
REMARK  status: ('A' for Active; 'I' for Inactive)
REMARK    1  A    between atoms: C_2  and  C_3 
REMARK    2  A    between atoms: C_3  and  C_4 
REMARK    3  A    between atoms: C_4  and  C_5 
REMARK    4  A    between atoms: C_5  and  C_6 
REMARK    5  A    between atoms: C_6  and  C_7 
REMARK    6  A    between atoms: C_7  and  C_8 
REMARK    7  A    between atoms: C_7  and  C_31 
REMARK    8  A    between atoms: C_8  and  C_9 
REMARK    9  A    between atoms: C_10  and  C_11 
REMARK   10  A    between atoms: C_11  and  C_12 
REMARK   11  A    between atoms: C_12  and  C_13 
REMARK   12  A    between atoms: C_13  and  C_14 
REMARK   13  A    between atoms: C_14  and  C_15 
REMARK   14  A    between atoms: C_15  and  C_16 
REMARK   15  A    between atoms: C_16  and  C_17 
REMARK   16  A    between atoms: C_17  and  C_18 
REMARK       I    between atoms: C_18  and  N_20 
REMARK   17  A    between atoms: N_20  and  C_21 
REMARK   18  A    between atoms: C_21  and  C_22 
REMARK   19  A    between atoms: C_25  and  O_26 
REMARK   20  A    between atoms: C_27  and  O_28 
REMARK   21  A    between atoms: C_31  and  C_33 
REMARK   22  A    between atoms: C_33  and  C_34 
ROOT
HETATM    1  C   UNL     1       2.377  -7.029   2.703  1.00  0.00     0.004 C 
ENDROOT
BRANCH   1   2
HETATM    2  C   UNL     1       2.935  -5.754   2.078  1.00  0.00     0.027 C 
BRANCH   2   3
HETATM    3  C   UNL     1       4.429  -5.728   2.021  1.00  0.00    -0.031 C 
HETATM    4  C   UNL     1       5.146  -4.801   2.667  1.00  0.00    -0.030 C 
BRANCH   4   5
HETATM    5  C   UNL     1       6.608  -4.564   2.436  1.00  0.00     0.039 C 
BRANCH   5   6
HETATM    6  C   UNL     1       6.875  -3.146   1.889  1.00  0.00     0.059 C 
BRANCH   6   7
HETATM    7  C   UNL     1       6.528  -2.026   2.902  1.00  0.00     0.012 C 
BRANCH   7   8
HETATM    8  C   UNL     1       7.152  -2.156   4.291  1.00  0.00     0.001 C 
BRANCH   8   9
HETATM    9  C   UNL     1       8.679  -2.107   4.275  1.00  0.00     0.000 C 
BRANCH   9  10
HETATM   10  C   UNL     1       9.223  -2.260   5.694  1.00  0.00    -0.000 C 
BRANCH  10  11
HETATM   11  C   UNL     1      10.746  -2.189   5.728  1.00  0.00    -0.005 C 
HETATM   12  C   UNL     1      11.261  -2.347   7.149  1.00  0.00     0.005 C 
ENDBRANCH  10  11
ENDBRANCH   9  10
ENDBRANCH   8   9
ENDBRANCH   7   8
ENDBRANCH   6   7
BRANCH   6  13
HETATM   13  C   UNL     1       6.104  -2.895   0.579  1.00  0.00     0.135 C 
HETATM   14  O   UNL     1       5.314  -1.951   0.461  1.00  0.00    -0.297 OA
BRANCH  13  15
HETATM   15  C   UNL     1       6.381  -3.794  -0.611  1.00  0.00     0.117 C 
BRANCH  15  16
HETATM   16  C   UNL     1       7.520  -3.312  -1.472  1.00  0.00    -0.051 A 
HETATM   17  C   UNL     1       8.646  -4.117  -1.682  1.00  0.00     0.007 A 
HETATM   18  C   UNL     1       9.669  -3.692  -2.531  1.00  0.00     0.001 A 
HETATM   19  C   UNL     1       9.573  -2.462  -3.181  1.00  0.00     0.000 A 
HETATM   20  C   UNL     1       8.461  -1.651  -2.971  1.00  0.00     0.001 A 
HETATM   21  C   UNL     1       7.440  -2.071  -2.120  1.00  0.00     0.007 A 
ENDBRANCH  15  16
ENDBRANCH  13  15
ENDBRANCH   6  13
ENDBRANCH   5   6
ENDBRANCH   4   5
ENDBRANCH   2   3
ENDBRANCH   1   2
BRANCH   1  22
HETATM   22  C   UNL     1       0.846  -7.023   2.730  1.00  0.00     0.000 C 
BRANCH  22  23
HETATM   23  C   UNL     1       0.259  -6.925   1.324  1.00  0.00     0.000 C 
BRANCH  23  24
HETATM   24  C   UNL     1      -1.260  -6.929   1.324  1.00  0.00     0.000 C 
BRANCH  24  25
HETATM   25  C   UNL     1      -1.766  -6.805  -0.113  1.00  0.00     0.009 C 
BRANCH  25  26
HETATM   26  C   UNL     1      -3.282  -6.814  -0.131  1.00  0.00     0.103 C 
BRANCH  26  27
HETATM   27  C   UNL     1      -3.857  -6.724  -1.527  1.00  0.00     0.217 C 
HETATM   28  O   UNL     1      -3.177  -6.630  -2.546  1.00  0.00    -0.274 OA
HETATM   29  N   UNL     1      -5.221  -6.758  -1.627  1.00  0.00    -0.357 N 
HETATM   30  H   UNL     1      -5.567  -6.652  -2.572  1.00  0.00     0.162 HD
BRANCH  29  31
HETATM   31  C   UNL     1      -6.167  -6.731  -0.532  1.00  0.00     0.161 C 
BRANCH  31  32
HETATM   32  C   UNL     1      -6.366  -5.347   0.037  1.00  0.00    -0.038 A 
HETATM   33  C   UNL     1      -6.453  -4.222  -0.795  1.00  0.00     0.012 A 
HETATM   34  C   UNL     1      -6.672  -2.955  -0.254  1.00  0.00     0.040 A 
HETATM   35  C   UNL     1      -6.814  -2.808   1.124  1.00  0.00     0.099 A 
HETATM   36  C   UNL     1      -6.725  -3.912   1.982  1.00  0.00     0.101 A 
HETATM   37  C   UNL     1      -6.505  -5.178   1.428  1.00  0.00     0.048 A 
BRANCH  35  38
HETATM   38  O   UNL     1      -7.047  -1.566   1.653  1.00  0.00    -0.358 OA
HETATM   39  H   UNL     1      -7.116  -0.923   0.931  1.00  0.00     0.217 HD
ENDBRANCH  35  38
BRANCH  36  40
HETATM   40  O   UNL     1      -6.873  -3.655   3.320  1.00  0.00    -0.353 OA
HETATM   41  C   UNL     1      -6.738  -4.745   4.218  1.00  0.00     0.210 C 
ENDBRANCH  36  40
ENDBRANCH  31  32
ENDBRANCH  29  31
ENDBRANCH  26  27
ENDBRANCH  25  26
ENDBRANCH  24  25
ENDBRANCH  23  24
ENDBRANCH  22  23
ENDBRANCH   1  22
TORSDOF 22
