REMARK  15 active torsions:
REMARK  status: ('A' for Active; 'I' for Inactive)
REMARK    1  A    between atoms: O_2  and  C_3 
REMARK    2  A    between atoms: C_5  and  C_6 
REMARK    3  A    between atoms: C_6  and  C_7 
REMARK    4  A    between atoms: C_7  and  O_9 
REMARK    5  A    between atoms: O_9  and  C_10 
REMARK    6  A    between atoms: C_10  and  C_11 
REMARK    7  A    between atoms: C_18  and  O_19 
REMARK    8  A    between atoms: O_19  and  C_20 
REMARK    9  A    between atoms: C_23  and  O_24 
REMARK   10  A    between atoms: O_24  and  C_25 
REMARK   11  A    between atoms: C_25  and  C_27 
REMARK   12  A    between atoms: C_27  and  C_28 
REMARK   13  A    between atoms: C_36  and  O_37 
REMARK   14  A    between atoms: C_44  and  O_45 
REMARK   15  A    between atoms: C_49  and  O_50 
ROOT
HETATM    1  C   UNL     1      -1.541   7.048  -0.597  1.00  0.00    -0.050 C 
HETATM    2  C   UNL     1      -1.876   8.123   0.386  1.00  0.00    -0.013 C 
HETATM    3  C   UNL     1      -1.833   8.126   2.296  1.00  0.00     0.052 C 
HETATM    4  C   UNL     1      -2.408   9.435   3.255  1.00  0.00     0.046 A 
HETATM    5  C   UNL     1      -1.670  10.692   3.716  1.00  0.00    -0.005 A 
HETATM    6  C   UNL     1      -0.562  11.057   2.769  1.00  0.00     0.018 C 
HETATM    7  C   UNL     1      -2.331  11.951   4.260  1.00  0.00     0.018 C 
HETATM    8  C   UNL     1      -1.847   9.513   4.716  1.00  0.00     0.110 A 
HETATM    9  C   UNL     1      -0.898   8.413   5.045  1.00  0.00     0.174 C 
HETATM   10  C   UNL     1      -1.685   7.023   4.794  1.00  0.00     0.050 C 
HETATM   11  C   UNL     1      -3.217   6.940   4.950  1.00  0.00     0.016 C 
HETATM   12  C   UNL     1      -1.270   6.647   3.398  1.00  0.00     0.086 C 
HETATM   13  C   UNL     1      -1.589   4.968   2.744  1.00  0.00     0.131 A 
HETATM   14  C   UNL     1      -2.959   4.829   2.241  1.00  0.00    -0.000 C 
HETATM   15  C   UNL     1      -2.970   5.829   1.382  1.00  0.00    -0.029 C 
HETATM   16  C   UNL     1      -4.260   6.558   1.075  1.00  0.00     0.051 C 
HETATM   17  C   UNL     1      -1.242   5.977   1.331  1.00  0.00     0.099 A 
HETATM   18  O   UNL     1      -0.313   6.815   1.375  1.00  0.00    -0.304 OA
HETATM   19  C   UNL     1      -0.737   4.688   1.337  1.00  0.00     0.134 A 
HETATM   20  C   UNL     1      -0.789   5.392  -0.237  1.00  0.00     0.141 A 
ENDROOT
BRANCH   1  21
HETATM   21  C   UNL     1      -1.712   6.803  -2.098  1.00  0.00     0.213 C 
BRANCH  21  22
HETATM   22  O   UNL     1      -2.314   7.772  -2.922  1.00  0.00    -0.317 OA
BRANCH  22  23
HETATM   23  C   UNL     1      -3.487   7.373  -3.487  1.00  0.00     0.263 C 
HETATM   24  O   UNL     1      -4.275   6.604  -2.952  1.00  0.00    -0.265 OA
BRANCH  23  25
HETATM   25  C   UNL     1      -3.713   7.859  -4.920  1.00  0.00     0.149 C 
BRANCH  25  26
HETATM   26  C   UNL     1      -2.730   8.840  -5.517  1.00  0.00    -0.046 C 
HETATM   27  C   UNL     1      -2.072   9.768  -4.713  1.00  0.00     0.047 C 
HETATM   28  C   UNL     1      -0.997  10.514  -5.179  1.00  0.00     0.101 C 
HETATM   29  C   UNL     1      -0.726  10.513  -6.545  1.00  0.00     0.099 C 
HETATM   30  C   UNL     1      -1.479   9.718  -7.412  1.00  0.00     0.040 C 
HETATM   31  C   UNL     1      -2.455   8.857  -6.896  1.00  0.00     0.010 C 
BRANCH  28  32
HETATM   32  O   UNL     1      -0.196  11.234  -4.331  1.00  0.00    -0.353 OA
HETATM   33  C   UNL     1       0.001  10.619  -3.059  1.00  0.00     0.210 C 
ENDBRANCH  28  32
BRANCH  29  34
HETATM   34  O   UNL     1       0.293  11.288  -7.021  1.00  0.00    -0.358 OA
HETATM   35  H   UNL     1       0.385  11.139  -7.974  1.00  0.00     0.217 HD
ENDBRANCH  29  34
ENDBRANCH  25  26
ENDBRANCH  23  25
ENDBRANCH  22  23
ENDBRANCH  21  22
ENDBRANCH   1  21
BRANCH  19  36
HETATM   36  O   UNL     1       0.621   4.529   1.706  1.00  0.00    -0.381 OA
HETATM   37  H   UNL     1       0.866   5.401   2.103  1.00  0.00     0.211 HD
ENDBRANCH  19  36
BRANCH  12  38
HETATM   38  O   UNL     1       0.192   6.425   3.579  1.00  0.00    -0.387 OA
HETATM   39  H   UNL     1       0.318   5.785   4.301  1.00  0.00     0.210 HD
ENDBRANCH  12  38
BRANCH   8  40
HETATM   40  O   UNL     1      -2.859   9.668   5.822  1.00  0.00    -0.306 OA
BRANCH  40  41
HETATM   41  C   UNL     1      -2.413   9.649   7.134  1.00  0.00     0.255 C 
HETATM   42  C   UNL     1      -3.432   9.152   8.131  1.00  0.00     0.126 C 
HETATM   43  O   UNL     1      -1.271   9.907   7.497  1.00  0.00    -0.266 OA
ENDBRANCH  40  41
ENDBRANCH   8  40
BRANCH   9  44
HETATM   44  O   UNL     1       0.279   8.596   4.215  1.00  0.00    -0.312 OA
BRANCH  44  45
HETATM   45  C   UNL     1       1.254   9.463   4.545  1.00  0.00     0.263 C 
HETATM   46  O   UNL     1       1.267  10.165   5.558  1.00  0.00    -0.265 OA
BRANCH  45  47
HETATM   47  C   UNL     1       2.274   9.568   3.418  1.00  0.00     0.149 C 
BRANCH  47  48
HETATM   48  C   UNL     1       3.638   9.184   3.905  1.00  0.00    -0.049 A 
HETATM   49  C   UNL     1       4.067   7.857   3.793  1.00  0.00     0.007 A 
HETATM   50  C   UNL     1       5.264   7.463   4.384  1.00  0.00     0.001 A 
HETATM   51  C   UNL     1       6.038   8.395   5.083  1.00  0.00     0.000 A 
HETATM   52  C   UNL     1       5.628   9.723   5.169  1.00  0.00     0.001 A 
HETATM   53  C   UNL     1       4.433  10.122   4.577  1.00  0.00     0.007 A 
ENDBRANCH  47  48
ENDBRANCH  45  47
ENDBRANCH  44  45
ENDBRANCH   9  44
TORSDOF 15
