REMARK  11 active torsions:
REMARK  status: ('A' for Active; 'I' for Inactive)
REMARK    1  A    between atoms: C_2  and  C_4 
REMARK    2  A    between atoms: C_10  and  C_11 
REMARK    3  A    between atoms: C_11  and  C_12 
REMARK    4  A    between atoms: C_22  and  C_23 
REMARK    5  A    between atoms: C_23  and  O_24 
REMARK    6  A    between atoms: O_24  and  C_25 
REMARK    7  A    between atoms: C_25  and  C_27 
REMARK    8  A    between atoms: C_27  and  C_28 
REMARK    9  A    between atoms: C_31  and  O_32 
REMARK   10  A    between atoms: C_33  and  O_34 
REMARK   11  A    between atoms: C_38  and  O_39 
ROOT
HETATM    1  C   UNL     1       5.715  -6.687  -0.995  1.00  0.00     0.116 C 
HETATM    2  C   UNL     1       6.742  -5.824  -0.240  1.00  0.00     0.053 C 
HETATM    3  C   UNL     1       6.799  -6.088   1.244  1.00  0.00     0.020 C 
HETATM    4  C   UNL     1       5.715  -5.356   2.088  1.00  0.00     0.013 C 
HETATM    5  C   UNL     1       6.811  -7.604   1.565  1.00  0.00     0.083 C 
HETATM    6  O   UNL     1       5.417  -7.988   1.678  1.00  0.00    -0.320 OA
HETATM    7  C   UNL     1       4.715  -8.236   0.386  1.00  0.00     0.288 C 
HETATM    8  O   UNL     1       5.268  -9.130  -0.537  1.00  0.00    -0.323 OA
HETATM    9  C   UNL     1       6.414  -8.348  -0.842  1.00  0.00     0.173 C 
HETATM   10  C   UNL     1       7.283  -8.609   0.509  1.00  0.00     0.054 C 
HETATM   11  C   UNL     1       6.928 -10.009   1.263  1.00  0.00     0.017 C 
HETATM   12  C   UNL     1       7.823 -10.694   1.991  1.00  0.00     0.014 C 
HETATM   13  C   UNL     1       7.934 -10.269   3.447  1.00  0.00     0.053 C 
HETATM   14  C   UNL     1       8.576  -8.888   3.421  1.00  0.00     0.125 C 
HETATM   15  C   UNL     1       8.942  -8.367   4.799  1.00  0.00     0.165 C 
HETATM   16  O   UNL     1       9.598  -8.982   5.630  1.00  0.00    -0.294 OA
HETATM   17  C   UNL     1       8.627  -6.904   4.931  1.00  0.00     0.055 C 
HETATM   18  C   UNL     1       9.919  -6.137   4.682  1.00  0.00     0.018 C 
HETATM   19  C   UNL     1       7.573  -6.821   4.086  1.00  0.00     0.023 C 
HETATM   20  C   UNL     1       7.802  -7.676   2.838  1.00  0.00     0.064 C 
HETATM   21  O   UNL     1       4.593  -7.021  -0.193  1.00  0.00    -0.314 OA
ENDROOT
BRANCH  12  22
HETATM   22  C   UNL     1       9.070 -11.233   1.378  1.00  0.00     0.183 C 
BRANCH  22  23
HETATM   23  O   UNL     1       8.719 -12.303   0.497  1.00  0.00    -0.321 OA
BRANCH  23  24
HETATM   24  C   UNL     1       8.799 -13.545   1.045  1.00  0.00     0.263 C 
HETATM   25  O   UNL     1       9.105 -13.800   2.202  1.00  0.00    -0.265 OA
BRANCH  24  26
HETATM   26  C   UNL     1       8.475 -14.580   0.008  1.00  0.00     0.149 C 
BRANCH  26  27
HETATM   27  C   UNL     1       7.013 -14.905  -0.013  1.00  0.00    -0.046 A 
HETATM   28  C   UNL     1       6.184 -14.269  -0.938  1.00  0.00     0.010 A 
HETATM   29  C   UNL     1       4.795 -14.515  -0.944  1.00  0.00     0.040 A 
HETATM   30  C   UNL     1       4.281 -15.476  -0.091  1.00  0.00     0.099 A 
HETATM   31  C   UNL     1       5.116 -16.179   0.814  1.00  0.00     0.101 A 
HETATM   32  C   UNL     1       6.487 -15.907   0.824  1.00  0.00     0.047 A 
BRANCH  30  33
HETATM   33  O   UNL     1       2.930 -15.691  -0.079  1.00  0.00    -0.358 OA
HETATM   34  H   UNL     1       2.500 -15.015  -0.624  1.00  0.00     0.217 HD
ENDBRANCH  30  33
BRANCH  31  35
HETATM   35  O   UNL     1       4.721 -17.146   1.696  1.00  0.00    -0.353 OA
HETATM   36  C   UNL     1       3.623 -17.950   1.281  1.00  0.00     0.210 C 
ENDBRANCH  31  35
ENDBRANCH  26  27
ENDBRANCH  24  26
ENDBRANCH  23  24
ENDBRANCH  22  23
ENDBRANCH  12  22
BRANCH  14  37
HETATM   37  O   UNL     1       9.880  -8.961   2.775  1.00  0.00    -0.382 OA
HETATM   38  H   UNL     1      10.449  -9.496   3.365  1.00  0.00     0.211 HD
ENDBRANCH  14  37
BRANCH   1  39
HETATM   39  C   UNL     1       4.618  -5.541  -1.598  1.00  0.00    -0.056 C 
HETATM   40  C   UNL     1       4.902  -4.241  -1.885  1.00  0.00     0.017 C 
HETATM   41  C   UNL     1       3.038  -5.685  -1.362  1.00  0.00     0.046 C 
ENDBRANCH   1  39
BRANCH   7  42
HETATM   42  C   UNL     1       3.386  -8.678   0.810  1.00  0.00     0.140 C 
BRANCH  42  43
HETATM   43  C   UNL     1       2.214  -9.284   0.123  1.00  0.00    -0.051 A 
HETATM   44  C   UNL     1       1.784  -9.384  -1.188  1.00  0.00     0.007 A 
HETATM   45  C   UNL     1       0.497  -9.958  -1.396  1.00  0.00     0.001 A 
HETATM   46  C   UNL     1      -0.273 -10.409  -0.363  1.00  0.00     0.000 A 
HETATM   47  C   UNL     1       0.079 -10.201   0.974  1.00  0.00     0.001 A 
HETATM   48  C   UNL     1       1.322  -9.619   1.169  1.00  0.00     0.007 A 
ENDBRANCH  42  43
ENDBRANCH   7  42
TORSDOF 11
