REMARK  4 active torsions:
REMARK  status: ('A' for Active; 'I' for Inactive)
REMARK    1  A    between atoms: O_2  and  C_3 
REMARK    2  A    between atoms: C_7  and  N_8 
REMARK       I    between atoms: N_8  and  C_9 
REMARK    3  A    between atoms: C_9  and  C_11 
REMARK    4  A    between atoms: C_12  and  C_13 
ROOT
HETATM    1  N   UNL     1       6.322  -0.912  -2.957  1.00  0.00    -0.324 N 
HETATM    2  C   UNL     1       7.215  -0.578  -3.958  1.00  0.00     0.245 C 
HETATM    3  O   UNL     1       7.026   0.225  -4.864  1.00  0.00    -0.268 OA
HETATM    4  H   UNL     1       6.616  -1.573  -2.250  1.00  0.00     0.169 HD
ENDROOT
BRANCH   2   5
HETATM    5  C   UNL     1       8.521  -1.295  -3.870  1.00  0.00     0.075 C 
HETATM    6  C   UNL     1       9.431  -1.022  -4.823  1.00  0.00     0.017 C 
BRANCH   6   7
HETATM    7  C   UNL     1      10.766  -1.615  -4.964  1.00  0.00    -0.036 A 
HETATM    8  C   UNL     1      11.060  -2.917  -4.547  1.00  0.00     0.013 A 
HETATM    9  C   UNL     1      12.326  -3.467  -4.778  1.00  0.00     0.024 A 
HETATM   10  C   UNL     1      13.300  -2.719  -5.436  1.00  0.00     0.034 A 
HETATM   11 CL   UNL     1      14.849  -3.405  -5.734  1.00  0.00    -0.084 Cl
HETATM   12  C   UNL     1      13.021  -1.427  -5.867  1.00  0.00     0.024 A 
HETATM   13  C   UNL     1      11.757  -0.879  -5.635  1.00  0.00     0.013 A 
ENDBRANCH   6   7
ENDBRANCH   2   5
BRANCH   1  14
HETATM   14  C   UNL     1       5.023  -0.361  -2.794  1.00  0.00     0.037 A 
HETATM   15  C   UNL     1       4.467   0.558  -3.689  1.00  0.00     0.029 A 
HETATM   16  C   UNL     1       3.209   1.112  -3.464  1.00  0.00     0.005 A 
HETATM   17  C   UNL     1       2.477   0.750  -2.339  1.00  0.00     0.037 A 
HETATM   18  C   UNL     1       2.997  -0.181  -1.441  1.00  0.00     0.070 A 
HETATM   19  C   UNL     1       4.265  -0.740  -1.677  1.00  0.00     0.066 A 
BRANCH  18  20
HETATM   20  O   UNL     1       2.366  -0.612  -0.303  1.00  0.00    -0.356 OA
HETATM   21  C   UNL     1       1.105  -0.010  -0.015  1.00  0.00     0.210 C 
ENDBRANCH  18  20
ENDBRANCH   1  14
TORSDOF 4
