REMARK  6 active torsions:
REMARK  status: ('A' for Active; 'I' for Inactive)
REMARK    1  A    between atoms: C_2  and  N_3 
REMARK    2  A    between atoms: N_3  and  C_4 
REMARK    3  A    between atoms: N_3  and  C_17 
REMARK    4  A    between atoms: C_4  and  C_5 
REMARK    5  A    between atoms: C_5  and  N_6 
REMARK       I    between atoms: N_6  and  C_7 
REMARK       I    between atoms: C_7  and  N_9 
REMARK    6  A    between atoms: N_9  and  C_10 
ROOT
HETATM    1  N   UNL     1      -0.332   0.632   3.304  1.00  0.00    -0.341 N 
HETATM    2  C   UNL     1      -0.340   1.855   3.940  1.00  0.00     0.320 C 
HETATM    3  O   UNL     1       0.312   2.811   3.535  1.00  0.00    -0.247 OA
HETATM    4  N   UNL     1      -1.095   1.829   5.092  1.00  0.00    -0.308 N 
HETATM    5  H   UNL     1      -1.237   0.177   3.293  1.00  0.00     0.164 HD
HETATM    6  H   UNL     1      -1.077   0.935   5.569  1.00  0.00     0.170 HD
ENDROOT
BRANCH   1   7
HETATM    7  C   UNL     1       0.502   0.463   2.118  1.00  0.00     0.144 C 
BRANCH   7   8
HETATM    8  C   UNL     1       2.016   0.482   2.433  1.00  0.00     0.142 C 
BRANCH   8   9
HETATM    9  N   UNL     1       2.833   0.212   1.237  1.00  0.00    -0.380 N 
BRANCH   9  10
HETATM   10  C   UNL     1       3.460   1.318   0.488  1.00  0.00     0.118 C 
HETATM   11  C   UNL     1       3.116   2.736   0.904  1.00  0.00     0.026 C 
ENDBRANCH   9  10
BRANCH   9  12
HETATM   12  C   UNL     1       3.118  -1.102   0.834  1.00  0.00     0.030 A 
HETATM   13  C   UNL     1       3.958  -1.374  -0.263  1.00  0.00     0.029 A 
HETATM   14  C   UNL     1       4.248  -2.675  -0.693  1.00  0.00     0.003 A 
HETATM   15  C   UNL     1       3.699  -3.764  -0.031  1.00  0.00     0.007 A 
HETATM   16  C   UNL     1       2.867  -3.553   1.066  1.00  0.00    -0.060 A 
HETATM   17  C   UNL     1       2.264  -4.713   1.802  1.00  0.00     0.048 C 
HETATM   18  C   UNL     1       2.588  -2.234   1.481  1.00  0.00     0.036 A 
ENDBRANCH   9  12
ENDBRANCH   8   9
ENDBRANCH   7   8
ENDBRANCH   1   7
BRANCH   4  19
HETATM   19  C   UNL     1      -1.189   2.969   5.926  1.00  0.00     0.053 A 
HETATM   20  C   UNL     1      -1.413   4.234   5.368  1.00  0.00     0.031 A 
HETATM   21  C   UNL     1      -1.461   5.369   6.179  1.00  0.00     0.002 A 
HETATM   22  C   UNL     1      -1.294   5.249   7.555  1.00  0.00     0.002 A 
HETATM   23  C   UNL     1      -1.098   3.991   8.127  1.00  0.00     0.021 A 
HETATM   24  C   UNL     1      -1.066   2.851   7.317  1.00  0.00     0.037 A 
HETATM   25 BR   UNL     1      -0.732   1.173   8.145  1.00  0.00    -0.049 Br
ENDBRANCH   4  19
TORSDOF 6
