REMARK  4 active torsions:
REMARK  status: ('A' for Active; 'I' for Inactive)
REMARK       I    between atoms: C_2  and  N_3 
REMARK       I    between atoms: C_2  and  N_11 
REMARK    1  A    between atoms: N_3  and  C_4 
REMARK    2  A    between atoms: N_11  and  C_12 
REMARK    3  A    between atoms: N_15  and  C_16 
REMARK    4  A    between atoms: C_19  and  C_20 
ROOT
HETATM    1  C   UNL     1       4.587  -1.240   0.147  1.00  0.00     0.105 C 
HETATM    2  C   UNL     1       5.087  -2.647  -0.164  1.00  0.00     0.046 C 
HETATM    3  C   UNL     1       5.114  -3.351   1.190  1.00  0.00     0.126 C 
HETATM    4  N   UNL     1       5.377  -2.287   2.151  1.00  0.00    -0.365 N 
HETATM    5  C   UNL     1       5.153  -0.964   1.559  1.00  0.00     0.149 C 
ENDROOT
BRANCH   1   6
HETATM    6  N   UNL     1       3.130  -1.163   0.086  1.00  0.00    -0.337 N 
HETATM    7  C   UNL     1       2.354  -0.771  -0.967  1.00  0.00     0.321 C 
HETATM    8  O   UNL     1       1.174  -0.491  -0.754  1.00  0.00    -0.247 OA
HETATM    9  N   UNL     1       2.967  -0.757  -2.189  1.00  0.00    -0.308 N 
HETATM   10  H   UNL     1       3.653  -1.487  -2.319  1.00  0.00     0.170 HD
HETATM   11  H   UNL     1       2.611  -1.220   0.955  1.00  0.00     0.164 HD
BRANCH   9  12
HETATM   12  C   UNL     1       2.331  -0.317  -3.379  1.00  0.00     0.053 A 
HETATM   13  C   UNL     1       1.520   0.824  -3.386  1.00  0.00     0.031 A 
HETATM   14  C   UNL     1       0.912   1.255  -4.570  1.00  0.00     0.002 A 
HETATM   15  C   UNL     1       1.097   0.542  -5.753  1.00  0.00     0.002 A 
HETATM   16  C   UNL     1       1.906  -0.594  -5.760  1.00  0.00     0.021 A 
HETATM   17  C   UNL     1       2.535  -1.010  -4.582  1.00  0.00     0.037 A 
HETATM   18 BR   UNL     1       3.601  -2.583  -4.646  1.00  0.00    -0.049 Br
ENDBRANCH   9  12
ENDBRANCH   1   6
BRANCH   4  19
HETATM   19  C   UNL     1       6.310  -2.418   3.161  1.00  0.00     0.102 A 
HETATM   20  C   UNL     1       6.526  -3.638   3.801  1.00  0.00     0.049 A 
HETATM   21  C   UNL     1       7.432  -3.732   4.863  1.00  0.00     0.021 A 
HETATM   22  C   UNL     1       8.125  -2.600   5.280  1.00  0.00     0.063 A 
HETATM   23  C   UNL     1       7.874  -1.427   4.588  1.00  0.00     0.106 A 
HETATM   24  N   UNL     1       6.990  -1.321   3.565  1.00  0.00    -0.352 N 
ATOM     25  HN  UNL     1       6.840  -0.423   3.105  1.00  0.00     0.166 HD
BRANCH  22  26
HETATM   26  C   UNL     1       9.085  -2.600   6.427  1.00  0.00     0.418 C 
HETATM   27  F   UNL     1       9.187  -3.807   7.049  1.00  0.00    -0.166 F 
HETATM   28  F   UNL     1      10.351  -2.268   6.052  1.00  0.00    -0.166 F 
HETATM   29  F   UNL     1       8.739  -1.710   7.398  1.00  0.00    -0.166 F 
ENDBRANCH  22  26
ENDBRANCH   4  19
TORSDOF 4
