MODEL 1
REMARK VINA RESULT:      -7.4      0.000      0.000
REMARK  17 active torsions:
REMARK  status: ('A' for Active; 'I' for Inactive)
REMARK    1  A    between atoms: C_2  and  C_3 
REMARK    2  A    between atoms: C_3  and  C_4 
REMARK    3  A    between atoms: C_4  and  C_5 
REMARK    4  A    between atoms: C_5  and  C_6 
REMARK    5  A    between atoms: C_7  and  C_8 
REMARK    6  A    between atoms: C_8  and  C_9 
REMARK    7  A    between atoms: C_9  and  C_10 
REMARK    8  A    between atoms: C_9  and  O_23 
REMARK    9  A    between atoms: C_11  and  C_12 
REMARK   10  A    between atoms: C_13  and  C_14 
REMARK   11  A    between atoms: C_14  and  C_15 
REMARK   12  A    between atoms: C_16  and  C_17 
REMARK   13  A    between atoms: C_17  and  C_18 
REMARK   14  A    between atoms: C_18  and  C_19 
REMARK   15  A    between atoms: C_19  and  C_20 
REMARK   16  A    between atoms: C_20  and  O_22 
REMARK   17  A    between atoms: O_23  and  O_24 
ROOT
HETATM    1  C   UNL     1     -20.992  -8.471  -5.576  1.00  0.00     0.008 C 
HETATM    2  C   UNL     1     -21.769  -7.498  -5.074  1.00  0.00    -0.002 C 
ENDROOT
BRANCH   1   3
HETATM    3  C   UNL     1     -21.146  -9.936  -5.209  1.00  0.00     0.186 C 
BRANCH   3   4
HETATM    4  C   UNL     1     -21.068 -10.210  -3.690  1.00  0.00     0.066 C 
BRANCH   4   5
HETATM    5  C   UNL     1     -22.401 -10.521  -3.072  1.00  0.00    -0.028 C 
HETATM    6  C   UNL     1     -22.553 -11.277  -1.976  1.00  0.00    -0.031 C 
BRANCH   6   7
HETATM    7  C   UNL     1     -23.879 -11.468  -1.307  1.00  0.00     0.027 C 
BRANCH   7   8
HETATM    8  C   UNL     1     -23.937 -10.654  -0.015  1.00  0.00     0.004 C 
BRANCH   8   9
HETATM    9  C   UNL     1     -22.734  -9.719   0.094  1.00  0.00    -0.000 C 
BRANCH   9  10
HETATM   10  C   UNL     1     -23.179  -8.285   0.363  1.00  0.00    -0.005 C 
HETATM   11  C   UNL     1     -22.481  -7.307  -0.567  1.00  0.00     0.005 C 
ENDBRANCH   9  10
ENDBRANCH   8   9
ENDBRANCH   7   8
ENDBRANCH   6   7
ENDBRANCH   4   5
ENDBRANCH   3   4
BRANCH   3  12
HETATM   12  O   UNL     1     -20.093 -10.659  -5.870  1.00  0.00    -0.234 OA
BRANCH  12  13
HETATM   13  O   UNL     1     -20.736 -11.496  -6.878  1.00  0.00    -0.250 OA
HETATM   14  H   UNL     1     -20.849 -10.791  -7.540  1.00  0.00     0.253 HD
ENDBRANCH  12  13
ENDBRANCH   3  12
ENDBRANCH   1   3
BRANCH   2  15
HETATM   15  C   UNL     1     -21.610  -6.096  -5.394  1.00  0.00    -0.004 C 
HETATM   16  C   UNL     1     -20.619  -5.650  -6.182  1.00  0.00    -0.023 C 
BRANCH  16  17
HETATM   17  C   UNL     1     -20.397  -4.204  -6.525  1.00  0.00     0.054 C 
BRANCH  17  18
HETATM   18  C   UNL     1     -20.700  -3.928  -7.971  1.00  0.00    -0.027 C 
HETATM   19  C   UNL     1     -20.211  -4.662  -8.984  1.00  0.00    -0.030 C 
BRANCH  19  20
HETATM   20  C   UNL     1     -20.522  -4.411 -10.432  1.00  0.00     0.027 C 
BRANCH  20  21
HETATM   21  C   UNL     1     -21.810  -3.603 -10.605  1.00  0.00     0.014 C 
BRANCH  21  22
HETATM   22  C   UNL     1     -23.067  -4.475 -10.552  1.00  0.00     0.110 C 
BRANCH  22  23
HETATM   23  C   UNL     1     -24.277  -3.688 -10.121  1.00  0.00     0.139 C 
HETATM   24  O   UNL     1     -25.109  -3.194 -10.871  1.00  0.00    -0.650 OA
BRANCH  23  25
HETATM   25  O   UNL     1     -24.367  -3.578  -8.776  1.00  0.00    -0.776 OA
HETATM   26  H   UNL     1     -25.201  -3.167  -8.474  1.00  0.00     0.167 HD
ENDBRANCH  23  25
ENDBRANCH  22  23
ENDBRANCH  21  22
ENDBRANCH  20  21
ENDBRANCH  19  20
ENDBRANCH  17  18
ENDBRANCH  16  17
ENDBRANCH   2  15
TORSDOF 17
ENDMDL
MODEL 2
REMARK VINA RESULT:      -7.4      1.160      2.089
REMARK  17 active torsions:
REMARK  status: ('A' for Active; 'I' for Inactive)
REMARK    1  A    between atoms: C_2  and  C_3 
REMARK    2  A    between atoms: C_3  and  C_4 
REMARK    3  A    between atoms: C_4  and  C_5 
REMARK    4  A    between atoms: C_5  and  C_6 
REMARK    5  A    between atoms: C_7  and  C_8 
REMARK    6  A    between atoms: C_8  and  C_9 
REMARK    7  A    between atoms: C_9  and  C_10 
REMARK    8  A    between atoms: C_9  and  O_23 
REMARK    9  A    between atoms: C_11  and  C_12 
REMARK   10  A    between atoms: C_13  and  C_14 
REMARK   11  A    between atoms: C_14  and  C_15 
REMARK   12  A    between atoms: C_16  and  C_17 
REMARK   13  A    between atoms: C_17  and  C_18 
REMARK   14  A    between atoms: C_18  and  C_19 
REMARK   15  A    between atoms: C_19  and  C_20 
REMARK   16  A    between atoms: C_20  and  O_22 
REMARK   17  A    between atoms: O_23  and  O_24 
ROOT
HETATM    1  C   UNL     1     -19.954  -8.177  -5.072  1.00  0.00     0.008 C 
HETATM    2  C   UNL     1     -20.924  -7.250  -5.101  1.00  0.00    -0.002 C 
ENDROOT
BRANCH   1   3
HETATM    3  C   UNL     1     -19.897  -9.295  -4.045  1.00  0.00     0.186 C 
BRANCH   3   4
HETATM    4  C   UNL     1     -19.404  -8.837  -2.653  1.00  0.00     0.066 C 
BRANCH   4   5
HETATM    5  C   UNL     1     -20.515  -8.631  -1.666  1.00  0.00    -0.028 C 
HETATM    6  C   UNL     1     -21.202  -7.486  -1.549  1.00  0.00    -0.031 C 
BRANCH   6   7
HETATM    7  C   UNL     1     -22.389  -7.346  -0.645  1.00  0.00     0.027 C 
BRANCH   7   8
HETATM    8  C   UNL     1     -22.393  -8.467   0.393  1.00  0.00     0.004 C 
BRANCH   8   9
HETATM    9  C   UNL     1     -23.616  -9.365   0.221  1.00  0.00    -0.000 C 
BRANCH   9  10
HETATM   10  C   UNL     1     -23.203 -10.792  -0.127  1.00  0.00    -0.005 C 
HETATM   11  C   UNL     1     -23.591 -11.145  -1.553  1.00  0.00     0.005 C 
ENDBRANCH   9  10
ENDBRANCH   8   9
ENDBRANCH   7   8
ENDBRANCH   6   7
ENDBRANCH   4   5
ENDBRANCH   3   4
BRANCH   3  12
HETATM   12  O   UNL     1     -19.003 -10.301  -4.551  1.00  0.00    -0.234 OA
BRANCH  12  13
HETATM   13  O   UNL     1     -19.811 -11.495  -4.775  1.00  0.00    -0.250 OA
HETATM   14  H   UNL     1     -19.479 -11.678  -5.672  1.00  0.00     0.253 HD
ENDBRANCH  12  13
ENDBRANCH   3  12
ENDBRANCH   1   3
BRANCH   2  15
HETATM   15  C   UNL     1     -20.971  -6.164  -6.057  1.00  0.00    -0.004 C 
HETATM   16  C   UNL     1     -19.867  -5.507  -6.446  1.00  0.00    -0.023 C 
BRANCH  16  17
HETATM   17  C   UNL     1     -19.865  -4.359  -7.417  1.00  0.00     0.054 C 
BRANCH  17  18
HETATM   18  C   UNL     1     -20.171  -4.819  -8.814  1.00  0.00    -0.027 C 
HETATM   19  C   UNL     1     -20.641  -4.007  -9.775  1.00  0.00    -0.030 C 
BRANCH  19  20
HETATM   20  C   UNL     1     -20.931  -4.447 -11.182  1.00  0.00     0.027 C 
BRANCH  20  21
HETATM   21  C   UNL     1     -22.417  -4.317 -11.523  1.00  0.00     0.014 C 
BRANCH  21  22
HETATM   22  C   UNL     1     -23.328  -4.774 -10.381  1.00  0.00     0.110 C 
BRANCH  22  23
HETATM   23  C   UNL     1     -24.365  -3.735 -10.040  1.00  0.00     0.139 C 
HETATM   24  O   UNL     1     -25.121  -3.196 -10.838  1.00  0.00    -0.650 OA
BRANCH  23  25
HETATM   25  O   UNL     1     -24.388  -3.445  -8.719  1.00  0.00    -0.776 OA
HETATM   26  H   UNL     1     -24.099  -4.188  -8.154  1.00  0.00     0.167 HD
ENDBRANCH  23  25
ENDBRANCH  22  23
ENDBRANCH  21  22
ENDBRANCH  20  21
ENDBRANCH  19  20
ENDBRANCH  17  18
ENDBRANCH  16  17
ENDBRANCH   2  15
TORSDOF 17
ENDMDL
MODEL 3
REMARK VINA RESULT:      -7.0      2.476      9.953
REMARK  17 active torsions:
REMARK  status: ('A' for Active; 'I' for Inactive)
REMARK    1  A    between atoms: C_2  and  C_3 
REMARK    2  A    between atoms: C_3  and  C_4 
REMARK    3  A    between atoms: C_4  and  C_5 
REMARK    4  A    between atoms: C_5  and  C_6 
REMARK    5  A    between atoms: C_7  and  C_8 
REMARK    6  A    between atoms: C_8  and  C_9 
REMARK    7  A    between atoms: C_9  and  C_10 
REMARK    8  A    between atoms: C_9  and  O_23 
REMARK    9  A    between atoms: C_11  and  C_12 
REMARK   10  A    between atoms: C_13  and  C_14 
REMARK   11  A    between atoms: C_14  and  C_15 
REMARK   12  A    between atoms: C_16  and  C_17 
REMARK   13  A    between atoms: C_17  and  C_18 
REMARK   14  A    between atoms: C_18  and  C_19 
REMARK   15  A    between atoms: C_19  and  C_20 
REMARK   16  A    between atoms: C_20  and  O_22 
REMARK   17  A    between atoms: O_23  and  O_24 
ROOT
HETATM    1  C   UNL     1     -21.346  -6.963  -4.077  1.00  0.00     0.008 C 
HETATM    2  C   UNL     1     -21.474  -6.055  -3.098  1.00  0.00    -0.002 C 
ENDROOT
BRANCH   1   3
HETATM    3  C   UNL     1     -20.739  -6.650  -5.433  1.00  0.00     0.186 C 
BRANCH   3   4
HETATM    4  C   UNL     1     -21.088  -5.239  -5.961  1.00  0.00     0.066 C 
BRANCH   4   5
HETATM    5  C   UNL     1     -21.181  -5.170  -7.458  1.00  0.00    -0.028 C 
HETATM    6  C   UNL     1     -20.483  -4.304  -8.206  1.00  0.00    -0.031 C 
BRANCH   6   7
HETATM    7  C   UNL     1     -20.496  -4.340  -9.704  1.00  0.00     0.027 C 
BRANCH   7   8
HETATM    8  C   UNL     1     -21.761  -3.667 -10.234  1.00  0.00     0.004 C 
BRANCH   8   9
HETATM    9  C   UNL     1     -22.682  -4.686 -10.901  1.00  0.00    -0.000 C 
BRANCH   9  10
HETATM   10  C   UNL     1     -24.051  -4.710 -10.227  1.00  0.00    -0.005 C 
HETATM   11  C   UNL     1     -24.330  -3.405  -9.500  1.00  0.00     0.005 C 
ENDBRANCH   9  10
ENDBRANCH   8   9
ENDBRANCH   7   8
ENDBRANCH   6   7
ENDBRANCH   4   5
ENDBRANCH   3   4
BRANCH   3  12
HETATM   12  O   UNL     1     -21.228  -7.631  -6.363  1.00  0.00    -0.234 OA
BRANCH  12  13
HETATM   13  O   UNL     1     -21.104  -8.925  -5.700  1.00  0.00    -0.250 OA
HETATM   14  H   UNL     1     -21.391  -8.620  -4.822  1.00  0.00     0.253 HD
ENDBRANCH  12  13
ENDBRANCH   3  12
ENDBRANCH   1   3
BRANCH   2  15
HETATM   15  C   UNL     1     -22.079  -6.337  -1.813  1.00  0.00    -0.004 C 
HETATM   16  C   UNL     1     -21.695  -7.376  -1.055  1.00  0.00    -0.023 C 
BRANCH  16  17
HETATM   17  C   UNL     1     -22.306  -7.724   0.273  1.00  0.00     0.054 C 
BRANCH  17  18
HETATM   18  C   UNL     1     -23.304  -8.840   0.146  1.00  0.00    -0.027 C 
HETATM   19  C   UNL     1     -22.977 -10.089  -0.223  1.00  0.00    -0.030 C 
BRANCH  19  20
HETATM   20  C   UNL     1     -23.961 -11.219  -0.335  1.00  0.00     0.027 C 
BRANCH  20  21
HETATM   21  C   UNL     1     -23.477 -12.469   0.403  1.00  0.00     0.014 C 
BRANCH  21  22
HETATM   22  C   UNL     1     -22.012 -12.372   0.835  1.00  0.00     0.110 C 
BRANCH  22  23
HETATM   23  C   UNL     1     -21.129 -13.295   0.035  1.00  0.00     0.139 C 
HETATM   24  O   UNL     1     -21.501 -14.298  -0.558  1.00  0.00    -0.650 OA
BRANCH  23  25
HETATM   25  O   UNL     1     -19.837 -12.893   0.029  1.00  0.00    -0.776 OA
HETATM   26  H   UNL     1     -19.372 -13.096  -0.806  1.00  0.00     0.167 HD
ENDBRANCH  23  25
ENDBRANCH  22  23
ENDBRANCH  21  22
ENDBRANCH  20  21
ENDBRANCH  19  20
ENDBRANCH  17  18
ENDBRANCH  16  17
ENDBRANCH   2  15
TORSDOF 17
ENDMDL
MODEL 4
REMARK VINA RESULT:      -7.0      3.063      3.985
REMARK  17 active torsions:
REMARK  status: ('A' for Active; 'I' for Inactive)
REMARK    1  A    between atoms: C_2  and  C_3 
REMARK    2  A    between atoms: C_3  and  C_4 
REMARK    3  A    between atoms: C_4  and  C_5 
REMARK    4  A    between atoms: C_5  and  C_6 
REMARK    5  A    between atoms: C_7  and  C_8 
REMARK    6  A    between atoms: C_8  and  C_9 
REMARK    7  A    between atoms: C_9  and  C_10 
REMARK    8  A    between atoms: C_9  and  O_23 
REMARK    9  A    between atoms: C_11  and  C_12 
REMARK   10  A    between atoms: C_13  and  C_14 
REMARK   11  A    between atoms: C_14  and  C_15 
REMARK   12  A    between atoms: C_16  and  C_17 
REMARK   13  A    between atoms: C_17  and  C_18 
REMARK   14  A    between atoms: C_18  and  C_19 
REMARK   15  A    between atoms: C_19  and  C_20 
REMARK   16  A    between atoms: C_20  and  O_22 
REMARK   17  A    between atoms: O_23  and  O_24 
ROOT
HETATM    1  C   UNL     1     -21.679  -7.370  -1.630  1.00  0.00     0.008 C 
HETATM    2  C   UNL     1     -21.236  -7.295  -2.896  1.00  0.00    -0.002 C 
ENDROOT
BRANCH   1   3
HETATM    3  C   UNL     1     -21.620  -8.638  -0.798  1.00  0.00     0.186 C 
BRANCH   3   4
HETATM    4  C   UNL     1     -23.008  -9.221  -0.452  1.00  0.00     0.066 C 
BRANCH   4   5
HETATM    5  C   UNL     1     -22.969 -10.678  -0.088  1.00  0.00    -0.028 C 
HETATM    6  C   UNL     1     -23.909 -11.560  -0.453  1.00  0.00    -0.031 C 
BRANCH   6   7
HETATM    7  C   UNL     1     -23.783 -13.029  -0.188  1.00  0.00     0.027 C 
BRANCH   7   8
HETATM    8  C   UNL     1     -22.779 -13.274   0.938  1.00  0.00     0.004 C 
BRANCH   8   9
HETATM    9  C   UNL     1     -23.434 -14.020   2.099  1.00  0.00    -0.000 C 
BRANCH   9  10
HETATM   10  C   UNL     1     -22.386 -14.524   3.086  1.00  0.00    -0.005 C 
HETATM   11  C   UNL     1     -23.015 -15.391   4.164  1.00  0.00     0.005 C 
ENDBRANCH   9  10
ENDBRANCH   8   9
ENDBRANCH   7   8
ENDBRANCH   6   7
ENDBRANCH   4   5
ENDBRANCH   3   4
BRANCH   3  12
HETATM   12  O   UNL     1     -20.927  -8.323   0.422  1.00  0.00    -0.234 OA
BRANCH  12  13
HETATM   13  O   UNL     1     -21.934  -7.813   1.347  1.00  0.00    -0.250 OA
HETATM   14  H   UNL     1     -22.608  -7.621   0.672  1.00  0.00     0.253 HD
ENDBRANCH  12  13
ENDBRANCH   3  12
ENDBRANCH   1   3
BRANCH   2  15
HETATM   15  C   UNL     1     -21.316  -6.098  -3.706  1.00  0.00    -0.004 C 
HETATM   16  C   UNL     1     -20.685  -5.991  -4.886  1.00  0.00    -0.023 C 
BRANCH  16  17
HETATM   17  C   UNL     1     -20.717  -4.764  -5.753  1.00  0.00     0.054 C 
BRANCH  17  18
HETATM   18  C   UNL     1     -20.916  -5.116  -7.200  1.00  0.00    -0.027 C 
HETATM   19  C   UNL     1     -20.599  -4.294  -8.214  1.00  0.00    -0.030 C 
BRANCH  19  20
HETATM   20  C   UNL     1     -20.772  -4.641  -9.665  1.00  0.00     0.027 C 
BRANCH  20  21
HETATM   21  C   UNL     1     -21.797  -3.733 -10.348  1.00  0.00     0.014 C 
BRANCH  21  22
HETATM   22  C   UNL     1     -23.125  -4.442 -10.623  1.00  0.00     0.110 C 
BRANCH  22  23
HETATM   23  C   UNL     1     -24.299  -3.660 -10.090  1.00  0.00     0.139 C 
HETATM   24  O   UNL     1     -25.195  -3.173 -10.767  1.00  0.00    -0.650 OA
BRANCH  23  25
HETATM   25  O   UNL     1     -24.273  -3.548  -8.743  1.00  0.00    -0.776 OA
HETATM   26  H   UNL     1     -23.389  -3.705  -8.357  1.00  0.00     0.167 HD
ENDBRANCH  23  25
ENDBRANCH  22  23
ENDBRANCH  21  22
ENDBRANCH  20  21
ENDBRANCH  19  20
ENDBRANCH  17  18
ENDBRANCH  16  17
ENDBRANCH   2  15
TORSDOF 17
ENDMDL
MODEL 5
REMARK VINA RESULT:      -6.9      1.475      1.716
REMARK  17 active torsions:
REMARK  status: ('A' for Active; 'I' for Inactive)
REMARK    1  A    between atoms: C_2  and  C_3 
REMARK    2  A    between atoms: C_3  and  C_4 
REMARK    3  A    between atoms: C_4  and  C_5 
REMARK    4  A    between atoms: C_5  and  C_6 
REMARK    5  A    between atoms: C_7  and  C_8 
REMARK    6  A    between atoms: C_8  and  C_9 
REMARK    7  A    between atoms: C_9  and  C_10 
REMARK    8  A    between atoms: C_9  and  O_23 
REMARK    9  A    between atoms: C_11  and  C_12 
REMARK   10  A    between atoms: C_13  and  C_14 
REMARK   11  A    between atoms: C_14  and  C_15 
REMARK   12  A    between atoms: C_16  and  C_17 
REMARK   13  A    between atoms: C_17  and  C_18 
REMARK   14  A    between atoms: C_18  and  C_19 
REMARK   15  A    between atoms: C_19  and  C_20 
REMARK   16  A    between atoms: C_20  and  O_22 
REMARK   17  A    between atoms: O_23  and  O_24 
ROOT
HETATM    1  C   UNL     1     -21.054  -8.490  -4.897  1.00  0.00     0.008 C 
HETATM    2  C   UNL     1     -21.495  -7.291  -4.486  1.00  0.00    -0.002 C 
ENDROOT
BRANCH   1   3
HETATM    3  C   UNL     1     -21.176  -9.755  -4.066  1.00  0.00     0.186 C 
BRANCH   3   4
HETATM    4  C   UNL     1     -19.821 -10.433  -3.761  1.00  0.00     0.066 C 
BRANCH   4   5
HETATM    5  C   UNL     1     -19.726 -10.969  -2.361  1.00  0.00    -0.028 C 
HETATM    6  C   UNL     1     -20.143 -10.298  -1.279  1.00  0.00    -0.031 C 
BRANCH   6   7
HETATM    7  C   UNL     1     -20.154 -10.905   0.091  1.00  0.00     0.027 C 
BRANCH   7   8
HETATM    8  C   UNL     1     -21.269 -10.284   0.931  1.00  0.00     0.004 C 
BRANCH   8   9
HETATM    9  C   UNL     1     -21.234  -8.760   0.842  1.00  0.00    -0.000 C 
BRANCH   9  10
HETATM   10  C   UNL     1     -22.573  -8.209   0.361  1.00  0.00    -0.005 C 
HETATM   11  C   UNL     1     -22.382  -7.167  -0.728  1.00  0.00     0.005 C 
ENDBRANCH   9  10
ENDBRANCH   8   9
ENDBRANCH   7   8
ENDBRANCH   6   7
ENDBRANCH   4   5
ENDBRANCH   3   4
BRANCH   3  12
HETATM   12  O   UNL     1     -22.005 -10.674  -4.798  1.00  0.00    -0.234 OA
BRANCH  12  13
HETATM   13  O   UNL     1     -22.945 -11.239  -3.834  1.00  0.00    -0.250 OA
HETATM   14  H   UNL     1     -23.430 -10.412  -3.665  1.00  0.00     0.253 HD
ENDBRANCH  12  13
ENDBRANCH   3  12
ENDBRANCH   1   3
BRANCH   2  15
HETATM   15  C   UNL     1     -21.356  -6.075  -5.259  1.00  0.00    -0.004 C 
HETATM   16  C   UNL     1     -20.369  -5.905  -6.153  1.00  0.00    -0.023 C 
BRANCH  16  17
HETATM   17  C   UNL     1     -20.168  -4.654  -6.963  1.00  0.00     0.054 C 
BRANCH  17  18
HETATM   18  C   UNL     1     -20.241  -4.934  -8.437  1.00  0.00    -0.027 C 
HETATM   19  C   UNL     1     -20.695  -4.048  -9.338  1.00  0.00    -0.030 C 
BRANCH  19  20
HETATM   20  C   UNL     1     -20.753  -4.307 -10.817  1.00  0.00     0.027 C 
BRANCH  20  21
HETATM   21  C   UNL     1     -22.172  -4.143 -11.367  1.00  0.00     0.014 C 
BRANCH  21  22
HETATM   22  C   UNL     1     -23.236  -4.748 -10.449  1.00  0.00     0.110 C 
BRANCH  22  23
HETATM   23  C   UNL     1     -24.312  -3.750 -10.103  1.00  0.00     0.139 C 
HETATM   24  O   UNL     1     -25.046  -3.189 -10.906  1.00  0.00    -0.650 OA
BRANCH  23  25
HETATM   25  O   UNL     1     -24.398  -3.528  -8.772  1.00  0.00    -0.776 OA
HETATM   26  H   UNL     1     -23.553  -3.664  -8.300  1.00  0.00     0.167 HD
ENDBRANCH  23  25
ENDBRANCH  22  23
ENDBRANCH  21  22
ENDBRANCH  20  21
ENDBRANCH  19  20
ENDBRANCH  17  18
ENDBRANCH  16  17
ENDBRANCH   2  15
TORSDOF 17
ENDMDL
MODEL 6
REMARK VINA RESULT:      -6.8      3.371     10.428
REMARK  17 active torsions:
REMARK  status: ('A' for Active; 'I' for Inactive)
REMARK    1  A    between atoms: C_2  and  C_3 
REMARK    2  A    between atoms: C_3  and  C_4 
REMARK    3  A    between atoms: C_4  and  C_5 
REMARK    4  A    between atoms: C_5  and  C_6 
REMARK    5  A    between atoms: C_7  and  C_8 
REMARK    6  A    between atoms: C_8  and  C_9 
REMARK    7  A    between atoms: C_9  and  C_10 
REMARK    8  A    between atoms: C_9  and  O_23 
REMARK    9  A    between atoms: C_11  and  C_12 
REMARK   10  A    between atoms: C_13  and  C_14 
REMARK   11  A    between atoms: C_14  and  C_15 
REMARK   12  A    between atoms: C_16  and  C_17 
REMARK   13  A    between atoms: C_17  and  C_18 
REMARK   14  A    between atoms: C_18  and  C_19 
REMARK   15  A    between atoms: C_19  and  C_20 
REMARK   16  A    between atoms: C_20  and  O_22 
REMARK   17  A    between atoms: O_23  and  O_24 
ROOT
HETATM    1  C   UNL     1     -21.531  -6.097  -4.288  1.00  0.00     0.008 C 
HETATM    2  C   UNL     1     -21.203  -6.165  -2.988  1.00  0.00    -0.002 C 
ENDROOT
BRANCH   1   3
HETATM    3  C   UNL     1     -20.517  -5.864  -5.394  1.00  0.00     0.186 C 
BRANCH   3   4
HETATM    4  C   UNL     1     -20.749  -4.558  -6.187  1.00  0.00     0.066 C 
BRANCH   4   5
HETATM    5  C   UNL     1     -21.581  -4.751  -7.422  1.00  0.00    -0.028 C 
HETATM    6  C   UNL     1     -22.824  -4.268  -7.563  1.00  0.00    -0.031 C 
BRANCH   6   7
HETATM    7  C   UNL     1     -23.584  -4.365  -8.850  1.00  0.00     0.027 C 
BRANCH   7   8
HETATM    8  C   UNL     1     -22.972  -3.430  -9.893  1.00  0.00     0.004 C 
BRANCH   8   9
HETATM    9  C   UNL     1     -22.318  -4.226 -11.020  1.00  0.00    -0.000 C 
BRANCH   9  10
HETATM   10  C   UNL     1     -20.877  -3.775 -11.242  1.00  0.00    -0.005 C 
HETATM   11  C   UNL     1     -19.894  -4.718 -10.570  1.00  0.00     0.005 C 
ENDBRANCH   9  10
ENDBRANCH   8   9
ENDBRANCH   7   8
ENDBRANCH   6   7
ENDBRANCH   4   5
ENDBRANCH   3   4
BRANCH   3  12
HETATM   12  O   UNL     1     -20.599  -6.980  -6.297  1.00  0.00    -0.234 OA
BRANCH  12  13
HETATM   13  O   UNL     1     -19.225  -7.359  -6.610  1.00  0.00    -0.250 OA
HETATM   14  H   UNL     1     -19.268  -7.131  -7.555  1.00  0.00     0.253 HD
ENDBRANCH  12  13
ENDBRANCH   3  12
ENDBRANCH   1   3
BRANCH   2  15
HETATM   15  C   UNL     1     -22.166  -6.357  -1.924  1.00  0.00    -0.004 C 
HETATM   16  C   UNL     1     -22.032  -7.325  -1.005  1.00  0.00    -0.023 C 
BRANCH  16  17
HETATM   17  C   UNL     1     -23.015  -7.580   0.104  1.00  0.00     0.054 C 
BRANCH  17  18
HETATM   18  C   UNL     1     -23.170  -9.050   0.376  1.00  0.00    -0.027 C 
HETATM   19  C   UNL     1     -23.152  -9.988  -0.585  1.00  0.00    -0.030 C 
BRANCH  19  20
HETATM   20  C   UNL     1     -23.284 -11.461  -0.325  1.00  0.00     0.027 C 
BRANCH  20  21
HETATM   21  C   UNL     1     -22.162 -11.984   0.575  1.00  0.00     0.014 C 
BRANCH  21  22
HETATM   22  C   UNL     1     -22.164 -13.509   0.698  1.00  0.00     0.110 C 
BRANCH  22  23
HETATM   23  C   UNL     1     -22.709 -13.964   2.028  1.00  0.00     0.139 C 
HETATM   24  O   UNL     1     -23.838 -13.745   2.446  1.00  0.00    -0.650 OA
BRANCH  23  25
HETATM   25  O   UNL     1     -21.802 -14.670   2.741  1.00  0.00    -0.776 OA
HETATM   26  H   UNL     1     -21.158 -15.149   2.184  1.00  0.00     0.167 HD
ENDBRANCH  23  25
ENDBRANCH  22  23
ENDBRANCH  21  22
ENDBRANCH  20  21
ENDBRANCH  19  20
ENDBRANCH  17  18
ENDBRANCH  16  17
ENDBRANCH   2  15
TORSDOF 17
ENDMDL
MODEL 7
REMARK VINA RESULT:      -6.6      2.903      4.726
REMARK  17 active torsions:
REMARK  status: ('A' for Active; 'I' for Inactive)
REMARK    1  A    between atoms: C_2  and  C_3 
REMARK    2  A    between atoms: C_3  and  C_4 
REMARK    3  A    between atoms: C_4  and  C_5 
REMARK    4  A    between atoms: C_5  and  C_6 
REMARK    5  A    between atoms: C_7  and  C_8 
REMARK    6  A    between atoms: C_8  and  C_9 
REMARK    7  A    between atoms: C_9  and  C_10 
REMARK    8  A    between atoms: C_9  and  O_23 
REMARK    9  A    between atoms: C_11  and  C_12 
REMARK   10  A    between atoms: C_13  and  C_14 
REMARK   11  A    between atoms: C_14  and  C_15 
REMARK   12  A    between atoms: C_16  and  C_17 
REMARK   13  A    between atoms: C_17  and  C_18 
REMARK   14  A    between atoms: C_18  and  C_19 
REMARK   15  A    between atoms: C_19  and  C_20 
REMARK   16  A    between atoms: C_20  and  O_22 
REMARK   17  A    between atoms: O_23  and  O_24 
ROOT
HETATM    1  C   UNL     1     -20.888  -8.420  -5.347  1.00  0.00     0.008 C 
HETATM    2  C   UNL     1     -21.550  -7.509  -4.616  1.00  0.00    -0.002 C 
ENDROOT
BRANCH   1   3
HETATM    3  C   UNL     1     -20.921  -9.909  -5.054  1.00  0.00     0.186 C 
BRANCH   3   4
HETATM    4  C   UNL     1     -20.108 -10.316  -3.803  1.00  0.00     0.066 C 
BRANCH   4   5
HETATM    5  C   UNL     1     -18.742  -9.694  -3.752  1.00  0.00    -0.028 C 
HETATM    6  C   UNL     1     -17.606 -10.403  -3.701  1.00  0.00    -0.031 C 
BRANCH   6   7
HETATM    7  C   UNL     1     -16.253  -9.763  -3.780  1.00  0.00     0.027 C 
BRANCH   7   8
HETATM    8  C   UNL     1     -15.740  -9.797  -5.218  1.00  0.00     0.004 C 
BRANCH   8   9
HETATM    9  C   UNL     1     -16.133 -11.102  -5.907  1.00  0.00    -0.000 C 
BRANCH   9  10
HETATM   10  C   UNL     1     -14.900 -11.846  -6.412  1.00  0.00    -0.005 C 
HETATM   11  C   UNL     1     -13.902 -12.084  -5.292  1.00  0.00     0.005 C 
ENDBRANCH   9  10
ENDBRANCH   8   9
ENDBRANCH   7   8
ENDBRANCH   6   7
ENDBRANCH   4   5
ENDBRANCH   3   4
BRANCH   3  12
HETATM   12  O   UNL     1     -20.381 -10.587  -6.201  1.00  0.00    -0.234 OA
BRANCH  12  13
HETATM   13  O   UNL     1     -20.582 -12.014  -5.970  1.00  0.00    -0.250 OA
HETATM   14  H   UNL     1     -21.538 -12.015  -6.155  1.00  0.00     0.253 HD
ENDBRANCH  12  13
ENDBRANCH   3  12
ENDBRANCH   1   3
BRANCH   2  15
HETATM   15  C   UNL     1     -21.501  -6.085  -4.869  1.00  0.00    -0.004 C 
HETATM   16  C   UNL     1     -20.898  -5.572  -5.953  1.00  0.00    -0.023 C 
BRANCH  16  17
HETATM   17  C   UNL     1     -20.800  -4.102  -6.250  1.00  0.00     0.054 C 
BRANCH  17  18
HETATM   18  C   UNL     1     -20.777  -3.838  -7.728  1.00  0.00    -0.027 C 
HETATM   19  C   UNL     1     -20.576  -4.795  -8.649  1.00  0.00    -0.030 C 
BRANCH  19  20
HETATM   20  C   UNL     1     -20.571  -4.549 -10.131  1.00  0.00     0.027 C 
BRANCH  20  21
HETATM   21  C   UNL     1     -21.788  -3.736 -10.577  1.00  0.00     0.014 C 
BRANCH  21  22
HETATM   22  C   UNL     1     -23.087  -4.543 -10.533  1.00  0.00     0.110 C 
BRANCH  22  23
HETATM   23  C   UNL     1     -24.250  -3.709 -10.062  1.00  0.00     0.139 C 
HETATM   24  O   UNL     1     -25.100  -3.202 -10.782  1.00  0.00    -0.650 OA
BRANCH  23  25
HETATM   25  O   UNL     1     -24.273  -3.571  -8.716  1.00  0.00    -0.776 OA
HETATM   26  H   UNL     1     -25.162  -3.693  -8.328  1.00  0.00     0.167 HD
ENDBRANCH  23  25
ENDBRANCH  22  23
ENDBRANCH  21  22
ENDBRANCH  20  21
ENDBRANCH  19  20
ENDBRANCH  17  18
ENDBRANCH  16  17
ENDBRANCH   2  15
TORSDOF 17
ENDMDL
MODEL 8
REMARK VINA RESULT:      -6.4      2.782      4.158
REMARK  17 active torsions:
REMARK  status: ('A' for Active; 'I' for Inactive)
REMARK    1  A    between atoms: C_2  and  C_3 
REMARK    2  A    between atoms: C_3  and  C_4 
REMARK    3  A    between atoms: C_4  and  C_5 
REMARK    4  A    between atoms: C_5  and  C_6 
REMARK    5  A    between atoms: C_7  and  C_8 
REMARK    6  A    between atoms: C_8  and  C_9 
REMARK    7  A    between atoms: C_9  and  C_10 
REMARK    8  A    between atoms: C_9  and  O_23 
REMARK    9  A    between atoms: C_11  and  C_12 
REMARK   10  A    between atoms: C_13  and  C_14 
REMARK   11  A    between atoms: C_14  and  C_15 
REMARK   12  A    between atoms: C_16  and  C_17 
REMARK   13  A    between atoms: C_17  and  C_18 
REMARK   14  A    between atoms: C_18  and  C_19 
REMARK   15  A    between atoms: C_19  and  C_20 
REMARK   16  A    between atoms: C_20  and  O_22 
REMARK   17  A    between atoms: O_23  and  O_24 
ROOT
HETATM    1  C   UNL     1     -21.707  -8.550  -1.493  1.00  0.00     0.008 C 
HETATM    2  C   UNL     1     -21.659  -7.252  -1.832  1.00  0.00    -0.002 C 
ENDROOT
BRANCH   1   3
HETATM    3  C   UNL     1     -22.046  -9.037  -0.096  1.00  0.00     0.186 C 
BRANCH   3   4
HETATM    4  C   UNL     1     -23.548  -9.334   0.113  1.00  0.00     0.066 C 
BRANCH   4   5
HETATM    5  C   UNL     1     -23.911 -10.770  -0.133  1.00  0.00    -0.028 C 
HETATM    6  C   UNL     1     -23.111 -11.801   0.170  1.00  0.00    -0.031 C 
BRANCH   6   7
HETATM    7  C   UNL     1     -23.547 -13.227   0.033  1.00  0.00     0.027 C 
BRANCH   7   8
HETATM    8  C   UNL     1     -22.676 -13.946  -0.997  1.00  0.00     0.004 C 
BRANCH   8   9
HETATM    9  C   UNL     1     -23.106 -13.590  -2.418  1.00  0.00    -0.000 C 
BRANCH   9  10
HETATM   10  C   UNL     1     -22.035 -12.762  -3.123  1.00  0.00    -0.005 C 
HETATM   11  C   UNL     1     -22.598 -11.442  -3.621  1.00  0.00     0.005 C 
ENDBRANCH   9  10
ENDBRANCH   8   9
ENDBRANCH   7   8
ENDBRANCH   6   7
ENDBRANCH   4   5
ENDBRANCH   3   4
BRANCH   3  12
HETATM   12  O   UNL     1     -21.638  -8.014   0.828  1.00  0.00    -0.234 OA
BRANCH  12  13
HETATM   13  O   UNL     1     -20.823  -8.674   1.842  1.00  0.00    -0.250 OA
HETATM   14  H   UNL     1     -20.511  -9.397   1.269  1.00  0.00     0.253 HD
ENDBRANCH  12  13
ENDBRANCH   3  12
ENDBRANCH   1   3
BRANCH   2  15
HETATM   15  C   UNL     1     -21.308  -6.778  -3.154  1.00  0.00    -0.004 C 
HETATM   16  C   UNL     1     -21.265  -7.594  -4.218  1.00  0.00    -0.023 C 
BRANCH  16  17
HETATM   17  C   UNL     1     -20.884  -7.156  -5.605  1.00  0.00     0.054 C 
BRANCH  17  18
HETATM   18  C   UNL     1     -21.472  -5.815  -5.940  1.00  0.00    -0.027 C 
HETATM   19  C   UNL     1     -21.044  -5.052  -6.959  1.00  0.00    -0.030 C 
BRANCH  19  20
HETATM   20  C   UNL     1     -21.636  -3.719  -7.319  1.00  0.00     0.027 C 
BRANCH  20  21
HETATM   21  C   UNL     1     -22.431  -3.784  -8.625  1.00  0.00     0.014 C 
BRANCH  21  22
HETATM   22  C   UNL     1     -21.624  -4.382  -9.780  1.00  0.00     0.110 C 
BRANCH  22  23
HETATM   23  C   UNL     1     -22.139  -3.926 -11.120  1.00  0.00     0.139 C 
HETATM   24  O   UNL     1     -22.934  -4.537 -11.822  1.00  0.00    -0.650 OA
BRANCH  23  25
HETATM   25  O   UNL     1     -21.627  -2.729 -11.488  1.00  0.00    -0.776 OA
HETATM   26  H   UNL     1     -22.309  -2.065 -11.708  1.00  0.00     0.167 HD
ENDBRANCH  23  25
ENDBRANCH  22  23
ENDBRANCH  21  22
ENDBRANCH  20  21
ENDBRANCH  19  20
ENDBRANCH  17  18
ENDBRANCH  16  17
ENDBRANCH   2  15
TORSDOF 17
ENDMDL
MODEL 9
REMARK VINA RESULT:      -6.4      1.794      2.637
REMARK  17 active torsions:
REMARK  status: ('A' for Active; 'I' for Inactive)
REMARK    1  A    between atoms: C_2  and  C_3 
REMARK    2  A    between atoms: C_3  and  C_4 
REMARK    3  A    between atoms: C_4  and  C_5 
REMARK    4  A    between atoms: C_5  and  C_6 
REMARK    5  A    between atoms: C_7  and  C_8 
REMARK    6  A    between atoms: C_8  and  C_9 
REMARK    7  A    between atoms: C_9  and  C_10 
REMARK    8  A    between atoms: C_9  and  O_23 
REMARK    9  A    between atoms: C_11  and  C_12 
REMARK   10  A    between atoms: C_13  and  C_14 
REMARK   11  A    between atoms: C_14  and  C_15 
REMARK   12  A    between atoms: C_16  and  C_17 
REMARK   13  A    between atoms: C_17  and  C_18 
REMARK   14  A    between atoms: C_18  and  C_19 
REMARK   15  A    between atoms: C_19  and  C_20 
REMARK   16  A    between atoms: C_20  and  O_22 
REMARK   17  A    between atoms: O_23  and  O_24 
ROOT
HETATM    1  C   UNL     1     -20.733  -8.263  -5.241  1.00  0.00     0.008 C 
HETATM    2  C   UNL     1     -21.209  -7.176  -4.613  1.00  0.00    -0.002 C 
ENDROOT
BRANCH   1   3
HETATM    3  C   UNL     1     -20.878  -9.673  -4.698  1.00  0.00     0.186 C 
BRANCH   3   4
HETATM    4  C   UNL     1     -19.753 -10.083  -3.721  1.00  0.00     0.066 C 
BRANCH   4   5
HETATM    5  C   UNL     1     -20.222 -10.228  -2.301  1.00  0.00    -0.028 C 
HETATM    6  C   UNL     1     -21.313  -9.623  -1.814  1.00  0.00    -0.031 C 
BRANCH   6   7
HETATM    7  C   UNL     1     -21.831  -9.884  -0.432  1.00  0.00     0.027 C 
BRANCH   7   8
HETATM    8  C   UNL     1     -21.292 -11.216   0.087  1.00  0.00     0.004 C 
BRANCH   8   9
HETATM    9  C   UNL     1     -22.418 -12.074   0.658  1.00  0.00    -0.000 C 
BRANCH   9  10
HETATM   10  C   UNL     1     -23.718 -11.851  -0.109  1.00  0.00    -0.005 C 
HETATM   11  C   UNL     1     -24.034 -13.030  -1.014  1.00  0.00     0.005 C 
ENDBRANCH   9  10
ENDBRANCH   8   9
ENDBRANCH   7   8
ENDBRANCH   6   7
ENDBRANCH   4   5
ENDBRANCH   3   4
BRANCH   3  12
HETATM   12  O   UNL     1     -20.873 -10.571  -5.821  1.00  0.00    -0.234 OA
BRANCH  12  13
HETATM   13  O   UNL     1     -19.477 -10.721  -6.222  1.00  0.00    -0.250 OA
HETATM   14  H   UNL     1     -19.096 -10.502  -5.353  1.00  0.00     0.253 HD
ENDBRANCH  12  13
ENDBRANCH   3  12
ENDBRANCH   1   3
BRANCH   2  15
HETATM   15  C   UNL     1     -21.049  -5.825  -5.108  1.00  0.00    -0.004 C 
HETATM   16  C   UNL     1     -20.565  -5.566  -6.333  1.00  0.00    -0.023 C 
BRANCH  16  17
HETATM   17  C   UNL     1     -20.359  -4.183  -6.885  1.00  0.00     0.054 C 
BRANCH  17  18
HETATM   18  C   UNL     1     -21.591  -3.677  -7.579  1.00  0.00    -0.027 C 
HETATM   19  C   UNL     1     -22.547  -4.480  -8.074  1.00  0.00    -0.030 C 
BRANCH  19  20
HETATM   20  C   UNL     1     -23.794  -3.987  -8.751  1.00  0.00     0.027 C 
BRANCH  20  21
HETATM   21  C   UNL     1     -23.503  -3.441 -10.150  1.00  0.00     0.014 C 
BRANCH  21  22
HETATM   22  C   UNL     1     -22.815  -4.466 -11.055  1.00  0.00     0.110 C 
BRANCH  22  23
HETATM   23  C   UNL     1     -21.530  -3.932 -11.632  1.00  0.00     0.139 C 
HETATM   24  O   UNL     1     -20.509  -3.698 -10.999  1.00  0.00    -0.650 OA
BRANCH  23  25
HETATM   25  O   UNL     1     -21.609  -3.733 -12.968  1.00  0.00    -0.776 OA
HETATM   26  H   UNL     1     -20.736  -3.655 -13.401  1.00  0.00     0.167 HD
ENDBRANCH  23  25
ENDBRANCH  22  23
ENDBRANCH  21  22
ENDBRANCH  20  21
ENDBRANCH  19  20
ENDBRANCH  17  18
ENDBRANCH  16  17
ENDBRANCH   2  15
TORSDOF 17
ENDMDL
