REMARK  4 active torsions:
REMARK  status: ('A' for Active; 'I' for Inactive)
REMARK       I    between atoms: C_2  and  N_3 
REMARK       I    between atoms: C_2  and  N_15 
REMARK    1  A    between atoms: N_3  and  C_4 
REMARK    2  A    between atoms: C_7  and  C_8 
REMARK    3  A    between atoms: N_18  and  C_19 
REMARK    4  A    between atoms: C_25  and  C_26 
ROOT
HETATM    1  O   UNL     1       0.920  -0.012   0.350  1.00  0.00    -0.247 OA
HETATM    2  C   UNL     1       2.057   0.150  -0.085  1.00  0.00     0.324 C 
HETATM    3  N   UNL     1       2.672  -0.718  -0.955  1.00  0.00    -0.295 N 
HETATM    4  N   UNL     1       2.827   1.228   0.298  1.00  0.00    -0.331 N 
HETATM    5  C   UNL     1       2.449   1.970   1.515  1.00  0.00     0.147 C 
HETATM    6  C   UNL     1       2.618   3.494   1.354  1.00  0.00     0.144 C 
HETATM    7  N   UNL     1       3.990   3.734   0.864  1.00  0.00    -0.363 N 
HETATM    8  C   UNL     1       4.189   3.158  -0.474  1.00  0.00     0.144 C 
HETATM    9  C   UNL     1       4.095   1.622  -0.333  1.00  0.00     0.147 C 
HETATM   10  H   UNL     1       3.632  -0.936  -0.732  1.00  0.00     0.172 HD
ENDROOT
BRANCH   3  11
HETATM   11  C   UNL     1       1.997  -1.820  -1.483  1.00  0.00     0.108 A 
HETATM   12  C   UNL     1       0.693  -1.707  -1.950  1.00  0.00     0.049 A 
HETATM   13  C   UNL     1       0.031  -2.856  -2.367  1.00  0.00     0.021 A 
HETATM   14  C   UNL     1       0.685  -4.083  -2.291  1.00  0.00     0.063 A 
HETATM   15  C   UNL     1       2.007  -4.087  -1.863  1.00  0.00     0.106 A 
HETATM   16  N   UNL     1       2.687  -2.977  -1.490  1.00  0.00    -0.351 N 
ATOM     17  HN  UNL     1       3.672  -3.015  -1.228  1.00  0.00     0.166 HD
BRANCH  14  18
HETATM   18  C   UNL     1       0.007  -5.373  -2.635  1.00  0.00     0.418 C 
HETATM   19  F   UNL     1      -1.260  -5.212  -3.107  1.00  0.00    -0.166 F 
HETATM   20  F   UNL     1       0.673  -6.074  -3.591  1.00  0.00    -0.166 F 
HETATM   21  F   UNL     1      -0.096  -6.205  -1.564  1.00  0.00    -0.166 F 
ENDBRANCH  14  18
ENDBRANCH   3  11
BRANCH   7  22
HETATM   22  C   UNL     1       4.632   4.891   1.241  1.00  0.00     0.118 A 
HETATM   23  N   UNL     1       3.844   5.923   1.637  1.00  0.00    -0.352 N 
HETATM   24  C   UNL     1       4.409   7.057   2.109  1.00  0.00     0.089 A 
ATOM     25  HN  UNL     1       2.829   5.843   1.579  1.00  0.00     0.166 HD
HETATM   26  C   UNL     1       5.768   7.241   2.219  1.00  0.00     0.018 A 
HETATM   27  C   UNL     1       6.580   6.195   1.817  1.00  0.00     0.021 A 
HETATM   28  C   UNL     1       6.024   4.992   1.331  1.00  0.00     0.091 A 
BRANCH  28  29
HETATM   29  C   UNL     1       7.008   3.901   1.023  1.00  0.00     0.421 C 
HETATM   30  F   UNL     1       6.520   2.681   0.681  1.00  0.00    -0.166 F 
HETATM   31  F   UNL     1       7.832   4.251  -0.009  1.00  0.00    -0.166 F 
HETATM   32  F   UNL     1       7.843   3.654   2.076  1.00  0.00    -0.166 F 
ENDBRANCH  28  29
ENDBRANCH   7  22
TORSDOF 4
