MODEL 1
REMARK VINA RESULT:      -9.8      0.000      0.000
REMARK  4 active torsions:
REMARK  status: ('A' for Active; 'I' for Inactive)
REMARK       I    between atoms: C_2  and  N_3 
REMARK       I    between atoms: C_2  and  N_15 
REMARK    1  A    between atoms: N_3  and  C_4 
REMARK    2  A    between atoms: C_7  and  C_8 
REMARK    3  A    between atoms: N_18  and  C_19 
REMARK    4  A    between atoms: C_25  and  C_26 
ROOT
HETATM    1  O   UNL     1     -20.360  -4.780  -5.256  1.00  0.00    -0.247 OA
HETATM    2  C   UNL     1     -21.066  -5.771  -5.420  1.00  0.00     0.324 C 
HETATM    3  N   UNL     1     -21.775  -6.020  -6.571  1.00  0.00    -0.295 N 
HETATM    4  N   UNL     1     -21.221  -6.716  -4.428  1.00  0.00    -0.331 N 
HETATM    5  C   UNL     1     -20.865  -6.353  -3.044  1.00  0.00     0.147 C 
HETATM    6  C   UNL     1     -20.152  -7.498  -2.298  1.00  0.00     0.144 C 
HETATM    7  N   UNL     1     -20.990  -8.705  -2.442  1.00  0.00    -0.363 N 
HETATM    8  C   UNL     1     -21.081  -9.128  -3.847  1.00  0.00     0.144 C 
HETATM    9  C   UNL     1     -21.856  -8.030  -4.610  1.00  0.00     0.147 C 
HETATM   10  H   UNL     1     -22.723  -6.337  -6.427  1.00  0.00     0.172 HD
ENDROOT
BRANCH   3  11
HETATM   11  C   UNL     1     -21.668  -5.189  -7.687  1.00  0.00     0.108 A 
HETATM   12  C   UNL     1     -22.738  -4.408  -8.106  1.00  0.00     0.049 A 
HETATM   13  C   UNL     1     -22.613  -3.680  -9.283  1.00  0.00     0.021 A 
HETATM   14  C   UNL     1     -21.430  -3.765 -10.013  1.00  0.00     0.063 A 
HETATM   15  C   UNL     1     -20.396  -4.528  -9.484  1.00  0.00     0.106 A 
HETATM   16  N   UNL     1     -20.479  -5.214  -8.320  1.00  0.00    -0.351 N 
ATOM     17  HN  UNL     1     -19.681  -5.724  -7.941  1.00  0.00     0.166 HD
BRANCH  14  18
HETATM   18  C   UNL     1     -21.255  -3.084 -11.335  1.00  0.00     0.418 C 
HETATM   19  F   UNL     1     -22.234  -2.179 -11.614  1.00  0.00    -0.166 F 
HETATM   20  F   UNL     1     -20.083  -2.400 -11.419  1.00  0.00    -0.166 F 
HETATM   21  F   UNL     1     -21.251  -3.962 -12.374  1.00  0.00    -0.166 F 
ENDBRANCH  14  18
ENDBRANCH   3  11
BRANCH   7  22
HETATM   22  C   UNL     1     -21.000  -9.627  -1.422  1.00  0.00     0.118 A 
HETATM   23  N   UNL     1     -20.180 -10.700  -1.562  1.00  0.00    -0.352 N 
HETATM   24  C   UNL     1     -20.069 -11.597  -0.557  1.00  0.00     0.089 A 
ATOM     25  HN  UNL     1     -19.649 -10.828  -2.424  1.00  0.00     0.166 HD
HETATM   26  C   UNL     1     -20.750 -11.494   0.634  1.00  0.00     0.018 A 
HETATM   27  C   UNL     1     -21.589 -10.404   0.787  1.00  0.00     0.021 A 
HETATM   28  C   UNL     1     -21.720  -9.441  -0.237  1.00  0.00     0.091 A 
BRANCH  28  29
HETATM   29  C   UNL     1     -22.583  -8.258   0.092  1.00  0.00     0.421 C 
HETATM   30  F   UNL     1     -22.914  -7.411  -0.916  1.00  0.00    -0.166 F 
HETATM   31  F   UNL     1     -23.777  -8.647   0.630  1.00  0.00    -0.166 F 
HETATM   32  F   UNL     1     -22.011  -7.457   1.040  1.00  0.00    -0.166 F 
ENDBRANCH  28  29
ENDBRANCH   7  22
TORSDOF 4
ENDMDL
MODEL 2
REMARK VINA RESULT:      -9.1      2.015      2.999
REMARK  4 active torsions:
REMARK  status: ('A' for Active; 'I' for Inactive)
REMARK       I    between atoms: C_2  and  N_3 
REMARK       I    between atoms: C_2  and  N_15 
REMARK    1  A    between atoms: N_3  and  C_4 
REMARK    2  A    between atoms: C_7  and  C_8 
REMARK    3  A    between atoms: N_18  and  C_19 
REMARK    4  A    between atoms: C_25  and  C_26 
ROOT
HETATM    1  O   UNL     1     -20.290  -5.250  -8.915  1.00  0.00    -0.247 OA
HETATM    2  C   UNL     1     -21.242  -5.234  -8.139  1.00  0.00     0.324 C 
HETATM    3  N   UNL     1     -22.451  -4.647  -8.427  1.00  0.00    -0.295 N 
HETATM    4  N   UNL     1     -21.156  -5.795  -6.883  1.00  0.00    -0.331 N 
HETATM    5  C   UNL     1     -19.821  -6.065  -6.319  1.00  0.00     0.147 C 
HETATM    6  C   UNL     1     -19.760  -7.406  -5.561  1.00  0.00     0.144 C 
HETATM    7  N   UNL     1     -20.872  -7.412  -4.590  1.00  0.00    -0.363 N 
HETATM    8  C   UNL     1     -22.176  -7.387  -5.269  1.00  0.00     0.144 C 
HETATM    9  C   UNL     1     -22.297  -6.021  -5.983  1.00  0.00     0.147 C 
HETATM   10  H   UNL     1     -22.843  -4.090  -7.682  1.00  0.00     0.172 HD
ENDROOT
BRANCH   3  11
HETATM   11  C   UNL     1     -22.712  -4.095  -9.682  1.00  0.00     0.108 A 
HETATM   12  C   UNL     1     -24.000  -3.722 -10.049  1.00  0.00     0.049 A 
HETATM   13  C   UNL     1     -24.222  -3.277 -11.347  1.00  0.00     0.021 A 
HETATM   14  C   UNL     1     -23.156  -3.231 -12.242  1.00  0.00     0.063 A 
HETATM   15  C   UNL     1     -21.896  -3.570 -11.766  1.00  0.00     0.106 A 
HETATM   16  N   UNL     1     -21.646  -3.968 -10.496  1.00  0.00    -0.351 N 
ATOM     17  HN  UNL     1     -20.699  -4.162 -10.172  1.00  0.00     0.166 HD
BRANCH  14  18
HETATM   18  C   UNL     1     -23.335  -2.850 -13.679  1.00  0.00     0.418 C 
HETATM   19  F   UNL     1     -22.165  -2.784 -14.373  1.00  0.00    -0.166 F 
HETATM   20  F   UNL     1     -24.120  -3.728 -14.358  1.00  0.00    -0.166 F 
HETATM   21  F   UNL     1     -23.924  -1.633 -13.822  1.00  0.00    -0.166 F 
ENDBRANCH  14  18
ENDBRANCH   3  11
BRANCH   7  22
HETATM   22  C   UNL     1     -20.705  -8.082  -3.400  1.00  0.00     0.118 A 
HETATM   23  N   UNL     1     -19.972  -9.224  -3.441  1.00  0.00    -0.352 N 
HETATM   24  C   UNL     1     -19.689  -9.883  -2.295  1.00  0.00     0.089 A 
ATOM     25  HN  UNL     1     -19.635  -9.583  -4.334  1.00  0.00     0.166 HD
HETATM   26  C   UNL     1     -20.105  -9.462  -1.053  1.00  0.00     0.018 A 
HETATM   27  C   UNL     1     -20.854  -8.300  -1.000  1.00  0.00     0.021 A 
HETATM   28  C   UNL     1     -21.158  -7.579  -2.176  1.00  0.00     0.091 A 
BRANCH  28  29
HETATM   29  C   UNL     1     -21.890  -6.285  -1.972  1.00  0.00     0.421 C 
HETATM   30  F   UNL     1     -23.087  -6.125  -2.592  1.00  0.00    -0.166 F 
HETATM   31  F   UNL     1     -22.148  -6.062  -0.649  1.00  0.00    -0.166 F 
HETATM   32  F   UNL     1     -21.148  -5.210  -2.374  1.00  0.00    -0.166 F 
ENDBRANCH  28  29
ENDBRANCH   7  22
TORSDOF 4
ENDMDL
MODEL 3
REMARK VINA RESULT:      -9.0      2.872      3.959
REMARK  4 active torsions:
REMARK  status: ('A' for Active; 'I' for Inactive)
REMARK       I    between atoms: C_2  and  N_3 
REMARK       I    between atoms: C_2  and  N_15 
REMARK    1  A    between atoms: N_3  and  C_4 
REMARK    2  A    between atoms: C_7  and  C_8 
REMARK    3  A    between atoms: N_18  and  C_19 
REMARK    4  A    between atoms: C_25  and  C_26 
ROOT
HETATM    1  O   UNL     1     -20.710  -3.958  -8.746  1.00  0.00    -0.247 OA
HETATM    2  C   UNL     1     -21.783  -4.243  -8.220  1.00  0.00     0.324 C 
HETATM    3  N   UNL     1     -23.000  -4.098  -8.841  1.00  0.00    -0.295 N 
HETATM    4  N   UNL     1     -21.846  -4.716  -6.926  1.00  0.00    -0.331 N 
HETATM    5  C   UNL     1     -20.683  -4.514  -6.042  1.00  0.00     0.147 C 
HETATM    6  C   UNL     1     -20.396  -5.741  -5.154  1.00  0.00     0.144 C 
HETATM    7  N   UNL     1     -21.658  -6.095  -4.473  1.00  0.00    -0.363 N 
HETATM    8  C   UNL     1     -22.685  -6.520  -5.436  1.00  0.00     0.144 C 
HETATM    9  C   UNL     1     -23.045  -5.289  -6.298  1.00  0.00     0.147 C 
HETATM   10  H   UNL     1     -23.723  -3.687  -8.271  1.00  0.00     0.172 HD
ENDROOT
BRANCH   3  11
HETATM   11  C   UNL     1     -23.093  -3.692 -10.174  1.00  0.00     0.108 A 
HETATM   12  C   UNL     1     -24.306  -3.285 -10.716  1.00  0.00     0.049 A 
HETATM   13  C   UNL     1     -24.365  -2.992 -12.074  1.00  0.00     0.021 A 
HETATM   14  C   UNL     1     -23.218  -3.130 -12.850  1.00  0.00     0.063 A 
HETATM   15  C   UNL     1     -22.040  -3.489 -12.206  1.00  0.00     0.106 A 
HETATM   16  N   UNL     1     -21.947  -3.740 -10.879  1.00  0.00    -0.351 N 
ATOM     17  HN  UNL     1     -21.053  -3.954 -10.436  1.00  0.00     0.166 HD
BRANCH  14  18
HETATM   18  C   UNL     1     -23.225  -2.922 -14.333  1.00  0.00     0.418 C 
HETATM   19  F   UNL     1     -23.700  -1.702 -14.708  1.00  0.00    -0.166 F 
HETATM   20  F   UNL     1     -21.985  -3.022 -14.881  1.00  0.00    -0.166 F 
HETATM   21  F   UNL     1     -23.995  -3.837 -14.980  1.00  0.00    -0.166 F 
ENDBRANCH  14  18
ENDBRANCH   3  11
BRANCH   7  22
HETATM   22  C   UNL     1     -21.597  -6.645  -3.214  1.00  0.00     0.118 A 
HETATM   23  N   UNL     1     -22.225  -5.964  -2.221  1.00  0.00    -0.352 N 
HETATM   24  C   UNL     1     -22.285  -6.492  -0.978  1.00  0.00     0.089 A 
ATOM     25  HN  UNL     1     -22.651  -5.058  -2.413  1.00  0.00     0.166 HD
HETATM   26  C   UNL     1     -21.736  -7.708  -0.641  1.00  0.00     0.018 A 
HETATM   27  C   UNL     1     -21.093  -8.409  -1.645  1.00  0.00     0.021 A 
HETATM   28  C   UNL     1     -21.022  -7.894  -2.958  1.00  0.00     0.091 A 
BRANCH  28  29
HETATM   29  C   UNL     1     -20.386  -8.796  -3.975  1.00  0.00     0.421 C 
HETATM   30  F   UNL     1     -20.000 -10.035  -3.575  1.00  0.00    -0.166 F 
HETATM   31  F   UNL     1     -21.217  -9.013  -5.037  1.00  0.00    -0.166 F 
HETATM   32  F   UNL     1     -19.259  -8.243  -4.514  1.00  0.00    -0.166 F 
ENDBRANCH  28  29
ENDBRANCH   7  22
TORSDOF 4
ENDMDL
MODEL 4
REMARK VINA RESULT:      -8.7      1.890     10.280
REMARK  4 active torsions:
REMARK  status: ('A' for Active; 'I' for Inactive)
REMARK       I    between atoms: C_2  and  N_3 
REMARK       I    between atoms: C_2  and  N_15 
REMARK    1  A    between atoms: N_3  and  C_4 
REMARK    2  A    between atoms: C_7  and  C_8 
REMARK    3  A    between atoms: N_18  and  C_19 
REMARK    4  A    between atoms: C_25  and  C_26 
ROOT
HETATM    1  O   UNL     1     -20.384  -4.940  -4.098  1.00  0.00    -0.247 OA
HETATM    2  C   UNL     1     -21.127  -5.671  -4.746  1.00  0.00     0.324 C 
HETATM    3  N   UNL     1     -21.663  -6.840  -4.260  1.00  0.00    -0.295 N 
HETATM    4  N   UNL     1     -21.465  -5.378  -6.051  1.00  0.00    -0.331 N 
HETATM    5  C   UNL     1     -20.638  -4.411  -6.796  1.00  0.00     0.147 C 
HETATM    6  C   UNL     1     -21.481  -3.468  -7.677  1.00  0.00     0.144 C 
HETATM    7  N   UNL     1     -22.367  -4.314  -8.502  1.00  0.00    -0.363 N 
HETATM    8  C   UNL     1     -23.324  -5.058  -7.669  1.00  0.00     0.144 C 
HETATM    9  C   UNL     1     -22.513  -6.064  -6.822  1.00  0.00     0.147 C 
HETATM   10  H   UNL     1     -21.628  -7.622  -4.897  1.00  0.00     0.172 HD
ENDROOT
BRANCH   3  11
HETATM   11  C   UNL     1     -21.464  -7.236  -2.937  1.00  0.00     0.108 A 
HETATM   12  C   UNL     1     -20.561  -8.243  -2.617  1.00  0.00     0.049 A 
HETATM   13  C   UNL     1     -20.479  -8.672  -1.297  1.00  0.00     0.021 A 
HETATM   14  C   UNL     1     -21.310  -8.094  -0.341  1.00  0.00     0.063 A 
HETATM   15  C   UNL     1     -22.140  -7.056  -0.747  1.00  0.00     0.106 A 
HETATM   16  N   UNL     1     -22.209  -6.593  -2.017  1.00  0.00    -0.351 N 
ATOM     17  HN  UNL     1     -22.796  -5.796  -2.266  1.00  0.00     0.166 HD
BRANCH  14  18
HETATM   18  C   UNL     1     -21.344  -8.566   1.079  1.00  0.00     0.418 C 
HETATM   19  F   UNL     1     -20.280  -8.146   1.817  1.00  0.00    -0.166 F 
HETATM   20  F   UNL     1     -22.450  -8.139   1.745  1.00  0.00    -0.166 F 
HETATM   21  F   UNL     1     -21.351  -9.923   1.174  1.00  0.00    -0.166 F 
ENDBRANCH  14  18
ENDBRANCH   3  11
BRANCH   7  22
HETATM   22  C   UNL     1     -22.712  -3.878  -9.760  1.00  0.00     0.118 A 
HETATM   23  N   UNL     1     -24.007  -3.516  -9.946  1.00  0.00    -0.352 N 
HETATM   24  C   UNL     1     -24.394  -2.990 -11.130  1.00  0.00     0.089 A 
ATOM     25  HN  UNL     1     -24.685  -3.639  -9.195  1.00  0.00     0.166 HD
HETATM   26  C   UNL     1     -23.540  -2.791 -12.190  1.00  0.00     0.018 A 
HETATM   27  C   UNL     1     -22.217  -3.157 -12.011  1.00  0.00     0.021 A 
HETATM   28  C   UNL     1     -21.776  -3.698 -10.784  1.00  0.00     0.091 A 
BRANCH  28  29
HETATM   29  C   UNL     1     -20.301  -3.960 -10.685  1.00  0.00     0.421 C 
HETATM   30  F   UNL     1     -19.899  -5.132 -10.129  1.00  0.00    -0.166 F 
HETATM   31  F   UNL     1     -19.707  -3.934 -11.915  1.00  0.00    -0.166 F 
HETATM   32  F   UNL     1     -19.658  -2.997  -9.959  1.00  0.00    -0.166 F 
ENDBRANCH  28  29
ENDBRANCH   7  22
TORSDOF 4
ENDMDL
MODEL 5
REMARK VINA RESULT:      -8.5      1.993      2.364
REMARK  4 active torsions:
REMARK  status: ('A' for Active; 'I' for Inactive)
REMARK       I    between atoms: C_2  and  N_3 
REMARK       I    between atoms: C_2  and  N_15 
REMARK    1  A    between atoms: N_3  and  C_4 
REMARK    2  A    between atoms: C_7  and  C_8 
REMARK    3  A    between atoms: N_18  and  C_19 
REMARK    4  A    between atoms: C_25  and  C_26 
ROOT
HETATM    1  O   UNL     1     -20.601  -4.750  -5.210  1.00  0.00    -0.247 OA
HETATM    2  C   UNL     1     -21.217  -5.788  -5.433  1.00  0.00     0.324 C 
HETATM    3  N   UNL     1     -21.815  -6.077  -6.636  1.00  0.00    -0.295 N 
HETATM    4  N   UNL     1     -21.380  -6.751  -4.460  1.00  0.00    -0.331 N 
HETATM    5  C   UNL     1     -21.160  -6.377  -3.051  1.00  0.00     0.147 C 
HETATM    6  C   UNL     1     -20.425  -7.475  -2.256  1.00  0.00     0.144 C 
HETATM    7  N   UNL     1     -21.159  -8.738  -2.471  1.00  0.00    -0.363 N 
HETATM    8  C   UNL     1     -21.109  -9.153  -3.880  1.00  0.00     0.144 C 
HETATM    9  C   UNL     1     -21.900  -8.106  -4.697  1.00  0.00     0.147 C 
HETATM   10  H   UNL     1     -22.745  -6.463  -6.568  1.00  0.00     0.172 HD
ENDROOT
BRANCH   3  11
HETATM   11  C   UNL     1     -21.683  -5.229  -7.737  1.00  0.00     0.108 A 
HETATM   12  C   UNL     1     -22.751  -4.460  -8.184  1.00  0.00     0.049 A 
HETATM   13  C   UNL     1     -22.597  -3.714  -9.347  1.00  0.00     0.021 A 
HETATM   14  C   UNL     1     -21.388  -3.770 -10.035  1.00  0.00     0.063 A 
HETATM   15  C   UNL     1     -20.361  -4.524  -9.480  1.00  0.00     0.106 A 
HETATM   16  N   UNL     1     -20.472  -5.226  -8.328  1.00  0.00    -0.351 N 
ATOM     17  HN  UNL     1     -19.680  -5.728  -7.928  1.00  0.00     0.166 HD
BRANCH  14  18
HETATM   18  C   UNL     1     -21.178  -3.068 -11.341  1.00  0.00     0.418 C 
HETATM   19  F   UNL     1     -22.175  -2.196 -11.655  1.00  0.00    -0.166 F 
HETATM   20  F   UNL     1     -20.029  -2.343 -11.365  1.00  0.00    -0.166 F 
HETATM   21  F   UNL     1     -21.096  -3.934 -12.387  1.00  0.00    -0.166 F 
ENDBRANCH  14  18
ENDBRANCH   3  11
BRANCH   7  22
HETATM   22  C   UNL     1     -21.180  -9.669  -1.458  1.00  0.00     0.118 A 
HETATM   23  N   UNL     1     -22.334  -9.771  -0.750  1.00  0.00    -0.352 N 
HETATM   24  C   UNL     1     -22.458 -10.728   0.198  1.00  0.00     0.089 A 
ATOM     25  HN  UNL     1     -23.105  -9.129  -0.932  1.00  0.00     0.166 HD
HETATM   26  C   UNL     1     -21.465 -11.631   0.502  1.00  0.00     0.018 A 
HETATM   27  C   UNL     1     -20.284 -11.534  -0.214  1.00  0.00     0.021 A 
HETATM   28  C   UNL     1     -20.125 -10.555  -1.219  1.00  0.00     0.091 A 
BRANCH  28  29
HETATM   29  C   UNL     1     -18.838 -10.620  -1.988  1.00  0.00     0.421 C 
HETATM   30  F   UNL     1     -18.234  -9.450  -2.319  1.00  0.00    -0.166 F 
HETATM   31  F   UNL     1     -17.886 -11.325  -1.307  1.00  0.00    -0.166 F 
HETATM   32  F   UNL     1     -18.985 -11.278  -3.176  1.00  0.00    -0.166 F 
ENDBRANCH  28  29
ENDBRANCH   7  22
TORSDOF 4
ENDMDL
MODEL 6
REMARK VINA RESULT:      -8.2      2.167      9.986
REMARK  4 active torsions:
REMARK  status: ('A' for Active; 'I' for Inactive)
REMARK       I    between atoms: C_2  and  N_3 
REMARK       I    between atoms: C_2  and  N_15 
REMARK    1  A    between atoms: N_3  and  C_4 
REMARK    2  A    between atoms: C_7  and  C_8 
REMARK    3  A    between atoms: N_18  and  C_19 
REMARK    4  A    between atoms: C_25  and  C_26 
ROOT
HETATM    1  O   UNL     1     -20.821  -5.590  -3.395  1.00  0.00    -0.247 OA
HETATM    2  C   UNL     1     -20.755  -6.332  -4.371  1.00  0.00     0.324 C 
HETATM    3  N   UNL     1     -20.607  -7.696  -4.285  1.00  0.00    -0.295 N 
HETATM    4  N   UNL     1     -20.798  -5.835  -5.657  1.00  0.00    -0.331 N 
HETATM    5  C   UNL     1     -20.532  -4.400  -5.870  1.00  0.00     0.147 C 
HETATM    6  C   UNL     1     -21.464  -3.777  -6.928  1.00  0.00     0.144 C 
HETATM    7  N   UNL     1     -21.385  -4.624  -8.135  1.00  0.00    -0.363 N 
HETATM    8  C   UNL     1     -21.906  -5.974  -7.877  1.00  0.00     0.144 C 
HETATM    9  C   UNL     1     -20.951  -6.652  -6.870  1.00  0.00     0.147 C 
HETATM   10  H   UNL     1     -19.930  -8.092  -4.920  1.00  0.00     0.172 HD
ENDROOT
BRANCH   3  11
HETATM   11  C   UNL     1     -20.612  -8.352  -3.053  1.00  0.00     0.108 A 
HETATM   12  C   UNL     1     -19.619  -9.266  -2.722  1.00  0.00     0.049 A 
HETATM   13  C   UNL     1     -19.729  -9.970  -1.528  1.00  0.00     0.021 A 
HETATM   14  C   UNL     1     -20.834  -9.750  -0.709  1.00  0.00     0.063 A 
HETATM   15  C   UNL     1     -21.745  -8.775  -1.098  1.00  0.00     0.106 A 
HETATM   16  N   UNL     1     -21.639  -8.048  -2.235  1.00  0.00    -0.351 N 
ATOM     17  HN  UNL     1     -22.303  -7.308  -2.462  1.00  0.00     0.166 HD
BRANCH  14  18
HETATM   18  C   UNL     1     -21.068 -10.534   0.545  1.00  0.00     0.418 C 
HETATM   19  F   UNL     1     -20.801  -9.833   1.681  1.00  0.00    -0.166 F 
HETATM   20  F   UNL     1     -22.354 -10.958   0.663  1.00  0.00    -0.166 F 
HETATM   21  F   UNL     1     -20.297 -11.653   0.606  1.00  0.00    -0.166 F 
ENDBRANCH  14  18
ENDBRANCH   3  11
BRANCH   7  22
HETATM   22  C   UNL     1     -21.531  -4.030  -9.368  1.00  0.00     0.118 A 
HETATM   23  N   UNL     1     -20.401  -3.866 -10.102  1.00  0.00    -0.352 N 
HETATM   24  C   UNL     1     -20.483  -3.376 -11.360  1.00  0.00     0.089 A 
ATOM     25  HN  UNL     1     -19.494  -4.112  -9.707  1.00  0.00     0.166 HD
HETATM   26  C   UNL     1     -21.668  -3.022 -11.963  1.00  0.00     0.018 A 
HETATM   27  C   UNL     1     -22.825  -3.185 -11.222  1.00  0.00     0.021 A 
HETATM   28  C   UNL     1     -22.778  -3.706  -9.911  1.00  0.00     0.091 A 
BRANCH  28  29
HETATM   29  C   UNL     1     -24.110  -3.926  -9.253  1.00  0.00     0.421 C 
HETATM   30  F   UNL     1     -24.146  -3.999  -7.898  1.00  0.00    -0.166 F 
HETATM   31  F   UNL     1     -24.994  -2.935  -9.574  1.00  0.00    -0.166 F 
HETATM   32  F   UNL     1     -24.703  -5.082  -9.675  1.00  0.00    -0.166 F 
ENDBRANCH  28  29
ENDBRANCH   7  22
TORSDOF 4
ENDMDL
MODEL 7
REMARK VINA RESULT:      -7.7      6.594     10.145
REMARK  4 active torsions:
REMARK  status: ('A' for Active; 'I' for Inactive)
REMARK       I    between atoms: C_2  and  N_3 
REMARK       I    between atoms: C_2  and  N_15 
REMARK    1  A    between atoms: N_3  and  C_4 
REMARK    2  A    between atoms: C_7  and  C_8 
REMARK    3  A    between atoms: N_18  and  C_19 
REMARK    4  A    between atoms: C_25  and  C_26 
ROOT
HETATM    1  O   UNL     1     -20.168 -11.881  -4.027  1.00  0.00    -0.247 OA
HETATM    2  C   UNL     1     -19.065 -11.694  -3.520  1.00  0.00     0.324 C 
HETATM    3  N   UNL     1     -18.838 -10.807  -2.495  1.00  0.00    -0.295 N 
HETATM    4  N   UNL     1     -17.944 -12.358  -3.970  1.00  0.00    -0.331 N 
HETATM    5  C   UNL     1     -17.984 -12.992  -5.300  1.00  0.00     0.147 C 
HETATM    6  C   UNL     1     -17.279 -14.363  -5.323  1.00  0.00     0.144 C 
HETATM    7  N   UNL     1     -15.932 -14.173  -4.750  1.00  0.00    -0.363 N 
HETATM    8  C   UNL     1     -16.002 -13.774  -3.337  1.00  0.00     0.144 C 
HETATM    9  C   UNL     1     -16.642 -12.368  -3.287  1.00  0.00     0.147 C 
HETATM   10  H   UNL     1     -18.016 -10.232  -2.603  1.00  0.00     0.172 HD
ENDROOT
BRANCH   3  11
HETATM   11  C   UNL     1     -19.885 -10.109  -1.890  1.00  0.00     0.108 A 
HETATM   12  C   UNL     1     -20.014  -8.734  -2.043  1.00  0.00     0.049 A 
HETATM   13  C   UNL     1     -21.011  -8.074  -1.334  1.00  0.00     0.021 A 
HETATM   14  C   UNL     1     -21.838  -8.803  -0.484  1.00  0.00     0.063 A 
HETATM   15  C   UNL     1     -21.668 -10.182  -0.441  1.00  0.00     0.106 A 
HETATM   16  N   UNL     1     -20.731 -10.853  -1.152  1.00  0.00    -0.351 N 
ATOM     17  HN  UNL     1     -20.670 -11.871  -1.130  1.00  0.00     0.166 HD
BRANCH  14  18
HETATM   18  C   UNL     1     -22.873  -8.151   0.379  1.00  0.00     0.418 C 
HETATM   19  F   UNL     1     -23.330  -6.969  -0.119  1.00  0.00    -0.166 F 
HETATM   20  F   UNL     1     -23.973  -8.930   0.556  1.00  0.00    -0.166 F 
HETATM   21  F   UNL     1     -22.406  -7.874   1.627  1.00  0.00    -0.166 F 
ENDBRANCH  14  18
ENDBRANCH   3  11
BRANCH   7  22
HETATM   22  C   UNL     1     -14.901 -14.956  -5.216  1.00  0.00     0.118 A 
HETATM   23  N   UNL     1     -15.045 -16.299  -5.076  1.00  0.00    -0.352 N 
HETATM   24  C   UNL     1     -14.115 -17.132  -5.594  1.00  0.00     0.089 A 
ATOM     25  HN  UNL     1     -15.852 -16.677  -4.581  1.00  0.00     0.166 HD
HETATM   26  C   UNL     1     -13.000 -16.699  -6.274  1.00  0.00     0.018 A 
HETATM   27  C   UNL     1     -12.844 -15.332  -6.422  1.00  0.00     0.021 A 
HETATM   28  C   UNL     1     -13.801 -14.433  -5.904  1.00  0.00     0.091 A 
BRANCH  28  29
HETATM   29  C   UNL     1     -13.566 -12.984  -6.218  1.00  0.00     0.421 C 
HETATM   30  F   UNL     1     -14.566 -12.294  -6.824  1.00  0.00    -0.166 F 
HETATM   31  F   UNL     1     -13.282 -12.270  -5.088  1.00  0.00    -0.166 F 
HETATM   32  F   UNL     1     -12.483 -12.807  -7.032  1.00  0.00    -0.166 F 
ENDBRANCH  28  29
ENDBRANCH   7  22
TORSDOF 4
ENDMDL
MODEL 8
REMARK VINA RESULT:      -7.7      2.145      2.508
REMARK  4 active torsions:
REMARK  status: ('A' for Active; 'I' for Inactive)
REMARK       I    between atoms: C_2  and  N_3 
REMARK       I    between atoms: C_2  and  N_15 
REMARK    1  A    between atoms: N_3  and  C_4 
REMARK    2  A    between atoms: C_7  and  C_8 
REMARK    3  A    between atoms: N_18  and  C_19 
REMARK    4  A    between atoms: C_25  and  C_26 
ROOT
HETATM    1  O   UNL     1     -19.510  -7.047  -6.772  1.00  0.00    -0.247 OA
HETATM    2  C   UNL     1     -20.430  -6.802  -5.996  1.00  0.00     0.324 C 
HETATM    3  N   UNL     1     -21.365  -5.817  -6.207  1.00  0.00    -0.295 N 
HETATM    4  N   UNL     1     -20.579  -7.499  -4.815  1.00  0.00    -0.331 N 
HETATM    5  C   UNL     1     -19.429  -8.260  -4.294  1.00  0.00     0.147 C 
HETATM    6  C   UNL     1     -19.843  -9.622  -3.699  1.00  0.00     0.144 C 
HETATM    7  N   UNL     1     -20.928  -9.366  -2.731  1.00  0.00    -0.363 N 
HETATM    8  C   UNL     1     -22.125  -8.831  -3.397  1.00  0.00     0.144 C 
HETATM    9  C   UNL     1     -21.761  -7.432  -3.944  1.00  0.00     0.147 C 
HETATM   10  H   UNL     1     -21.575  -5.250  -5.399  1.00  0.00     0.172 HD
ENDROOT
BRANCH   3  11
HETATM   11  C   UNL     1     -21.383  -5.072  -7.387  1.00  0.00     0.108 A 
HETATM   12  C   UNL     1     -22.520  -4.374  -7.777  1.00  0.00     0.049 A 
HETATM   13  C   UNL     1     -22.520  -3.735  -9.012  1.00  0.00     0.021 A 
HETATM   14  C   UNL     1     -21.392  -3.824  -9.824  1.00  0.00     0.063 A 
HETATM   15  C   UNL     1     -20.285  -4.497  -9.323  1.00  0.00     0.106 A 
HETATM   16  N   UNL     1     -20.245  -5.093  -8.107  1.00  0.00    -0.351 N 
ATOM     17  HN  UNL     1     -19.396  -5.536  -7.755  1.00  0.00     0.166 HD
BRANCH  14  18
HETATM   18  C   UNL     1     -21.351  -3.240 -11.202  1.00  0.00     0.418 C 
HETATM   19  F   UNL     1     -22.478  -2.551 -11.534  1.00  0.00    -0.166 F 
HETATM   20  F   UNL     1     -20.320  -2.370 -11.370  1.00  0.00    -0.166 F 
HETATM   21  F   UNL     1     -21.199  -4.191 -12.163  1.00  0.00    -0.166 F 
ENDBRANCH  14  18
ENDBRANCH   3  11
BRANCH   7  22
HETATM   22  C   UNL     1     -21.035 -10.183  -1.629  1.00  0.00     0.118 A 
HETATM   23  N   UNL     1     -20.652  -9.654  -0.439  1.00  0.00    -0.352 N 
HETATM   24  C   UNL     1     -20.818 -10.367   0.697  1.00  0.00     0.089 A 
ATOM     25  HN  UNL     1     -20.242  -8.721  -0.403  1.00  0.00     0.166 HD
HETATM   26  C   UNL     1     -21.363 -11.630   0.731  1.00  0.00     0.018 A 
HETATM   27  C   UNL     1     -21.755 -12.179  -0.478  1.00  0.00     0.021 A 
HETATM   28  C   UNL     1     -21.609 -11.458  -1.682  1.00  0.00     0.091 A 
BRANCH  28  29
HETATM   29  C   UNL     1     -22.164 -12.124  -2.908  1.00  0.00     0.421 C 
HETATM   30  F   UNL     1     -22.599 -13.405  -2.795  1.00  0.00    -0.166 F 
HETATM   31  F   UNL     1     -23.231 -11.433  -3.409  1.00  0.00    -0.166 F 
HETATM   32  F   UNL     1     -21.253 -12.159  -3.926  1.00  0.00    -0.166 F 
ENDBRANCH  28  29
ENDBRANCH   7  22
TORSDOF 4
ENDMDL
MODEL 9
REMARK VINA RESULT:      -7.6      2.953      4.042
REMARK  4 active torsions:
REMARK  status: ('A' for Active; 'I' for Inactive)
REMARK       I    between atoms: C_2  and  N_3 
REMARK       I    between atoms: C_2  and  N_15 
REMARK    1  A    between atoms: N_3  and  C_4 
REMARK    2  A    between atoms: C_7  and  C_8 
REMARK    3  A    between atoms: N_18  and  C_19 
REMARK    4  A    between atoms: C_25  and  C_26 
ROOT
HETATM    1  O   UNL     1     -19.475  -8.570  -3.650  1.00  0.00    -0.247 OA
HETATM    2  C   UNL     1     -20.620  -9.000  -3.769  1.00  0.00     0.324 C 
HETATM    3  N   UNL     1     -21.575  -8.416  -4.566  1.00  0.00    -0.295 N 
HETATM    4  N   UNL     1     -21.046 -10.112  -3.075  1.00  0.00    -0.331 N 
HETATM    5  C   UNL     1     -20.269 -10.555  -1.902  1.00  0.00     0.147 C 
HETATM    6  C   UNL     1     -20.145 -12.089  -1.820  1.00  0.00     0.144 C 
HETATM    7  N   UNL     1     -21.509 -12.646  -1.925  1.00  0.00    -0.363 N 
HETATM    8  C   UNL     1     -22.107 -12.354  -3.236  1.00  0.00     0.144 C 
HETATM    9  C   UNL     1     -22.309 -10.824  -3.321  1.00  0.00     0.147 C 
HETATM   10  H   UNL     1     -22.488  -8.333  -4.145  1.00  0.00     0.172 HD
ENDROOT
BRANCH   3  11
HETATM   11  C   UNL     1     -21.275  -7.322  -5.380  1.00  0.00     0.108 A 
HETATM   12  C   UNL     1     -22.129  -6.229  -5.455  1.00  0.00     0.049 A 
HETATM   13  C   UNL     1     -21.837  -5.214  -6.360  1.00  0.00     0.021 A 
HETATM   14  C   UNL     1     -20.711  -5.330  -7.171  1.00  0.00     0.063 A 
HETATM   15  C   UNL     1     -19.888  -6.434  -6.983  1.00  0.00     0.106 A 
HETATM   16  N   UNL     1     -20.129  -7.415  -6.081  1.00  0.00    -0.351 N 
ATOM     17  HN  UNL     1     -19.475  -8.184  -5.939  1.00  0.00     0.166 HD
BRANCH  14  18
HETATM   18  C   UNL     1     -20.382  -4.325  -8.231  1.00  0.00     0.418 C 
HETATM   19  F   UNL     1     -19.314  -3.539  -7.922  1.00  0.00    -0.166 F 
HETATM   20  F   UNL     1     -20.085  -4.903  -9.425  1.00  0.00    -0.166 F 
HETATM   21  F   UNL     1     -21.414  -3.473  -8.474  1.00  0.00    -0.166 F 
ENDBRANCH  14  18
ENDBRANCH   3  11
BRANCH   7  22
HETATM   22  C   UNL     1     -21.798 -13.813  -1.258  1.00  0.00     0.118 A 
HETATM   23  N   UNL     1     -21.231 -14.948  -1.742  1.00  0.00    -0.352 N 
HETATM   24  C   UNL     1     -21.396 -16.116  -1.081  1.00  0.00     0.089 A 
ATOM     25  HN  UNL     1     -20.682 -14.919  -2.601  1.00  0.00     0.166 HD
HETATM   26  C   UNL     1     -22.120 -16.236   0.082  1.00  0.00     0.018 A 
HETATM   27  C   UNL     1     -22.703 -15.086   0.583  1.00  0.00     0.021 A 
HETATM   28  C   UNL     1     -22.541 -13.847  -0.073  1.00  0.00     0.091 A 
BRANCH  28  29
HETATM   29  C   UNL     1     -23.138 -12.660   0.626  1.00  0.00     0.421 C 
HETATM   30  F   UNL     1     -22.316 -11.627   0.942  1.00  0.00    -0.166 F 
HETATM   31  F   UNL     1     -24.139 -12.098  -0.116  1.00  0.00    -0.166 F 
HETATM   32  F   UNL     1     -23.725 -13.007   1.810  1.00  0.00    -0.166 F 
ENDBRANCH  28  29
ENDBRANCH   7  22
TORSDOF 4
ENDMDL
