REMARK  10 active torsions:
REMARK  status: ('A' for Active; 'I' for Inactive)
REMARK    1  A    between atoms: C_2  and  O_3 
REMARK    2  A    between atoms: O_3  and  C_4 
REMARK    3  A    between atoms: C_4  and  C_6 
REMARK    4  A    between atoms: C_7  and  C_8 
REMARK    5  A    between atoms: C_17  and  C_18 
REMARK    6  A    between atoms: C_18  and  S_20 
REMARK    7  A    between atoms: S_20  and  C_21 
REMARK    8  A    between atoms: C_21  and  C_22 
REMARK    9  A    between atoms: C_22  and  O_23 
REMARK   10  A    between atoms: C_25  and  C_26 
ROOT
HETATM    1  C   UNL     1       4.744  -2.704   1.209  1.00  0.00     0.053 A 
HETATM    2  C   UNL     1       5.722  -2.493   2.124  1.00  0.00     0.055 A 
HETATM    3  N   UNL     1       6.159  -3.513   2.941  1.00  0.00    -0.358 N 
HETATM    4  C   UNL     1       5.630  -4.785   2.979  1.00  0.00     0.017 A 
HETATM    5  C   UNL     1       6.300  -5.706   3.978  1.00  0.00     0.069 C 
HETATM    6  C   UNL     1       4.616  -5.132   2.140  1.00  0.00     0.030 A 
HETATM    7  C   UNL     1       4.100  -4.115   1.072  1.00  0.00     0.066 A 
HETATM    8  H   UNL     1       6.916  -3.286   3.583  1.00  0.00     0.166 HD
ENDROOT
BRANCH   6   9
HETATM    9  C   UNL     1       4.000  -6.497   2.323  1.00  0.00     0.217 C 
HETATM   10  O   UNL     1       3.964  -7.064   3.409  1.00  0.00    -0.280 OA
BRANCH   9  11
HETATM   11  S   UNL     1       3.326  -7.292   0.914  1.00  0.00    -0.085 SA
BRANCH  11  12
HETATM   12  C   UNL     1       1.895  -8.160   1.677  1.00  0.00     0.108 C 
BRANCH  12  13
HETATM   13  C   UNL     1       0.999  -7.393   2.663  1.00  0.00     0.177 C 
BRANCH  13  14
HETATM   14  O   UNL     1       0.263  -6.350   2.020  1.00  0.00    -0.395 OA
HETATM   15  C   UNL     1      -0.602  -5.688   2.938  1.00  0.00     0.201 C 
ENDBRANCH  13  14
ENDBRANCH  12  13
ENDBRANCH  11  12
ENDBRANCH   9  11
ENDBRANCH   6   9
BRANCH   7  16
HETATM   16  C   UNL     1       2.547  -4.077   0.953  1.00  0.00     0.010 C 
HETATM   17  C   UNL     1       1.821  -3.435   2.115  1.00  0.00     0.006 C 
ENDBRANCH   7  16
BRANCH   1  18
HETATM   18  C   UNL     1       4.381  -1.586   0.287  1.00  0.00     0.292 C 
HETATM   19  O   UNL     1       5.172  -0.787  -0.189  1.00  0.00    -0.259 OA
BRANCH  18  20
HETATM   20  O   UNL     1       3.052  -1.572   0.050  1.00  0.00    -0.318 OA
BRANCH  20  21
HETATM   21  C   UNL     1       2.523  -0.553  -0.810  1.00  0.00     0.174 C 
HETATM   22  C   UNL     1       2.946  -0.753  -2.254  1.00  0.00     0.034 C 
ENDBRANCH  20  21
ENDBRANCH  18  20
ENDBRANCH   1  18
BRANCH   2  23
HETATM   23  C   UNL     1       6.393  -1.200   2.374  1.00  0.00    -0.009 A 
HETATM   24  C   UNL     1       5.893  -0.333   3.353  1.00  0.00     0.014 A 
HETATM   25  C   UNL     1       6.526   0.886   3.607  1.00  0.00     0.001 A 
HETATM   26  C   UNL     1       7.663   1.247   2.885  1.00  0.00     0.000 A 
HETATM   27  C   UNL     1       8.175   0.385   1.916  1.00  0.00     0.001 A 
HETATM   28  C   UNL     1       7.549  -0.839   1.667  1.00  0.00     0.014 A 
ENDBRANCH   2  23
TORSDOF 10
