MODEL 1
REMARK VINA RESULT:      -6.3      0.000      0.000
REMARK  10 active torsions:
REMARK  status: ('A' for Active; 'I' for Inactive)
REMARK    1  A    between atoms: C_2  and  O_3 
REMARK    2  A    between atoms: O_3  and  C_4 
REMARK    3  A    between atoms: C_4  and  C_6 
REMARK    4  A    between atoms: C_7  and  C_8 
REMARK    5  A    between atoms: C_17  and  C_18 
REMARK    6  A    between atoms: C_18  and  S_20 
REMARK    7  A    between atoms: S_20  and  C_21 
REMARK    8  A    between atoms: C_21  and  C_22 
REMARK    9  A    between atoms: C_22  and  O_23 
REMARK   10  A    between atoms: C_25  and  C_26 
ROOT
HETATM    1  C   UNL     1     -19.874  -9.426  -4.365  1.00  0.00     0.053 A 
HETATM    2  C   UNL     1     -19.587  -9.016  -3.105  1.00  0.00     0.055 A 
HETATM    3  N   UNL     1     -18.300  -9.074  -2.617  1.00  0.00    -0.358 N 
HETATM    4  C   UNL     1     -17.217  -9.600  -3.289  1.00  0.00     0.017 A 
HETATM    5  C   UNL     1     -15.917  -9.541  -2.513  1.00  0.00     0.069 C 
HETATM    6  C   UNL     1     -17.362 -10.083  -4.553  1.00  0.00     0.030 A 
HETATM    7  C   UNL     1     -18.740  -9.971  -5.281  1.00  0.00     0.066 A 
HETATM    8  H   UNL     1     -18.157  -8.722  -1.673  1.00  0.00     0.166 HD
ENDROOT
BRANCH   6   9
HETATM    9  C   UNL     1     -16.167 -10.759  -5.179  1.00  0.00     0.217 C 
HETATM   10  O   UNL     1     -15.438 -10.194  -5.986  1.00  0.00    -0.280 OA
BRANCH   9  11
HETATM   11  S   UNL     1     -15.833 -12.420  -4.732  1.00  0.00    -0.085 SA
BRANCH  11  12
HETATM   12  C   UNL     1     -14.008 -12.462  -4.957  1.00  0.00     0.108 C 
BRANCH  12  13
HETATM   13  C   UNL     1     -13.431 -13.064  -6.248  1.00  0.00     0.177 C 
BRANCH  13  14
HETATM   14  O   UNL     1     -13.502 -14.492  -6.253  1.00  0.00    -0.395 OA
HETATM   15  C   UNL     1     -13.245 -15.026  -4.958  1.00  0.00     0.201 C 
ENDBRANCH  13  14
ENDBRANCH  12  13
ENDBRANCH  11  12
ENDBRANCH   9  11
ENDBRANCH   6   9
BRANCH   7  16
HETATM   16  C   UNL     1     -19.137 -11.262  -6.056  1.00  0.00     0.010 C 
HETATM   17  C   UNL     1     -19.594 -12.421  -5.197  1.00  0.00     0.006 C 
ENDBRANCH   7  16
BRANCH   1  18
HETATM   18  C   UNL     1     -21.269  -9.248  -4.869  1.00  0.00     0.292 C 
HETATM   19  O   UNL     1     -22.255  -9.805  -4.411  1.00  0.00    -0.259 OA
BRANCH  18  20
HETATM   20  O   UNL     1     -21.298  -8.388  -5.909  1.00  0.00    -0.318 OA
BRANCH  20  21
HETATM   21  C   UNL     1     -21.552  -7.002  -5.640  1.00  0.00     0.174 C 
HETATM   22  C   UNL     1     -20.327  -6.141  -5.892  1.00  0.00     0.034 C 
ENDBRANCH  20  21
ENDBRANCH  18  20
ENDBRANCH   1  18
BRANCH   2  23
HETATM   23  C   UNL     1     -20.572  -8.508  -2.127  1.00  0.00    -0.009 A 
HETATM   24  C   UNL     1     -20.979  -9.319  -1.061  1.00  0.00     0.014 A 
HETATM   25  C   UNL     1     -21.900  -8.845  -0.123  1.00  0.00     0.001 A 
HETATM   26  C   UNL     1     -22.420  -7.557  -0.244  1.00  0.00     0.000 A 
HETATM   27  C   UNL     1     -22.013  -6.737  -1.297  1.00  0.00     0.001 A 
HETATM   28  C   UNL     1     -21.085  -7.206  -2.230  1.00  0.00     0.014 A 
ENDBRANCH   2  23
TORSDOF 10
ENDMDL
MODEL 2
REMARK VINA RESULT:      -6.3      2.390      3.787
REMARK  10 active torsions:
REMARK  status: ('A' for Active; 'I' for Inactive)
REMARK    1  A    between atoms: C_2  and  O_3 
REMARK    2  A    between atoms: O_3  and  C_4 
REMARK    3  A    between atoms: C_4  and  C_6 
REMARK    4  A    between atoms: C_7  and  C_8 
REMARK    5  A    between atoms: C_17  and  C_18 
REMARK    6  A    between atoms: C_18  and  S_20 
REMARK    7  A    between atoms: S_20  and  C_21 
REMARK    8  A    between atoms: C_21  and  C_22 
REMARK    9  A    between atoms: C_22  and  O_23 
REMARK   10  A    between atoms: C_25  and  C_26 
ROOT
HETATM    1  C   UNL     1     -20.018 -10.603  -1.850  1.00  0.00     0.053 A 
HETATM    2  C   UNL     1     -19.614  -9.516  -2.553  1.00  0.00     0.055 A 
HETATM    3  N   UNL     1     -18.286  -9.333  -2.872  1.00  0.00    -0.358 N 
HETATM    4  C   UNL     1     -17.250 -10.149  -2.471  1.00  0.00     0.017 A 
HETATM    5  C   UNL     1     -15.886  -9.709  -2.962  1.00  0.00     0.069 C 
HETATM    6  C   UNL     1     -17.502 -11.261  -1.727  1.00  0.00     0.030 A 
HETATM    7  C   UNL     1     -18.974 -11.664  -1.393  1.00  0.00     0.066 A 
HETATM    8  H   UNL     1     -18.063  -8.509  -3.427  1.00  0.00     0.166 HD
ENDROOT
BRANCH   6   9
HETATM    9  C   UNL     1     -16.313 -12.037  -1.215  1.00  0.00     0.217 C 
HETATM   10  O   UNL     1     -15.603 -11.630  -0.303  1.00  0.00    -0.280 OA
BRANCH   9  11
HETATM   11  S   UNL     1     -15.943 -13.572  -1.975  1.00  0.00    -0.085 SA
BRANCH  11  12
HETATM   12  C   UNL     1     -14.607 -13.056  -3.129  1.00  0.00     0.108 C 
BRANCH  12  13
HETATM   13  C   UNL     1     -14.928 -12.919  -4.626  1.00  0.00     0.177 C 
BRANCH  13  14
HETATM   14  O   UNL     1     -14.010 -12.051  -5.295  1.00  0.00    -0.395 OA
HETATM   15  C   UNL     1     -13.356 -12.722  -6.368  1.00  0.00     0.201 C 
ENDBRANCH  13  14
ENDBRANCH  12  13
ENDBRANCH  11  12
ENDBRANCH   9  11
ENDBRANCH   6   9
BRANCH   7  16
HETATM   16  C   UNL     1     -19.169 -12.128   0.082  1.00  0.00     0.010 C 
HETATM   17  C   UNL     1     -19.637 -13.556   0.258  1.00  0.00     0.006 C 
ENDBRANCH   7  16
BRANCH   1  18
HETATM   18  C   UNL     1     -21.481 -10.795  -1.619  1.00  0.00     0.292 C 
HETATM   19  O   UNL     1     -22.251 -11.320  -2.407  1.00  0.00    -0.259 OA
BRANCH  18  20
HETATM   20  O   UNL     1     -21.845 -10.304  -0.415  1.00  0.00    -0.318 OA
BRANCH  20  21
HETATM   21  C   UNL     1     -23.152  -9.730  -0.279  1.00  0.00     0.174 C 
HETATM   22  C   UNL     1     -23.114  -8.395   0.443  1.00  0.00     0.034 C 
ENDBRANCH  20  21
ENDBRANCH  18  20
ENDBRANCH   1  18
BRANCH   2  23
HETATM   23  C   UNL     1     -20.495  -8.425  -3.020  1.00  0.00    -0.009 A 
HETATM   24  C   UNL     1     -20.836  -7.384  -2.149  1.00  0.00     0.014 A 
HETATM   25  C   UNL     1     -21.658  -6.341  -2.582  1.00  0.00     0.001 A 
HETATM   26  C   UNL     1     -22.143  -6.331  -3.890  1.00  0.00     0.000 A 
HETATM   27  C   UNL     1     -21.799  -7.357  -4.768  1.00  0.00     0.001 A 
HETATM   28  C   UNL     1     -20.970  -8.396  -4.339  1.00  0.00     0.014 A 
ENDBRANCH   2  23
TORSDOF 10
ENDMDL
MODEL 3
REMARK VINA RESULT:      -6.1      2.329      3.829
REMARK  10 active torsions:
REMARK  status: ('A' for Active; 'I' for Inactive)
REMARK    1  A    between atoms: C_2  and  O_3 
REMARK    2  A    between atoms: O_3  and  C_4 
REMARK    3  A    between atoms: C_4  and  C_6 
REMARK    4  A    between atoms: C_7  and  C_8 
REMARK    5  A    between atoms: C_17  and  C_18 
REMARK    6  A    between atoms: C_18  and  S_20 
REMARK    7  A    between atoms: S_20  and  C_21 
REMARK    8  A    between atoms: C_21  and  C_22 
REMARK    9  A    between atoms: C_22  and  O_23 
REMARK   10  A    between atoms: C_25  and  C_26 
ROOT
HETATM    1  C   UNL     1     -20.179 -10.848  -2.841  1.00  0.00     0.053 A 
HETATM    2  C   UNL     1     -19.770  -9.590  -2.545  1.00  0.00     0.055 A 
HETATM    3  N   UNL     1     -18.437  -9.245  -2.611  1.00  0.00    -0.358 N 
HETATM    4  C   UNL     1     -17.403 -10.111  -2.895  1.00  0.00     0.017 A 
HETATM    5  C   UNL     1     -16.034  -9.463  -2.895  1.00  0.00     0.069 C 
HETATM    6  C   UNL     1     -17.660 -11.417  -3.178  1.00  0.00     0.030 A 
HETATM    7  C   UNL     1     -19.136 -11.925  -3.262  1.00  0.00     0.066 A 
HETATM    8  H   UNL     1     -18.210  -8.274  -2.402  1.00  0.00     0.166 HD
ENDROOT
BRANCH   6   9
HETATM    9  C   UNL     1     -16.476 -12.335  -3.354  1.00  0.00     0.217 C 
HETATM   10  O   UNL     1     -15.805 -12.734  -2.409  1.00  0.00    -0.280 OA
BRANCH   9  11
HETATM   11  S   UNL     1     -16.052 -12.831  -4.980  1.00  0.00    -0.085 SA
BRANCH  11  12
HETATM   12  C   UNL     1     -16.971 -11.573  -5.959  1.00  0.00     0.108 C 
BRANCH  12  13
HETATM   13  C   UNL     1     -18.113 -12.036  -6.879  1.00  0.00     0.177 C 
BRANCH  13  14
HETATM   14  O   UNL     1     -19.268 -11.203  -6.761  1.00  0.00    -0.395 OA
HETATM   15  C   UNL     1     -20.463 -11.979  -6.738  1.00  0.00     0.201 C 
ENDBRANCH  13  14
ENDBRANCH  12  13
ENDBRANCH  11  12
ENDBRANCH   9  11
ENDBRANCH   6   9
BRANCH   7  16
HETATM   16  C   UNL     1     -19.356 -13.303  -2.570  1.00  0.00     0.010 C 
HETATM   17  C   UNL     1     -19.122 -13.325  -1.075  1.00  0.00     0.006 C 
ENDBRANCH   7  16
BRANCH   1  18
HETATM   18  C   UNL     1     -21.645 -11.135  -2.847  1.00  0.00     0.292 C 
HETATM   19  O   UNL     1     -22.389 -10.959  -3.798  1.00  0.00    -0.259 OA
BRANCH  18  20
HETATM   20  O   UNL     1     -22.043 -11.616  -1.649  1.00  0.00    -0.318 OA
BRANCH  20  21
HETATM   21  C   UNL     1     -23.450 -11.762  -1.407  1.00  0.00     0.174 C 
HETATM   22  C   UNL     1     -23.935 -10.837  -0.306  1.00  0.00     0.034 C 
ENDBRANCH  20  21
ENDBRANCH  18  20
ENDBRANCH   1  18
BRANCH   2  23
HETATM   23  C   UNL     1     -20.650  -8.487  -2.107  1.00  0.00    -0.009 A 
HETATM   24  C   UNL     1     -21.013  -7.483  -3.012  1.00  0.00     0.014 A 
HETATM   25  C   UNL     1     -21.855  -6.442  -2.613  1.00  0.00     0.001 A 
HETATM   26  C   UNL     1     -22.340  -6.397  -1.306  1.00  0.00     0.000 A 
HETATM   27  C   UNL     1     -21.993  -7.399  -0.400  1.00  0.00     0.001 A 
HETATM   28  C   UNL     1     -21.159  -8.446  -0.800  1.00  0.00     0.014 A 
ENDBRANCH   2  23
TORSDOF 10
ENDMDL
MODEL 4
REMARK VINA RESULT:      -6.1      1.394      1.929
REMARK  10 active torsions:
REMARK  status: ('A' for Active; 'I' for Inactive)
REMARK    1  A    between atoms: C_2  and  O_3 
REMARK    2  A    between atoms: O_3  and  C_4 
REMARK    3  A    between atoms: C_4  and  C_6 
REMARK    4  A    between atoms: C_7  and  C_8 
REMARK    5  A    between atoms: C_17  and  C_18 
REMARK    6  A    between atoms: C_18  and  S_20 
REMARK    7  A    between atoms: S_20  and  C_21 
REMARK    8  A    between atoms: C_21  and  C_22 
REMARK    9  A    between atoms: C_22  and  O_23 
REMARK   10  A    between atoms: C_25  and  C_26 
ROOT
HETATM    1  C   UNL     1     -19.857  -9.490  -4.407  1.00  0.00     0.053 A 
HETATM    2  C   UNL     1     -19.552  -9.062  -3.158  1.00  0.00     0.055 A 
HETATM    3  N   UNL     1     -18.265  -9.150  -2.673  1.00  0.00    -0.358 N 
HETATM    4  C   UNL     1     -17.202  -9.724  -3.337  1.00  0.00     0.017 A 
HETATM    5  C   UNL     1     -15.898  -9.689  -2.566  1.00  0.00     0.069 C 
HETATM    6  C   UNL     1     -17.367 -10.231  -4.589  1.00  0.00     0.030 A 
HETATM    7  C   UNL     1     -18.743 -10.091  -5.315  1.00  0.00     0.066 A 
HETATM    8  H   UNL     1     -18.107  -8.781  -1.737  1.00  0.00     0.166 HD
ENDROOT
BRANCH   6   9
HETATM    9  C   UNL     1     -16.197 -10.958  -5.204  1.00  0.00     0.217 C 
HETATM   10  O   UNL     1     -15.459 -10.438  -6.033  1.00  0.00    -0.280 OA
BRANCH   9  11
HETATM   11  S   UNL     1     -15.905 -12.614  -4.710  1.00  0.00    -0.085 SA
BRANCH  11  12
HETATM   12  C   UNL     1     -16.047 -13.472  -6.330  1.00  0.00     0.108 C 
BRANCH  12  13
HETATM   13  C   UNL     1     -16.911 -14.740  -6.427  1.00  0.00     0.177 C 
BRANCH  13  14
HETATM   14  O   UNL     1     -17.246 -15.060  -7.779  1.00  0.00    -0.395 OA
HETATM   15  C   UNL     1     -18.489 -14.475  -8.155  1.00  0.00     0.201 C 
ENDBRANCH  13  14
ENDBRANCH  12  13
ENDBRANCH  11  12
ENDBRANCH   9  11
ENDBRANCH   6   9
BRANCH   7  16
HETATM   16  C   UNL     1     -19.185 -11.387  -6.060  1.00  0.00     0.010 C 
HETATM   17  C   UNL     1     -19.695 -12.504  -5.175  1.00  0.00     0.006 C 
ENDBRANCH   7  16
BRANCH   1  18
HETATM   18  C   UNL     1     -21.247  -9.280  -4.911  1.00  0.00     0.292 C 
HETATM   19  O   UNL     1     -22.248  -9.796  -4.438  1.00  0.00    -0.259 OA
BRANCH  18  20
HETATM   20  O   UNL     1     -21.253  -8.441  -5.968  1.00  0.00    -0.318 OA
BRANCH  20  21
HETATM   21  C   UNL     1     -21.516  -7.050  -5.733  1.00  0.00     0.174 C 
HETATM   22  C   UNL     1     -20.317  -6.181  -6.071  1.00  0.00     0.034 C 
ENDBRANCH  20  21
ENDBRANCH  18  20
ENDBRANCH   1  18
BRANCH   2  23
HETATM   23  C   UNL     1     -20.516  -8.501  -2.188  1.00  0.00    -0.009 A 
HETATM   24  C   UNL     1     -21.011  -7.204  -2.369  1.00  0.00     0.014 A 
HETATM   25  C   UNL     1     -21.932  -6.667  -1.466  1.00  0.00     0.001 A 
HETATM   26  C   UNL     1     -22.367  -7.423  -0.378  1.00  0.00     0.000 A 
HETATM   27  C   UNL     1     -21.888  -8.720  -0.197  1.00  0.00     0.001 A 
HETATM   28  C   UNL     1     -20.974  -9.262  -1.103  1.00  0.00     0.014 A 
ENDBRANCH   2  23
TORSDOF 10
ENDMDL
MODEL 5
REMARK VINA RESULT:      -6.0      4.003      6.665
REMARK  10 active torsions:
REMARK  status: ('A' for Active; 'I' for Inactive)
REMARK    1  A    between atoms: C_2  and  O_3 
REMARK    2  A    between atoms: O_3  and  C_4 
REMARK    3  A    between atoms: C_4  and  C_6 
REMARK    4  A    between atoms: C_7  and  C_8 
REMARK    5  A    between atoms: C_17  and  C_18 
REMARK    6  A    between atoms: C_18  and  S_20 
REMARK    7  A    between atoms: S_20  and  C_21 
REMARK    8  A    between atoms: C_21  and  C_22 
REMARK    9  A    between atoms: C_22  and  O_23 
REMARK   10  A    between atoms: C_25  and  C_26 
ROOT
HETATM    1  C   UNL     1     -21.620 -10.101  -3.263  1.00  0.00     0.053 A 
HETATM    2  C   UNL     1     -21.977  -9.835  -1.983  1.00  0.00     0.055 A 
HETATM    3  N   UNL     1     -22.159  -8.538  -1.554  1.00  0.00    -0.358 N 
HETATM    4  C   UNL     1     -21.936  -7.410  -2.314  1.00  0.00     0.017 A 
HETATM    5  C   UNL     1     -22.211  -6.109  -1.588  1.00  0.00     0.069 C 
HETATM    6  C   UNL     1     -21.538  -7.522  -3.611  1.00  0.00     0.030 A 
HETATM    7  C   UNL     1     -21.410  -8.933  -4.271  1.00  0.00     0.066 A 
HETATM    8  H   UNL     1     -22.455  -8.418  -0.588  1.00  0.00     0.166 HD
ENDROOT
BRANCH   6   9
HETATM    9  C   UNL     1     -21.190  -6.250  -4.343  1.00  0.00     0.217 C 
HETATM   10  O   UNL     1     -20.351  -5.459  -3.928  1.00  0.00    -0.280 OA
BRANCH   9  11
HETATM   11  S   UNL     1     -22.038  -5.902  -5.837  1.00  0.00    -0.085 SA
BRANCH  11  12
HETATM   12  C   UNL     1     -20.617  -5.749  -6.995  1.00  0.00     0.108 C 
BRANCH  12  13
HETATM   13  C   UNL     1     -20.802  -4.956  -8.299  1.00  0.00     0.177 C 
BRANCH  13  14
HETATM   14  O   UNL     1     -21.593  -3.781  -8.106  1.00  0.00    -0.395 OA
HETATM   15  C   UNL     1     -22.640  -3.700  -9.068  1.00  0.00     0.201 C 
ENDBRANCH  13  14
ENDBRANCH  12  13
ENDBRANCH  11  12
ENDBRANCH   9  11
ENDBRANCH   6   9
BRANCH   7  16
HETATM   16  C   UNL     1     -20.130  -9.092  -5.145  1.00  0.00     0.010 C 
HETATM   17  C   UNL     1     -18.824  -9.145  -4.384  1.00  0.00     0.006 C 
ENDBRANCH   7  16
BRANCH   1  18
HETATM   18  C   UNL     1     -21.532 -11.529  -3.693  1.00  0.00     0.292 C 
HETATM   19  O   UNL     1     -20.615 -12.287  -3.420  1.00  0.00    -0.259 OA
BRANCH  18  20
HETATM   20  O   UNL     1     -22.607 -11.874  -4.434  1.00  0.00    -0.318 OA
BRANCH  20  21
HETATM   21  C   UNL     1     -22.409 -12.730  -5.567  1.00  0.00     0.174 C 
HETATM   22  C   UNL     1     -21.732 -12.004  -6.716  1.00  0.00     0.034 C 
ENDBRANCH  20  21
ENDBRANCH  18  20
ENDBRANCH   1  18
BRANCH   2  23
HETATM   23  C   UNL     1     -22.179 -10.846  -0.924  1.00  0.00    -0.009 A 
HETATM   24  C   UNL     1     -23.453 -11.386  -0.710  1.00  0.00     0.014 A 
HETATM   25  C   UNL     1     -23.653 -12.352   0.279  1.00  0.00     0.001 A 
HETATM   26  C   UNL     1     -22.582 -12.785   1.060  1.00  0.00     0.000 A 
HETATM   27  C   UNL     1     -21.308 -12.262   0.846  1.00  0.00     0.001 A 
HETATM   28  C   UNL     1     -21.103 -11.303  -0.149  1.00  0.00     0.014 A 
ENDBRANCH   2  23
TORSDOF 10
ENDMDL
MODEL 6
REMARK VINA RESULT:      -5.9      2.303      3.510
REMARK  10 active torsions:
REMARK  status: ('A' for Active; 'I' for Inactive)
REMARK    1  A    between atoms: C_2  and  O_3 
REMARK    2  A    between atoms: O_3  and  C_4 
REMARK    3  A    between atoms: C_4  and  C_6 
REMARK    4  A    between atoms: C_7  and  C_8 
REMARK    5  A    between atoms: C_17  and  C_18 
REMARK    6  A    between atoms: C_18  and  S_20 
REMARK    7  A    between atoms: S_20  and  C_21 
REMARK    8  A    between atoms: C_21  and  C_22 
REMARK    9  A    between atoms: C_22  and  O_23 
REMARK   10  A    between atoms: C_25  and  C_26 
ROOT
HETATM    1  C   UNL     1     -20.166 -10.896  -2.338  1.00  0.00     0.053 A 
HETATM    2  C   UNL     1     -19.761  -9.603  -2.383  1.00  0.00     0.055 A 
HETATM    3  N   UNL     1     -18.435  -9.283  -2.579  1.00  0.00    -0.358 N 
HETATM    4  C   UNL     1     -17.402 -10.190  -2.672  1.00  0.00     0.017 A 
HETATM    5  C   UNL     1     -16.040  -9.560  -2.882  1.00  0.00     0.069 C 
HETATM    6  C   UNL     1     -17.654 -11.526  -2.608  1.00  0.00     0.030 A 
HETATM    7  C   UNL     1     -19.126 -12.042  -2.511  1.00  0.00     0.066 A 
HETATM    8  H   UNL     1     -18.212  -8.291  -2.629  1.00  0.00     0.166 HD
ENDROOT
BRANCH   6   9
HETATM    9  C   UNL     1     -16.467 -12.456  -2.588  1.00  0.00     0.217 C 
HETATM   10  O   UNL     1     -15.702 -12.528  -1.633  1.00  0.00    -0.280 OA
BRANCH   9  11
HETATM   11  S   UNL     1     -16.179 -13.456  -3.998  1.00  0.00    -0.085 SA
BRANCH  11  12
HETATM   12  C   UNL     1     -14.546 -14.181  -3.563  1.00  0.00     0.108 C 
BRANCH  12  13
HETATM   13  C   UNL     1     -13.377 -14.028  -4.549  1.00  0.00     0.177 C 
BRANCH  13  14
HETATM   14  O   UNL     1     -13.327 -12.720  -5.124  1.00  0.00    -0.395 OA
HETATM   15  C   UNL     1     -13.239 -12.785  -6.545  1.00  0.00     0.201 C 
ENDBRANCH  13  14
ENDBRANCH  12  13
ENDBRANCH  11  12
ENDBRANCH   9  11
ENDBRANCH   6   9
BRANCH   7  16
HETATM   16  C   UNL     1     -19.309 -13.202  -1.487  1.00  0.00     0.010 C 
HETATM   17  C   UNL     1     -18.979 -12.860  -0.050  1.00  0.00     0.006 C 
ENDBRANCH   7  16
BRANCH   1  18
HETATM   18  C   UNL     1     -21.628 -11.179  -2.220  1.00  0.00     0.292 C 
HETATM   19  O   UNL     1     -22.422 -11.159  -3.148  1.00  0.00    -0.259 OA
BRANCH  18  20
HETATM   20  O   UNL     1     -21.961 -11.458  -0.942  1.00  0.00    -0.318 OA
BRANCH  20  21
HETATM   21  C   UNL     1     -23.330 -11.769  -0.646  1.00  0.00     0.174 C 
HETATM   22  C   UNL     1     -24.062 -10.586  -0.038  1.00  0.00     0.034 C 
ENDBRANCH  20  21
ENDBRANCH  18  20
ENDBRANCH   1  18
BRANCH   2  23
HETATM   23  C   UNL     1     -20.639  -8.427  -2.206  1.00  0.00    -0.009 A 
HETATM   24  C   UNL     1     -20.920  -7.596  -3.297  1.00  0.00     0.014 A 
HETATM   25  C   UNL     1     -21.758  -6.489  -3.144  1.00  0.00     0.001 A 
HETATM   26  C   UNL     1     -22.321  -6.205  -1.901  1.00  0.00     0.000 A 
HETATM   27  C   UNL     1     -22.056  -7.033  -0.811  1.00  0.00     0.001 A 
HETATM   28  C   UNL     1     -21.226  -8.146  -0.963  1.00  0.00     0.014 A 
ENDBRANCH   2  23
TORSDOF 10
ENDMDL
MODEL 7
REMARK VINA RESULT:      -5.9      3.322      4.557
REMARK  10 active torsions:
REMARK  status: ('A' for Active; 'I' for Inactive)
REMARK    1  A    between atoms: C_2  and  O_3 
REMARK    2  A    between atoms: O_3  and  C_4 
REMARK    3  A    between atoms: C_4  and  C_6 
REMARK    4  A    between atoms: C_7  and  C_8 
REMARK    5  A    between atoms: C_17  and  C_18 
REMARK    6  A    between atoms: C_18  and  S_20 
REMARK    7  A    between atoms: S_20  and  C_21 
REMARK    8  A    between atoms: C_21  and  C_22 
REMARK    9  A    between atoms: C_22  and  O_23 
REMARK   10  A    between atoms: C_25  and  C_26 
ROOT
HETATM    1  C   UNL     1     -19.961 -10.622  -2.008  1.00  0.00     0.053 A 
HETATM    2  C   UNL     1     -19.554  -9.545  -2.724  1.00  0.00     0.055 A 
HETATM    3  N   UNL     1     -18.217  -9.321  -2.968  1.00  0.00    -0.358 N 
HETATM    4  C   UNL     1     -17.179 -10.082  -2.473  1.00  0.00     0.017 A 
HETATM    5  C   UNL     1     -15.805  -9.605  -2.895  1.00  0.00     0.069 C 
HETATM    6  C   UNL     1     -17.436 -11.177  -1.707  1.00  0.00     0.030 A 
HETATM    7  C   UNL     1     -18.910 -11.625  -1.449  1.00  0.00     0.066 A 
HETATM    8  H   UNL     1     -17.990  -8.508  -3.537  1.00  0.00     0.166 HD
ENDROOT
BRANCH   6   9
HETATM    9  C   UNL     1     -16.254 -11.887  -1.094  1.00  0.00     0.217 C 
HETATM   10  O   UNL     1     -15.670 -11.463  -0.104  1.00  0.00    -0.280 OA
BRANCH   9  11
HETATM   11  S   UNL     1     -15.702 -13.369  -1.851  1.00  0.00    -0.085 SA
BRANCH  11  12
HETATM   12  C   UNL     1     -14.378 -13.866  -0.675  1.00  0.00     0.108 C 
BRANCH  12  13
HETATM   13  C   UNL     1     -14.722 -14.838   0.466  1.00  0.00     0.177 C 
BRANCH  13  14
HETATM   14  O   UNL     1     -14.879 -14.164   1.716  1.00  0.00    -0.395 OA
HETATM   15  C   UNL     1     -16.254 -14.040   2.066  1.00  0.00     0.201 C 
ENDBRANCH  13  14
ENDBRANCH  12  13
ENDBRANCH  11  12
ENDBRANCH   9  11
ENDBRANCH   6   9
BRANCH   7  16
HETATM   16  C   UNL     1     -19.181 -12.045   0.026  1.00  0.00     0.010 C 
HETATM   17  C   UNL     1     -19.657 -13.468   0.220  1.00  0.00     0.006 C 
ENDBRANCH   7  16
BRANCH   1  18
HETATM   18  C   UNL     1     -21.428 -10.863  -1.861  1.00  0.00     0.292 C 
HETATM   19  O   UNL     1     -22.155 -11.308  -2.735  1.00  0.00    -0.259 OA
BRANCH  18  20
HETATM   20  O   UNL     1     -21.849 -10.518  -0.625  1.00  0.00    -0.318 OA
BRANCH  20  21
HETATM   21  C   UNL     1     -23.083  -9.795  -0.502  1.00  0.00     0.174 C 
HETATM   22  C   UNL     1     -22.906  -8.498   0.267  1.00  0.00     0.034 C 
ENDBRANCH  20  21
ENDBRANCH  18  20
ENDBRANCH   1  18
BRANCH   2  23
HETATM   23  C   UNL     1     -20.444  -8.506  -3.284  1.00  0.00    -0.009 A 
HETATM   24  C   UNL     1     -20.918  -8.627  -4.596  1.00  0.00     0.014 A 
HETATM   25  C   UNL     1     -21.770  -7.658  -5.132  1.00  0.00     0.001 A 
HETATM   26  C   UNL     1     -22.154  -6.561  -4.361  1.00  0.00     0.000 A 
HETATM   27  C   UNL     1     -21.696  -6.438  -3.050  1.00  0.00     0.001 A 
HETATM   28  C   UNL     1     -20.851  -7.411  -2.509  1.00  0.00     0.014 A 
ENDBRANCH   2  23
TORSDOF 10
ENDMDL
MODEL 8
REMARK VINA RESULT:      -5.9      1.887      2.415
REMARK  10 active torsions:
REMARK  status: ('A' for Active; 'I' for Inactive)
REMARK    1  A    between atoms: C_2  and  O_3 
REMARK    2  A    between atoms: O_3  and  C_4 
REMARK    3  A    between atoms: C_4  and  C_6 
REMARK    4  A    between atoms: C_7  and  C_8 
REMARK    5  A    between atoms: C_17  and  C_18 
REMARK    6  A    between atoms: C_18  and  S_20 
REMARK    7  A    between atoms: S_20  and  C_21 
REMARK    8  A    between atoms: C_21  and  C_22 
REMARK    9  A    between atoms: C_22  and  O_23 
REMARK   10  A    between atoms: C_25  and  C_26 
ROOT
HETATM    1  C   UNL     1     -19.885  -9.761  -3.055  1.00  0.00     0.053 A 
HETATM    2  C   UNL     1     -20.201 -10.315  -1.858  1.00  0.00     0.055 A 
HETATM    3  N   UNL     1     -19.281 -11.068  -1.162  1.00  0.00    -0.358 N 
HETATM    4  C   UNL     1     -18.019 -11.396  -1.608  1.00  0.00     0.017 A 
HETATM    5  C   UNL     1     -17.219 -12.242  -0.639  1.00  0.00     0.069 C 
HETATM    6  C   UNL     1     -17.576 -10.940  -2.811  1.00  0.00     0.030 A 
HETATM    7  C   UNL     1     -18.465  -9.973  -3.658  1.00  0.00     0.066 A 
HETATM    8  H   UNL     1     -19.581 -11.427  -0.257  1.00  0.00     0.166 HD
ENDROOT
BRANCH   6   9
HETATM    9  C   UNL     1     -16.238 -11.442  -3.294  1.00  0.00     0.217 C 
HETATM   10  O   UNL     1     -15.199 -10.814  -3.128  1.00  0.00    -0.280 OA
BRANCH   9  11
HETATM   11  S   UNL     1     -16.190 -12.979  -4.134  1.00  0.00    -0.085 SA
BRANCH  11  12
HETATM   12  C   UNL     1     -14.738 -13.758  -3.315  1.00  0.00     0.108 C 
BRANCH  12  13
HETATM   13  C   UNL     1     -13.351 -13.610  -3.961  1.00  0.00     0.177 C 
BRANCH  13  14
HETATM   14  O   UNL     1     -13.434 -13.432  -5.377  1.00  0.00    -0.395 OA
HETATM   15  C   UNL     1     -13.331 -14.678  -6.060  1.00  0.00     0.201 C 
ENDBRANCH  13  14
ENDBRANCH  12  13
ENDBRANCH  11  12
ENDBRANCH   9  11
ENDBRANCH   6   9
BRANCH   7  16
HETATM   16  C   UNL     1     -18.484 -10.320  -5.177  1.00  0.00     0.010 C 
HETATM   17  C   UNL     1     -17.525  -9.526  -6.037  1.00  0.00     0.006 C 
ENDBRANCH   7  16
BRANCH   1  18
HETATM   18  C   UNL     1     -20.891  -8.877  -3.716  1.00  0.00     0.292 C 
HETATM   19  O   UNL     1     -21.822  -9.267  -4.403  1.00  0.00    -0.259 OA
BRANCH  18  20
HETATM   20  O   UNL     1     -20.632  -7.577  -3.456  1.00  0.00    -0.318 OA
BRANCH  20  21
HETATM   21  C   UNL     1     -21.720  -6.643  -3.497  1.00  0.00     0.174 C 
HETATM   22  C   UNL     1     -22.088  -6.139  -2.113  1.00  0.00     0.034 C 
ENDBRANCH  20  21
ENDBRANCH  18  20
ENDBRANCH   1  18
BRANCH   2  23
HETATM   23  C   UNL     1     -21.516 -10.215  -1.192  1.00  0.00    -0.009 A 
HETATM   24  C   UNL     1     -22.474 -11.218  -1.385  1.00  0.00     0.014 A 
HETATM   25  C   UNL     1     -23.716 -11.141  -0.750  1.00  0.00     0.001 A 
HETATM   26  C   UNL     1     -24.010 -10.061   0.082  1.00  0.00     0.000 A 
HETATM   27  C   UNL     1     -23.059  -9.063   0.289  1.00  0.00     0.001 A 
HETATM   28  C   UNL     1     -21.812  -9.143  -0.338  1.00  0.00     0.014 A 
ENDBRANCH   2  23
TORSDOF 10
ENDMDL
MODEL 9
REMARK VINA RESULT:      -5.7      2.235      2.955
REMARK  10 active torsions:
REMARK  status: ('A' for Active; 'I' for Inactive)
REMARK    1  A    between atoms: C_2  and  O_3 
REMARK    2  A    between atoms: O_3  and  C_4 
REMARK    3  A    between atoms: C_4  and  C_6 
REMARK    4  A    between atoms: C_7  and  C_8 
REMARK    5  A    between atoms: C_17  and  C_18 
REMARK    6  A    between atoms: C_18  and  S_20 
REMARK    7  A    between atoms: S_20  and  C_21 
REMARK    8  A    between atoms: C_21  and  C_22 
REMARK    9  A    between atoms: C_22  and  O_23 
REMARK   10  A    between atoms: C_25  and  C_26 
ROOT
HETATM    1  C   UNL     1     -20.060 -10.614  -2.733  1.00  0.00     0.053 A 
HETATM    2  C   UNL     1     -20.234 -10.512  -1.393  1.00  0.00     0.055 A 
HETATM    3  N   UNL     1     -19.390 -11.162  -0.518  1.00  0.00    -0.358 N 
HETATM    4  C   UNL     1     -18.368 -12.012  -0.880  1.00  0.00     0.017 A 
HETATM    5  C   UNL     1     -17.601 -12.594   0.289  1.00  0.00     0.069 C 
HETATM    6  C   UNL     1     -18.098 -12.239  -2.195  1.00  0.00     0.030 A 
HETATM    7  C   UNL     1     -18.893 -11.475  -3.302  1.00  0.00     0.066 A 
HETATM    8  H   UNL     1     -19.566 -11.015   0.474  1.00  0.00     0.166 HD
ENDROOT
BRANCH   6   9
HETATM    9  C   UNL     1     -17.052 -13.276  -2.519  1.00  0.00     0.217 C 
HETATM   10  O   UNL     1     -17.302 -14.476  -2.557  1.00  0.00    -0.280 OA
BRANCH   9  11
HETATM   11  S   UNL     1     -15.418 -12.727  -2.839  1.00  0.00    -0.085 SA
BRANCH  11  12
HETATM   12  C   UNL     1     -15.364 -12.900  -4.670  1.00  0.00     0.108 C 
BRANCH  12  13
HETATM   13  C   UNL     1     -14.608 -11.845  -5.494  1.00  0.00     0.177 C 
BRANCH  13  14
HETATM   14  O   UNL     1     -15.498 -10.948  -6.163  1.00  0.00    -0.395 OA
HETATM   15  C   UNL     1     -15.837  -9.843  -5.330  1.00  0.00     0.201 C 
ENDBRANCH  13  14
ENDBRANCH  12  13
ENDBRANCH  11  12
ENDBRANCH   9  11
ENDBRANCH   6   9
BRANCH   7  16
HETATM   16  C   UNL     1     -19.318 -12.381  -4.496  1.00  0.00     0.010 C 
HETATM   17  C   UNL     1     -18.911 -11.884  -5.866  1.00  0.00     0.006 C 
ENDBRANCH   7  16
BRANCH   1  18
HETATM   18  C   UNL     1     -20.946  -9.810  -3.628  1.00  0.00     0.292 C 
HETATM   19  O   UNL     1     -22.002 -10.200  -4.100  1.00  0.00    -0.259 OA
BRANCH  18  20
HETATM   20  O   UNL     1     -20.419  -8.587  -3.851  1.00  0.00    -0.318 OA
BRANCH  20  21
HETATM   21  C   UNL     1     -21.284  -7.550  -4.334  1.00  0.00     0.174 C 
HETATM   22  C   UNL     1     -21.424  -6.415  -3.336  1.00  0.00     0.034 C 
ENDBRANCH  20  21
ENDBRANCH  18  20
ENDBRANCH   1  18
BRANCH   2  23
HETATM   23  C   UNL     1     -21.314  -9.754  -0.727  1.00  0.00    -0.009 A 
HETATM   24  C   UNL     1     -21.100  -8.424  -0.346  1.00  0.00     0.014 A 
HETATM   25  C   UNL     1     -22.118  -7.694   0.272  1.00  0.00     0.001 A 
HETATM   26  C   UNL     1     -23.356  -8.287   0.514  1.00  0.00     0.000 A 
HETATM   27  C   UNL     1     -23.583  -9.608   0.127  1.00  0.00     0.001 A 
HETATM   28  C   UNL     1     -22.570 -10.337  -0.500  1.00  0.00     0.014 A 
ENDBRANCH   2  23
TORSDOF 10
ENDMDL
