REMARK  9 active torsions:
REMARK  status: ('A' for Active; 'I' for Inactive)
REMARK    1  A    between atoms: C_2  and  C_3 
REMARK    2  A    between atoms: C_3  and  C_4 
REMARK    3  A    between atoms: C_7  and  C_8 
REMARK    4  A    between atoms: C_14  and  C_15 
REMARK    5  A    between atoms: C_16  and  C_17 
REMARK       I    between atoms: C_17  and  N_19 
REMARK    6  A    between atoms: N_19  and  C_20 
REMARK    7  A    between atoms: C_20  and  C_22 
REMARK    8  A    between atoms: C_26  and  N_27 
REMARK    9  A    between atoms: N_27  and  S_28 
ROOT
HETATM    1  C   UNL     1       4.231   3.677   0.161  1.00  0.00     0.241 C 
HETATM    2  O   UNL     1       3.022   3.582  -0.011  1.00  0.00    -0.269 OA
HETATM    3  N   UNL     1       4.899   4.873   0.253  1.00  0.00    -0.349 N 
HETATM    4  H   UNL     1       5.900   4.883   0.388  1.00  0.00     0.163 HD
ENDROOT
BRANCH   1   5
HETATM    5  C   UNL     1       5.108   2.478   0.311  1.00  0.00     0.075 C 
HETATM    6  C   UNL     1       4.539   1.260   0.262  1.00  0.00     0.019 C 
BRANCH   6   7
HETATM    7  C   UNL     1       5.209  -0.049   0.411  1.00  0.00    -0.013 A 
HETATM    8  C   UNL     1       4.551  -1.187   0.917  1.00  0.00     0.019 A 
HETATM    9  N   UNL     1       5.148  -2.413   0.983  1.00  0.00    -0.355 N 
HETATM   10  C   UNL     1       6.416  -2.567   0.513  1.00  0.00     0.117 A 
ATOM     11  HN  UNL     1       4.648  -3.207   1.381  1.00  0.00     0.166 HD
HETATM   12  C   UNL     1       7.127  -1.489  -0.003  1.00  0.00     0.035 A 
HETATM   13  C   UNL     1       6.520  -0.232  -0.051  1.00  0.00     0.015 A 
BRANCH   8  14
HETATM   14  C   UNL     1       3.118  -1.186   1.405  1.00  0.00     0.057 C 
BRANCH  14  15
HETATM   15  C   UNL     1       2.949  -1.076   2.923  1.00  0.00     0.002 C 
HETATM   16  C   UNL     1       3.339   0.275   3.503  1.00  0.00     0.005 C 
ENDBRANCH  14  15
ENDBRANCH   8  14
BRANCH  10  17
HETATM   17  C   UNL     1       7.064  -3.947   0.525  1.00  0.00     0.432 C 
HETATM   18  F   UNL     1       6.268  -4.945   1.002  1.00  0.00    -0.165 F 
HETATM   19  F   UNL     1       7.452  -4.350  -0.723  1.00  0.00    -0.165 F 
HETATM   20  F   UNL     1       8.200  -3.983   1.283  1.00  0.00    -0.165 F 
ENDBRANCH  10  17
ENDBRANCH   6   7
ENDBRANCH   1   5
BRANCH   3  21
HETATM   21  C   UNL     1       4.196   6.154   0.211  1.00  0.00     0.114 C 
HETATM   22  C   UNL     1       4.418   6.917   1.515  1.00  0.00     0.037 C 
BRANCH  21  23
HETATM   23  C   UNL     1       4.619   6.957  -1.010  1.00  0.00    -0.030 A 
HETATM   24  C   UNL     1       3.664   7.329  -1.974  1.00  0.00     0.053 A 
HETATM   25  C   UNL     1       4.054   7.957  -3.161  1.00  0.00     0.142 A 
HETATM   26  F   UNL     1       3.115   8.257  -4.072  1.00  0.00    -0.204 F 
HETATM   27  C   UNL     1       5.398   8.193  -3.436  1.00  0.00     0.099 A 
HETATM   28  C   UNL     1       6.335   7.914  -2.442  1.00  0.00     0.142 A 
HETATM   29  F   UNL     1       7.636   8.160  -2.660  1.00  0.00    -0.204 F 
HETATM   30  C   UNL     1       5.960   7.305  -1.241  1.00  0.00     0.053 A 
BRANCH  27  31
HETATM   31  N   UNL     1       5.819   8.658  -4.729  1.00  0.00    -0.180 NA
HETATM   32  H   UNL     1       6.692   8.234  -5.054  1.00  0.00     0.146 HD
BRANCH  31  33
HETATM   33  S   UNL     1       5.917  10.320  -4.984  1.00  0.00     0.210 S 
HETATM   34  C   UNL     1       4.378  10.662  -5.803  1.00  0.00     0.180 C 
HETATM   35  O   UNL     1       5.949  11.006  -3.714  1.00  0.00    -0.211 OA
HETATM   36  O   UNL     1       6.976  10.487  -5.961  1.00  0.00    -0.211 OA
ENDBRANCH  31  33
ENDBRANCH  27  31
ENDBRANCH  21  23
ENDBRANCH   3  21
TORSDOF 9
