MODEL 1
REMARK VINA RESULT:     -10.3      0.000      0.000
REMARK  9 active torsions:
REMARK  status: ('A' for Active; 'I' for Inactive)
REMARK    1  A    between atoms: C_2  and  C_3 
REMARK    2  A    between atoms: C_3  and  C_4 
REMARK    3  A    between atoms: C_7  and  C_8 
REMARK    4  A    between atoms: C_14  and  C_15 
REMARK    5  A    between atoms: C_16  and  C_17 
REMARK       I    between atoms: C_17  and  N_19 
REMARK    6  A    between atoms: N_19  and  C_20 
REMARK    7  A    between atoms: C_20  and  C_22 
REMARK    8  A    between atoms: C_26  and  N_27 
REMARK    9  A    between atoms: N_27  and  S_28 
ROOT
HETATM    1  C   UNL     1     -21.009  -6.669  -6.004  1.00  0.00     0.241 C 
HETATM    2  O   UNL     1     -20.069  -7.055  -6.688  1.00  0.00    -0.269 OA
HETATM    3  N   UNL     1     -21.469  -5.376  -5.996  1.00  0.00    -0.349 N 
HETATM    4  H   UNL     1     -22.245  -5.120  -5.403  1.00  0.00     0.163 HD
ENDROOT
BRANCH   1   5
HETATM    5  C   UNL     1     -21.773  -7.591  -5.113  1.00  0.00     0.075 C 
HETATM    6  C   UNL     1     -21.084  -8.398  -4.286  1.00  0.00     0.019 C 
BRANCH   6   7
HETATM    7  C   UNL     1     -21.633  -9.398  -3.345  1.00  0.00    -0.013 A 
HETATM    8  C   UNL     1     -21.614  -9.218  -1.948  1.00  0.00     0.019 A 
HETATM    9  N   UNL     1     -22.189 -10.105  -1.085  1.00  0.00    -0.355 N 
HETATM   10  C   UNL     1     -22.840 -11.194  -1.578  1.00  0.00     0.117 A 
ATOM     11  HN  UNL     1     -22.131  -9.954  -0.079  1.00  0.00     0.166 HD
HETATM   12  C   UNL     1     -22.902 -11.436  -2.946  1.00  0.00     0.035 A 
HETATM   13  C   UNL     1     -22.296 -10.536  -3.826  1.00  0.00     0.015 A 
BRANCH   8  14
HETATM   14  C   UNL     1     -20.994  -8.020  -1.260  1.00  0.00     0.057 C 
BRANCH  14  15
HETATM   15  C   UNL     1     -21.975  -6.903  -0.892  1.00  0.00     0.002 C 
HETATM   16  C   UNL     1     -22.218  -5.890  -1.999  1.00  0.00     0.005 C 
ENDBRANCH  14  15
ENDBRANCH   8  14
BRANCH  10  17
HETATM   17  C   UNL     1     -23.539 -12.154  -0.622  1.00  0.00     0.432 C 
HETATM   18  F   UNL     1     -22.706 -13.012   0.031  1.00  0.00    -0.165 F 
HETATM   19  F   UNL     1     -24.234 -11.499   0.357  1.00  0.00    -0.165 F 
HETATM   20  F   UNL     1     -24.462 -12.939  -1.253  1.00  0.00    -0.165 F 
ENDBRANCH  10  17
ENDBRANCH   6   7
ENDBRANCH   1   5
BRANCH   3  21
HETATM   21  C   UNL     1     -20.897  -4.349  -6.866  1.00  0.00     0.114 C 
HETATM   22  C   UNL     1     -19.374  -4.359  -6.759  1.00  0.00     0.037 C 
BRANCH  21  23
HETATM   23  C   UNL     1     -21.379  -4.531  -8.297  1.00  0.00    -0.030 A 
HETATM   24  C   UNL     1     -20.475  -4.398  -9.367  1.00  0.00     0.053 A 
HETATM   25  C   UNL     1     -20.924  -4.438 -10.691  1.00  0.00     0.142 A 
HETATM   26  F   UNL     1     -20.034  -4.265 -11.681  1.00  0.00    -0.204 F 
HETATM   27  C   UNL     1     -22.279  -4.570 -10.982  1.00  0.00     0.099 A 
HETATM   28  C   UNL     1     -23.162  -4.799  -9.928  1.00  0.00     0.142 A 
HETATM   29  F   UNL     1     -24.471  -4.964 -10.175  1.00  0.00    -0.204 F 
HETATM   30  C   UNL     1     -22.728  -4.783  -8.600  1.00  0.00     0.053 A 
BRANCH  27  31
HETATM   31  N   UNL     1     -22.766  -4.418 -12.326  1.00  0.00    -0.180 NA
HETATM   32  H   UNL     1     -22.085  -4.681 -13.042  1.00  0.00     0.146 HD
BRANCH  31  33
HETATM   33  S   UNL     1     -23.442  -2.939 -12.765  1.00  0.00     0.210 S 
HETATM   34  C   UNL     1     -22.917  -2.777 -14.454  1.00  0.00     0.180 C 
HETATM   35  O   UNL     1     -24.882  -3.029 -12.715  1.00  0.00    -0.211 OA
HETATM   36  O   UNL     1     -22.718  -1.951 -11.988  1.00  0.00    -0.211 OA
ENDBRANCH  31  33
ENDBRANCH  27  31
ENDBRANCH  21  23
ENDBRANCH   3  21
TORSDOF 9
ENDMDL
MODEL 2
REMARK VINA RESULT:     -10.1      0.657      1.723
REMARK  9 active torsions:
REMARK  status: ('A' for Active; 'I' for Inactive)
REMARK    1  A    between atoms: C_2  and  C_3 
REMARK    2  A    between atoms: C_3  and  C_4 
REMARK    3  A    between atoms: C_7  and  C_8 
REMARK    4  A    between atoms: C_14  and  C_15 
REMARK    5  A    between atoms: C_16  and  C_17 
REMARK       I    between atoms: C_17  and  N_19 
REMARK    6  A    between atoms: N_19  and  C_20 
REMARK    7  A    between atoms: C_20  and  C_22 
REMARK    8  A    between atoms: C_26  and  N_27 
REMARK    9  A    between atoms: N_27  and  S_28 
ROOT
HETATM    1  C   UNL     1     -20.796  -6.683  -5.921  1.00  0.00     0.241 C 
HETATM    2  O   UNL     1     -19.879  -7.103  -6.616  1.00  0.00    -0.269 OA
HETATM    3  N   UNL     1     -21.189  -5.368  -5.887  1.00  0.00    -0.349 N 
HETATM    4  H   UNL     1     -21.949  -5.083  -5.285  1.00  0.00     0.163 HD
ENDROOT
BRANCH   1   5
HETATM    5  C   UNL     1     -21.602  -7.581  -5.042  1.00  0.00     0.075 C 
HETATM    6  C   UNL     1     -20.954  -8.481  -4.281  1.00  0.00     0.019 C 
BRANCH   6   7
HETATM    7  C   UNL     1     -21.550  -9.476  -3.366  1.00  0.00    -0.013 A 
HETATM    8  C   UNL     1     -21.577  -9.304  -1.968  1.00  0.00     0.019 A 
HETATM    9  N   UNL     1     -22.195 -10.187  -1.130  1.00  0.00    -0.355 N 
HETATM   10  C   UNL     1     -22.846 -11.262  -1.651  1.00  0.00     0.117 A 
ATOM     11  HN  UNL     1     -22.170 -10.042  -0.121  1.00  0.00     0.166 HD
HETATM   12  C   UNL     1     -22.864 -11.496  -3.022  1.00  0.00     0.035 A 
HETATM   13  C   UNL     1     -22.214 -10.601  -3.875  1.00  0.00     0.015 A 
BRANCH   8  14
HETATM   14  C   UNL     1     -20.963  -8.120  -1.252  1.00  0.00     0.057 C 
BRANCH  14  15
HETATM   15  C   UNL     1     -21.952  -7.027  -0.837  1.00  0.00     0.002 C 
HETATM   16  C   UNL     1     -22.219  -5.981  -1.908  1.00  0.00     0.005 C 
ENDBRANCH  14  15
ENDBRANCH   8  14
BRANCH  10  17
HETATM   17  C   UNL     1     -23.593 -12.216  -0.725  1.00  0.00     0.432 C 
HETATM   18  F   UNL     1     -24.597 -12.918  -1.321  1.00  0.00    -0.165 F 
HETATM   19  F   UNL     1     -22.767 -13.154  -0.170  1.00  0.00    -0.165 F 
HETATM   20  F   UNL     1     -24.167 -11.572   0.334  1.00  0.00    -0.165 F 
ENDBRANCH  10  17
ENDBRANCH   6   7
ENDBRANCH   1   5
BRANCH   3  21
HETATM   21  C   UNL     1     -20.569  -4.355  -6.741  1.00  0.00     0.114 C 
HETATM   22  C   UNL     1     -19.069  -4.614  -6.857  1.00  0.00     0.037 C 
BRANCH  21  23
HETATM   23  C   UNL     1     -21.256  -4.306  -8.097  1.00  0.00    -0.030 A 
HETATM   24  C   UNL     1     -22.650  -4.479  -8.188  1.00  0.00     0.053 A 
HETATM   25  C   UNL     1     -23.280  -4.561  -9.434  1.00  0.00     0.142 A 
HETATM   26  F   UNL     1     -24.605  -4.768  -9.475  1.00  0.00    -0.204 F 
HETATM   27  C   UNL     1     -22.540  -4.516 -10.613  1.00  0.00     0.099 A 
HETATM   28  C   UNL     1     -21.175  -4.248 -10.527  1.00  0.00     0.142 A 
HETATM   29  F   UNL     1     -20.437  -4.164 -11.644  1.00  0.00    -0.204 F 
HETATM   30  C   UNL     1     -20.532  -4.142  -9.290  1.00  0.00     0.053 A 
BRANCH  27  31
HETATM   31  N   UNL     1     -23.153  -4.793 -11.882  1.00  0.00    -0.180 NA
HETATM   32  H   UNL     1     -22.516  -5.214 -12.563  1.00  0.00     0.146 HD
BRANCH  31  33
HETATM   33  S   UNL     1     -23.993  -3.551 -12.649  1.00  0.00     0.210 S 
HETATM   34  C   UNL     1     -22.744  -2.297 -12.803  1.00  0.00     0.180 C 
HETATM   35  O   UNL     1     -24.407  -3.982 -13.964  1.00  0.00    -0.211 OA
HETATM   36  O   UNL     1     -24.955  -3.087 -11.667  1.00  0.00    -0.211 OA
ENDBRANCH  31  33
ENDBRANCH  27  31
ENDBRANCH  21  23
ENDBRANCH   3  21
TORSDOF 9
ENDMDL
MODEL 3
REMARK VINA RESULT:      -9.9      1.316      1.488
REMARK  9 active torsions:
REMARK  status: ('A' for Active; 'I' for Inactive)
REMARK    1  A    between atoms: C_2  and  C_3 
REMARK    2  A    between atoms: C_3  and  C_4 
REMARK    3  A    between atoms: C_7  and  C_8 
REMARK    4  A    between atoms: C_14  and  C_15 
REMARK    5  A    between atoms: C_16  and  C_17 
REMARK       I    between atoms: C_17  and  N_19 
REMARK    6  A    between atoms: N_19  and  C_20 
REMARK    7  A    between atoms: C_20  and  C_22 
REMARK    8  A    between atoms: C_26  and  N_27 
REMARK    9  A    between atoms: N_27  and  S_28 
ROOT
HETATM    1  C   UNL     1     -21.167  -5.860  -4.909  1.00  0.00     0.241 C 
HETATM    2  O   UNL     1     -20.558  -5.064  -4.206  1.00  0.00    -0.269 OA
HETATM    3  N   UNL     1     -21.269  -5.753  -6.274  1.00  0.00    -0.349 N 
HETATM    4  H   UNL     1     -21.793  -6.440  -6.797  1.00  0.00     0.163 HD
ENDROOT
BRANCH   1   5
HETATM    5  C   UNL     1     -21.854  -7.059  -4.341  1.00  0.00     0.075 C 
HETATM    6  C   UNL     1     -21.096  -8.061  -3.862  1.00  0.00     0.019 C 
BRANCH   6   7
HETATM    7  C   UNL     1     -21.562  -9.339  -3.282  1.00  0.00    -0.013 A 
HETATM    8  C   UNL     1     -21.666  -9.551  -1.894  1.00  0.00     0.019 A 
HETATM    9  N   UNL     1     -22.168 -10.704  -1.362  1.00  0.00    -0.355 N 
HETATM   10  C   UNL     1     -22.623 -11.682  -2.192  1.00  0.00     0.117 A 
ATOM     11  HN  UNL     1     -22.203 -10.831  -0.351  1.00  0.00     0.166 HD
HETATM   12  C   UNL     1     -22.554 -11.542  -3.573  1.00  0.00     0.035 A 
HETATM   13  C   UNL     1     -22.022 -10.369  -4.114  1.00  0.00     0.015 A 
BRANCH   8  14
HETATM   14  C   UNL     1     -21.272  -8.526  -0.851  1.00  0.00     0.057 C 
BRANCH  14  15
HETATM   15  C   UNL     1     -22.388  -7.567  -0.429  1.00  0.00     0.002 C 
HETATM   16  C   UNL     1     -23.261  -8.079   0.707  1.00  0.00     0.005 C 
ENDBRANCH  14  15
ENDBRANCH   8  14
BRANCH  10  17
HETATM   17  C   UNL     1     -23.244 -12.944  -1.603  1.00  0.00     0.432 C 
HETATM   18  F   UNL     1     -22.520 -13.521  -0.602  1.00  0.00    -0.165 F 
HETATM   19  F   UNL     1     -24.485 -12.716  -1.075  1.00  0.00    -0.165 F 
HETATM   20  F   UNL     1     -23.426 -13.921  -2.540  1.00  0.00    -0.165 F 
ENDBRANCH  10  17
ENDBRANCH   6   7
ENDBRANCH   1   5
BRANCH   3  21
HETATM   21  C   UNL     1     -20.594  -4.690  -7.017  1.00  0.00     0.114 C 
HETATM   22  C   UNL     1     -19.179  -5.128  -7.389  1.00  0.00     0.037 C 
BRANCH  21  23
HETATM   23  C   UNL     1     -21.413  -4.282  -8.231  1.00  0.00    -0.030 A 
HETATM   24  C   UNL     1     -20.774  -4.021  -9.457  1.00  0.00     0.053 A 
HETATM   25  C   UNL     1     -21.495  -3.525 -10.548  1.00  0.00     0.142 A 
HETATM   26  F   UNL     1     -20.838  -3.251 -11.686  1.00  0.00    -0.204 F 
HETATM   27  C   UNL     1     -22.852  -3.239 -10.436  1.00  0.00     0.099 A 
HETATM   28  C   UNL     1     -23.506  -3.587  -9.255  1.00  0.00     0.142 A 
HETATM   29  F   UNL     1     -24.822  -3.357  -9.125  1.00  0.00    -0.204 F 
HETATM   30  C   UNL     1     -22.805  -4.103  -8.162  1.00  0.00     0.053 A 
BRANCH  27  31
HETATM   31  N   UNL     1     -23.553  -2.551 -11.486  1.00  0.00    -0.180 NA
HETATM   32  H   UNL     1     -24.307  -1.947 -11.149  1.00  0.00     0.146 HD
BRANCH  31  33
HETATM   33  S   UNL     1     -24.146  -3.459 -12.775  1.00  0.00     0.210 S 
HETATM   34  C   UNL     1     -23.162  -2.868 -14.130  1.00  0.00     0.180 C 
HETATM   35  O   UNL     1     -23.868  -4.859 -12.553  1.00  0.00    -0.211 OA
HETATM   36  O   UNL     1     -25.500  -2.980 -12.979  1.00  0.00    -0.211 OA
ENDBRANCH  31  33
ENDBRANCH  27  31
ENDBRANCH  21  23
ENDBRANCH   3  21
TORSDOF 9
ENDMDL
MODEL 4
REMARK VINA RESULT:      -9.2      1.449      2.364
REMARK  9 active torsions:
REMARK  status: ('A' for Active; 'I' for Inactive)
REMARK    1  A    between atoms: C_2  and  C_3 
REMARK    2  A    between atoms: C_3  and  C_4 
REMARK    3  A    between atoms: C_7  and  C_8 
REMARK    4  A    between atoms: C_14  and  C_15 
REMARK    5  A    between atoms: C_16  and  C_17 
REMARK       I    between atoms: C_17  and  N_19 
REMARK    6  A    between atoms: N_19  and  C_20 
REMARK    7  A    between atoms: C_20  and  C_22 
REMARK    8  A    between atoms: C_26  and  N_27 
REMARK    9  A    between atoms: N_27  and  S_28 
ROOT
HETATM    1  C   UNL     1     -21.006  -5.599  -4.860  1.00  0.00     0.241 C 
HETATM    2  O   UNL     1     -20.346  -4.782  -4.231  1.00  0.00    -0.269 OA
HETATM    3  N   UNL     1     -21.115  -5.605  -6.229  1.00  0.00    -0.349 N 
HETATM    4  H   UNL     1     -21.682  -6.304  -6.687  1.00  0.00     0.163 HD
ENDROOT
BRANCH   1   5
HETATM    5  C   UNL     1     -21.755  -6.702  -4.187  1.00  0.00     0.075 C 
HETATM    6  C   UNL     1     -21.161  -7.347  -3.166  1.00  0.00     0.019 C 
BRANCH   6   7
HETATM    7  C   UNL     1     -21.705  -8.475  -2.381  1.00  0.00    -0.013 A 
HETATM    8  C   UNL     1     -21.836  -9.775  -2.908  1.00  0.00     0.019 A 
HETATM    9  N   UNL     1     -22.267 -10.832  -2.158  1.00  0.00    -0.355 N 
HETATM   10  C   UNL     1     -22.551 -10.647  -0.840  1.00  0.00     0.117 A 
ATOM     11  HN  UNL     1     -22.374 -11.752  -2.583  1.00  0.00     0.166 HD
HETATM   12  C   UNL     1     -22.443  -9.392  -0.251  1.00  0.00     0.035 A 
HETATM   13  C   UNL     1     -22.020  -8.309  -1.025  1.00  0.00     0.015 A 
BRANCH   8  14
HETATM   14  C   UNL     1     -21.486 -10.148  -4.332  1.00  0.00     0.057 C 
BRANCH  14  15
HETATM   15  C   UNL     1     -20.681 -11.441  -4.486  1.00  0.00     0.002 C 
HETATM   16  C   UNL     1     -19.605 -11.389  -5.560  1.00  0.00     0.005 C 
ENDBRANCH  14  15
ENDBRANCH   8  14
BRANCH  10  17
HETATM   17  C   UNL     1     -22.971 -11.836   0.016  1.00  0.00     0.432 C 
HETATM   18  F   UNL     1     -22.083 -12.175   0.993  1.00  0.00    -0.165 F 
HETATM   19  F   UNL     1     -24.160 -11.621   0.657  1.00  0.00    -0.165 F 
HETATM   20  F   UNL     1     -23.161 -12.969  -0.722  1.00  0.00    -0.165 F 
ENDBRANCH  10  17
ENDBRANCH   6   7
ENDBRANCH   1   5
BRANCH   3  21
HETATM   21  C   UNL     1     -20.387  -4.651  -7.064  1.00  0.00     0.114 C 
HETATM   22  C   UNL     1     -19.024  -5.224  -7.447  1.00  0.00     0.037 C 
BRANCH  21  23
HETATM   23  C   UNL     1     -21.215  -4.262  -8.279  1.00  0.00    -0.030 A 
HETATM   24  C   UNL     1     -20.587  -4.036  -9.517  1.00  0.00     0.053 A 
HETATM   25  C   UNL     1     -21.314  -3.558 -10.611  1.00  0.00     0.142 A 
HETATM   26  F   UNL     1     -20.667  -3.317 -11.762  1.00  0.00    -0.204 F 
HETATM   27  C   UNL     1     -22.668  -3.255 -10.492  1.00  0.00     0.099 A 
HETATM   28  C   UNL     1     -23.312  -3.569  -9.296  1.00  0.00     0.142 A 
HETATM   29  F   UNL     1     -24.624  -3.322  -9.157  1.00  0.00    -0.204 F 
HETATM   30  C   UNL     1     -22.604  -4.068  -8.198  1.00  0.00     0.053 A 
BRANCH  27  31
HETATM   31  N   UNL     1     -23.373  -2.585 -11.549  1.00  0.00    -0.180 NA
HETATM   32  H   UNL     1     -24.081  -1.924 -11.216  1.00  0.00     0.146 HD
BRANCH  31  33
HETATM   33  S   UNL     1     -24.062  -3.523 -12.766  1.00  0.00     0.210 S 
HETATM   34  C   UNL     1     -23.186  -2.964 -14.207  1.00  0.00     0.180 C 
HETATM   35  O   UNL     1     -23.766  -4.916 -12.533  1.00  0.00    -0.211 OA
HETATM   36  O   UNL     1     -25.429  -3.048 -12.877  1.00  0.00    -0.211 OA
ENDBRANCH  31  33
ENDBRANCH  27  31
ENDBRANCH  21  23
ENDBRANCH   3  21
TORSDOF 9
ENDMDL
MODEL 5
REMARK VINA RESULT:      -9.0      1.676      2.594
REMARK  9 active torsions:
REMARK  status: ('A' for Active; 'I' for Inactive)
REMARK    1  A    between atoms: C_2  and  C_3 
REMARK    2  A    between atoms: C_3  and  C_4 
REMARK    3  A    between atoms: C_7  and  C_8 
REMARK    4  A    between atoms: C_14  and  C_15 
REMARK    5  A    between atoms: C_16  and  C_17 
REMARK       I    between atoms: C_17  and  N_19 
REMARK    6  A    between atoms: N_19  and  C_20 
REMARK    7  A    between atoms: C_20  and  C_22 
REMARK    8  A    between atoms: C_26  and  N_27 
REMARK    9  A    between atoms: N_27  and  S_28 
ROOT
HETATM    1  C   UNL     1     -21.356  -6.572  -5.635  1.00  0.00     0.241 C 
HETATM    2  O   UNL     1     -22.033  -5.795  -4.973  1.00  0.00    -0.269 OA
HETATM    3  N   UNL     1     -20.574  -6.191  -6.697  1.00  0.00    -0.349 N 
HETATM    4  H   UNL     1     -20.044  -6.883  -7.208  1.00  0.00     0.163 HD
ENDROOT
BRANCH   1   5
HETATM    5  C   UNL     1     -21.300  -8.032  -5.332  1.00  0.00     0.075 C 
HETATM    6  C   UNL     1     -21.382  -8.422  -4.046  1.00  0.00     0.019 C 
BRANCH   6   7
HETATM    7  C   UNL     1     -21.323  -9.802  -3.523  1.00  0.00    -0.013 A 
HETATM    8  C   UNL     1     -20.211 -10.301  -2.816  1.00  0.00     0.019 A 
HETATM    9  N   UNL     1     -20.188 -11.551  -2.267  1.00  0.00    -0.355 N 
HETATM   10  C   UNL     1     -21.289 -12.346  -2.367  1.00  0.00     0.117 A 
ATOM     11  HN  UNL     1     -19.355 -11.886  -1.786  1.00  0.00     0.166 HD
HETATM   12  C   UNL     1     -22.424 -11.920  -3.047  1.00  0.00     0.035 A 
HETATM   13  C   UNL     1     -22.436 -10.648  -3.624  1.00  0.00     0.015 A 
BRANCH   8  14
HETATM   14  C   UNL     1     -18.948  -9.506  -2.560  1.00  0.00     0.057 C 
BRANCH  14  15
HETATM   15  C   UNL     1     -17.741  -9.915  -3.409  1.00  0.00     0.002 C 
HETATM   16  C   UNL     1     -17.950  -9.775  -4.909  1.00  0.00     0.005 C 
ENDBRANCH  14  15
ENDBRANCH   8  14
BRANCH  10  17
HETATM   17  C   UNL     1     -21.292 -13.717  -1.700  1.00  0.00     0.432 C 
HETATM   18  F   UNL     1     -20.147 -14.436  -1.871  1.00  0.00    -0.165 F 
HETATM   19  F   UNL     1     -21.480 -13.638  -0.348  1.00  0.00    -0.165 F 
HETATM   20  F   UNL     1     -22.303 -14.516  -2.156  1.00  0.00    -0.165 F 
ENDBRANCH  10  17
ENDBRANCH   6   7
ENDBRANCH   1   5
BRANCH   3  21
HETATM   21  C   UNL     1     -20.438  -4.790  -7.092  1.00  0.00     0.114 C 
HETATM   22  C   UNL     1     -18.965  -4.389  -7.105  1.00  0.00     0.037 C 
BRANCH  21  23
HETATM   23  C   UNL     1     -21.118  -4.543  -8.431  1.00  0.00    -0.030 A 
HETATM   24  C   UNL     1     -22.520  -4.616  -8.534  1.00  0.00     0.053 A 
HETATM   25  C   UNL     1     -23.151  -4.516  -9.777  1.00  0.00     0.142 A 
HETATM   26  F   UNL     1     -24.487  -4.633  -9.835  1.00  0.00    -0.204 F 
HETATM   27  C   UNL     1     -22.408  -4.383 -10.947  1.00  0.00     0.099 A 
HETATM   28  C   UNL     1     -21.029  -4.213 -10.838  1.00  0.00     0.142 A 
HETATM   29  F   UNL     1     -20.285  -4.048 -11.943  1.00  0.00    -0.204 F 
HETATM   30  C   UNL     1     -20.383  -4.290  -9.601  1.00  0.00     0.053 A 
BRANCH  27  31
HETATM   31  N   UNL     1     -23.035  -4.474 -12.237  1.00  0.00    -0.180 NA
HETATM   32  H   UNL     1     -22.448  -4.918 -12.948  1.00  0.00     0.146 HD
BRANCH  31  33
HETATM   33  S   UNL     1     -23.696  -3.075 -12.901  1.00  0.00     0.210 S 
HETATM   34  C   UNL     1     -22.928  -3.024 -14.502  1.00  0.00     0.180 C 
HETATM   35  O   UNL     1     -25.123  -3.237 -13.057  1.00  0.00    -0.211 OA
HETATM   36  O   UNL     1     -23.140  -1.989 -12.117  1.00  0.00    -0.211 OA
ENDBRANCH  31  33
ENDBRANCH  27  31
ENDBRANCH  21  23
ENDBRANCH   3  21
TORSDOF 9
ENDMDL
MODEL 6
REMARK VINA RESULT:      -8.9      4.816     10.178
REMARK  9 active torsions:
REMARK  status: ('A' for Active; 'I' for Inactive)
REMARK    1  A    between atoms: C_2  and  C_3 
REMARK    2  A    between atoms: C_3  and  C_4 
REMARK    3  A    between atoms: C_7  and  C_8 
REMARK    4  A    between atoms: C_14  and  C_15 
REMARK    5  A    between atoms: C_16  and  C_17 
REMARK       I    between atoms: C_17  and  N_19 
REMARK    6  A    between atoms: N_19  and  C_20 
REMARK    7  A    between atoms: C_20  and  C_22 
REMARK    8  A    between atoms: C_26  and  N_27 
REMARK    9  A    between atoms: N_27  and  S_28 
ROOT
HETATM    1  C   UNL     1     -21.830  -6.487  -4.377  1.00  0.00     0.241 C 
HETATM    2  O   UNL     1     -21.938  -5.860  -3.331  1.00  0.00    -0.269 OA
HETATM    3  N   UNL     1     -21.124  -7.659  -4.497  1.00  0.00    -0.349 N 
HETATM    4  H   UNL     1     -21.067  -8.125  -5.391  1.00  0.00     0.163 HD
ENDROOT
BRANCH   1   5
HETATM    5  C   UNL     1     -22.484  -6.040  -5.642  1.00  0.00     0.075 C 
HETATM    6  C   UNL     1     -21.793  -5.237  -6.471  1.00  0.00     0.019 C 
BRANCH   6   7
HETATM    7  C   UNL     1     -22.252  -4.661  -7.752  1.00  0.00    -0.013 A 
HETATM    8  C   UNL     1     -21.409  -4.529  -8.873  1.00  0.00     0.019 A 
HETATM    9  N   UNL     1     -21.855  -4.068 -10.078  1.00  0.00    -0.355 N 
HETATM   10  C   UNL     1     -23.170  -3.752 -10.229  1.00  0.00     0.117 A 
ATOM     11  HN  UNL     1     -21.208  -3.961 -10.858  1.00  0.00     0.166 HD
HETATM   12  C   UNL     1     -24.062  -3.859  -9.168  1.00  0.00     0.035 A 
HETATM   13  C   UNL     1     -23.598  -4.313  -7.931  1.00  0.00     0.015 A 
BRANCH   8  14
HETATM   14  C   UNL     1     -19.945  -4.912  -8.876  1.00  0.00     0.057 C 
BRANCH  14  15
HETATM   15  C   UNL     1     -19.005  -3.889  -8.231  1.00  0.00     0.002 C 
HETATM   16  C   UNL     1     -18.252  -4.406  -7.014  1.00  0.00     0.005 C 
ENDBRANCH  14  15
ENDBRANCH   8  14
BRANCH  10  17
HETATM   17  C   UNL     1     -23.686  -3.297 -11.590  1.00  0.00     0.432 C 
HETATM   18  F   UNL     1     -23.533  -4.210 -12.590  1.00  0.00    -0.165 F 
HETATM   19  F   UNL     1     -25.020  -2.996 -11.567  1.00  0.00    -0.165 F 
HETATM   20  F   UNL     1     -23.069  -2.160 -12.028  1.00  0.00    -0.165 F 
ENDBRANCH  10  17
ENDBRANCH   6   7
ENDBRANCH   1   5
BRANCH   3  21
HETATM   21  C   UNL     1     -20.483  -8.294  -3.347  1.00  0.00     0.114 C 
HETATM   22  C   UNL     1     -21.468  -9.226  -2.645  1.00  0.00     0.037 C 
BRANCH  21  23
HETATM   23  C   UNL     1     -19.210  -9.010  -3.772  1.00  0.00    -0.030 A 
HETATM   24  C   UNL     1     -18.207  -9.286  -2.824  1.00  0.00     0.053 A 
HETATM   25  C   UNL     1     -16.980  -9.829  -3.219  1.00  0.00     0.142 A 
HETATM   26  F   UNL     1     -16.036 -10.038  -2.288  1.00  0.00    -0.204 F 
HETATM   27  C   UNL     1     -16.707 -10.073  -4.562  1.00  0.00     0.099 A 
HETATM   28  C   UNL     1     -17.732  -9.892  -5.489  1.00  0.00     0.142 A 
HETATM   29  F   UNL     1     -17.514 -10.150  -6.788  1.00  0.00    -0.204 F 
HETATM   30  C   UNL     1     -18.971  -9.369  -5.108  1.00  0.00     0.053 A 
BRANCH  27  31
HETATM   31  N   UNL     1     -15.387 -10.447  -4.993  1.00  0.00    -0.180 NA
HETATM   32  H   UNL     1     -15.007  -9.840  -5.724  1.00  0.00     0.146 HD
BRANCH  31  33
HETATM   33  S   UNL     1     -15.122 -12.047  -5.449  1.00  0.00     0.210 S 
HETATM   34  C   UNL     1     -13.572 -12.406  -4.659  1.00  0.00     0.180 C 
HETATM   35  O   UNL     1     -16.154 -12.889  -4.890  1.00  0.00    -0.211 OA
HETATM   36  O   UNL     1     -14.880 -11.993  -6.878  1.00  0.00    -0.211 OA
ENDBRANCH  31  33
ENDBRANCH  27  31
ENDBRANCH  21  23
ENDBRANCH   3  21
TORSDOF 9
ENDMDL
MODEL 7
REMARK VINA RESULT:      -8.9      4.951      5.673
REMARK  9 active torsions:
REMARK  status: ('A' for Active; 'I' for Inactive)
REMARK    1  A    between atoms: C_2  and  C_3 
REMARK    2  A    between atoms: C_3  and  C_4 
REMARK    3  A    between atoms: C_7  and  C_8 
REMARK    4  A    between atoms: C_14  and  C_15 
REMARK    5  A    between atoms: C_16  and  C_17 
REMARK       I    between atoms: C_17  and  N_19 
REMARK    6  A    between atoms: N_19  and  C_20 
REMARK    7  A    between atoms: C_20  and  C_22 
REMARK    8  A    between atoms: C_26  and  N_27 
REMARK    9  A    between atoms: N_27  and  S_28 
ROOT
HETATM    1  C   UNL     1     -20.077  -8.029  -5.194  1.00  0.00     0.241 C 
HETATM    2  O   UNL     1     -20.763  -8.060  -4.180  1.00  0.00    -0.269 OA
HETATM    3  N   UNL     1     -20.076  -6.986  -6.086  1.00  0.00    -0.349 N 
HETATM    4  H   UNL     1     -19.491  -7.025  -6.909  1.00  0.00     0.163 HD
ENDROOT
BRANCH   1   5
HETATM    5  C   UNL     1     -19.140  -9.136  -5.552  1.00  0.00     0.075 C 
HETATM    6  C   UNL     1     -18.027  -9.295  -4.813  1.00  0.00     0.019 C 
BRANCH   6   7
HETATM    7  C   UNL     1     -16.961 -10.300  -5.005  1.00  0.00    -0.013 A 
HETATM    8  C   UNL     1     -16.896 -11.492  -4.256  1.00  0.00     0.019 A 
HETATM    9  N   UNL     1     -15.955 -12.454  -4.486  1.00  0.00    -0.355 N 
HETATM   10  C   UNL     1     -15.059 -12.288  -5.497  1.00  0.00     0.117 A 
ATOM     11  HN  UNL     1     -15.924 -13.291  -3.905  1.00  0.00     0.166 HD
HETATM   12  C   UNL     1     -15.064 -11.138  -6.280  1.00  0.00     0.035 A 
HETATM   13  C   UNL     1     -16.016 -10.147  -6.029  1.00  0.00     0.015 A 
BRANCH   8  14
HETATM   14  C   UNL     1     -17.869 -11.850  -3.153  1.00  0.00     0.057 C 
BRANCH  14  15
HETATM   15  C   UNL     1     -17.579 -11.202  -1.796  1.00  0.00     0.002 C 
HETATM   16  C   UNL     1     -16.154 -11.394  -1.299  1.00  0.00     0.005 C 
ENDBRANCH  14  15
ENDBRANCH   8  14
BRANCH  10  17
HETATM   17  C   UNL     1     -14.048 -13.388  -5.800  1.00  0.00     0.432 C 
HETATM   18  F   UNL     1     -14.586 -14.530  -6.311  1.00  0.00    -0.165 F 
HETATM   19  F   UNL     1     -13.102 -12.989  -6.703  1.00  0.00    -0.165 F 
HETATM   20  F   UNL     1     -13.347 -13.771  -4.691  1.00  0.00    -0.165 F 
ENDBRANCH  10  17
ENDBRANCH   6   7
ENDBRANCH   1   5
BRANCH   3  21
HETATM   21  C   UNL     1     -20.868  -5.778  -5.861  1.00  0.00     0.114 C 
HETATM   22  C   UNL     1     -20.054  -4.757  -5.070  1.00  0.00     0.037 C 
BRANCH  21  23
HETATM   23  C   UNL     1     -21.376  -5.217  -7.181  1.00  0.00    -0.030 A 
HETATM   24  C   UNL     1     -20.523  -5.164  -8.299  1.00  0.00     0.053 A 
HETATM   25  C   UNL     1     -20.933  -4.539  -9.481  1.00  0.00     0.142 A 
HETATM   26  F   UNL     1     -20.072  -4.473 -10.509  1.00  0.00    -0.204 F 
HETATM   27  C   UNL     1     -22.176  -3.920  -9.568  1.00  0.00     0.099 A 
HETATM   28  C   UNL     1     -23.059  -4.056  -8.497  1.00  0.00     0.142 A 
HETATM   29  F   UNL     1     -24.279  -3.500  -8.560  1.00  0.00    -0.204 F 
HETATM   30  C   UNL     1     -22.673  -4.695  -7.315  1.00  0.00     0.053 A 
BRANCH  27  31
HETATM   31  N   UNL     1     -22.524  -3.113 -10.705  1.00  0.00    -0.180 NA
HETATM   32  H   UNL     1     -22.798  -2.157 -10.462  1.00  0.00     0.146 HD
BRANCH  31  33
HETATM   33  S   UNL     1     -23.654  -3.721 -11.796  1.00  0.00     0.210 S 
HETATM   34  C   UNL     1     -23.103  -3.020 -13.332  1.00  0.00     0.180 C 
HETATM   35  O   UNL     1     -23.546  -5.159 -11.857  1.00  0.00    -0.211 OA
HETATM   36  O   UNL     1     -24.902  -3.070 -11.444  1.00  0.00    -0.211 OA
ENDBRANCH  31  33
ENDBRANCH  27  31
ENDBRANCH  21  23
ENDBRANCH   3  21
TORSDOF 9
ENDMDL
MODEL 8
REMARK VINA RESULT:      -8.7      2.375      3.069
REMARK  9 active torsions:
REMARK  status: ('A' for Active; 'I' for Inactive)
REMARK    1  A    between atoms: C_2  and  C_3 
REMARK    2  A    between atoms: C_3  and  C_4 
REMARK    3  A    between atoms: C_7  and  C_8 
REMARK    4  A    between atoms: C_14  and  C_15 
REMARK    5  A    between atoms: C_16  and  C_17 
REMARK       I    between atoms: C_17  and  N_19 
REMARK    6  A    between atoms: N_19  and  C_20 
REMARK    7  A    between atoms: C_20  and  C_22 
REMARK    8  A    between atoms: C_26  and  N_27 
REMARK    9  A    between atoms: N_27  and  S_28 
ROOT
HETATM    1  C   UNL     1     -21.739  -6.588  -5.438  1.00  0.00     0.241 C 
HETATM    2  O   UNL     1     -22.824  -6.216  -5.008  1.00  0.00    -0.269 OA
HETATM    3  N   UNL     1     -21.008  -5.896  -6.371  1.00  0.00    -0.349 N 
HETATM    4  H   UNL     1     -20.122  -6.261  -6.691  1.00  0.00     0.163 HD
ENDROOT
BRANCH   1   5
HETATM    5  C   UNL     1     -21.085  -7.843  -4.963  1.00  0.00     0.075 C 
HETATM    6  C   UNL     1     -20.471  -7.831  -3.766  1.00  0.00     0.019 C 
BRANCH   6   7
HETATM    7  C   UNL     1     -19.745  -8.944  -3.120  1.00  0.00    -0.013 A 
HETATM    8  C   UNL     1     -20.351  -9.804  -2.183  1.00  0.00     0.019 A 
HETATM    9  N   UNL     1     -19.702 -10.878  -1.643  1.00  0.00    -0.355 N 
HETATM   10  C   UNL     1     -18.433 -11.164  -2.042  1.00  0.00     0.117 A 
ATOM     11  HN  UNL     1     -20.165 -11.461  -0.948  1.00  0.00     0.166 HD
HETATM   12  C   UNL     1     -17.772 -10.361  -2.966  1.00  0.00     0.035 A 
HETATM   13  C   UNL     1     -18.432  -9.252  -3.501  1.00  0.00     0.015 A 
BRANCH   8  14
HETATM   14  C   UNL     1     -21.779  -9.657  -1.701  1.00  0.00     0.057 C 
BRANCH  14  15
HETATM   15  C   UNL     1     -22.716 -10.805  -2.087  1.00  0.00     0.002 C 
HETATM   16  C   UNL     1     -22.767 -11.101  -3.578  1.00  0.00     0.005 C 
ENDBRANCH  14  15
ENDBRANCH   8  14
BRANCH  10  17
HETATM   17  C   UNL     1     -17.728 -12.398  -1.492  1.00  0.00     0.432 C 
HETATM   18  F   UNL     1     -17.155 -12.227  -0.267  1.00  0.00    -0.165 F 
HETATM   19  F   UNL     1     -18.574 -13.464  -1.357  1.00  0.00    -0.165 F 
HETATM   20  F   UNL     1     -16.727 -12.836  -2.313  1.00  0.00    -0.165 F 
ENDBRANCH  10  17
ENDBRANCH   6   7
ENDBRANCH   1   5
BRANCH   3  21
HETATM   21  C   UNL     1     -21.450  -4.603  -6.892  1.00  0.00     0.114 C 
HETATM   22  C   UNL     1     -20.419  -3.525  -6.563  1.00  0.00     0.037 C 
BRANCH  21  23
HETATM   23  C   UNL     1     -21.735  -4.696  -8.384  1.00  0.00    -0.030 A 
HETATM   24  C   UNL     1     -20.711  -4.440  -9.314  1.00  0.00     0.053 A 
HETATM   25  C   UNL     1     -20.985  -4.398 -10.685  1.00  0.00     0.142 A 
HETATM   26  F   UNL     1     -19.988  -4.109 -11.535  1.00  0.00    -0.204 F 
HETATM   27  C   UNL     1     -22.283  -4.569 -11.159  1.00  0.00     0.099 A 
HETATM   28  C   UNL     1     -23.279  -4.919 -10.249  1.00  0.00     0.142 A 
HETATM   29  F   UNL     1     -24.535  -5.124 -10.675  1.00  0.00    -0.204 F 
HETATM   30  C   UNL     1     -23.018  -4.985  -8.877  1.00  0.00     0.053 A 
BRANCH  27  31
HETATM   31  N   UNL     1     -22.603  -4.337 -12.541  1.00  0.00    -0.180 NA
HETATM   32  H   UNL     1     -21.810  -4.469 -13.174  1.00  0.00     0.146 HD
BRANCH  31  33
HETATM   33  S   UNL     1     -23.364  -2.891 -12.949  1.00  0.00     0.210 S 
HETATM   34  C   UNL     1     -22.869  -2.675 -14.642  1.00  0.00     0.180 C 
HETATM   35  O   UNL     1     -24.796  -3.059 -12.884  1.00  0.00    -0.211 OA
HETATM   36  O   UNL     1     -22.685  -1.876 -12.165  1.00  0.00    -0.211 OA
ENDBRANCH  31  33
ENDBRANCH  27  31
ENDBRANCH  21  23
ENDBRANCH   3  21
TORSDOF 9
ENDMDL
MODEL 9
REMARK VINA RESULT:      -8.5     16.986     18.967
REMARK  9 active torsions:
REMARK  status: ('A' for Active; 'I' for Inactive)
REMARK    1  A    between atoms: C_2  and  C_3 
REMARK    2  A    between atoms: C_3  and  C_4 
REMARK    3  A    between atoms: C_7  and  C_8 
REMARK    4  A    between atoms: C_14  and  C_15 
REMARK    5  A    between atoms: C_16  and  C_17 
REMARK       I    between atoms: C_17  and  N_19 
REMARK    6  A    between atoms: N_19  and  C_20 
REMARK    7  A    between atoms: C_20  and  C_22 
REMARK    8  A    between atoms: C_26  and  N_27 
REMARK    9  A    between atoms: N_27  and  S_28 
ROOT
HETATM    1  C   UNL     1     -21.622   9.252   3.943  1.00  0.00     0.241 C 
HETATM    2  O   UNL     1     -22.374   9.598   4.846  1.00  0.00    -0.269 OA
HETATM    3  N   UNL     1     -21.964   9.265   2.614  1.00  0.00    -0.349 N 
HETATM    4  H   UNL     1     -21.299   8.960   1.918  1.00  0.00     0.163 HD
ENDROOT
BRANCH   1   5
HETATM    5  C   UNL     1     -20.225   8.793   4.206  1.00  0.00     0.075 C 
HETATM    6  C   UNL     1     -19.322   9.699   4.620  1.00  0.00     0.019 C 
BRANCH   6   7
HETATM    7  C   UNL     1     -17.891   9.470   4.912  1.00  0.00    -0.013 A 
HETATM    8  C   UNL     1     -16.929   9.283   3.901  1.00  0.00     0.019 A 
HETATM    9  N   UNL     1     -15.597   9.147   4.169  1.00  0.00    -0.355 N 
HETATM   10  C   UNL     1     -15.161   9.229   5.456  1.00  0.00     0.117 A 
ATOM     11  HN  UNL     1     -14.934   8.986   3.412  1.00  0.00     0.166 HD
HETATM   12  C   UNL     1     -16.053   9.416   6.506  1.00  0.00     0.035 A 
HETATM   13  C   UNL     1     -17.417   9.534   6.230  1.00  0.00     0.015 A 
BRANCH   8  14
HETATM   14  C   UNL     1     -17.254   9.246   2.423  1.00  0.00     0.057 C 
BRANCH  14  15
HETATM   15  C   UNL     1     -17.259  10.609   1.724  1.00  0.00     0.002 C 
HETATM   16  C   UNL     1     -18.623  11.051   1.217  1.00  0.00     0.005 C 
ENDBRANCH  14  15
ENDBRANCH   8  14
BRANCH  10  17
HETATM   17  C   UNL     1     -13.668   9.143   5.755  1.00  0.00     0.432 C 
HETATM   18  F   UNL     1     -13.291   8.033   6.449  1.00  0.00    -0.165 F 
HETATM   19  F   UNL     1     -12.910   9.142   4.617  1.00  0.00    -0.165 F 
HETATM   20  F   UNL     1     -13.220  10.208   6.483  1.00  0.00    -0.165 F 
ENDBRANCH  10  17
ENDBRANCH   6   7
ENDBRANCH   1   5
BRANCH   3  21
HETATM   21  C   UNL     1     -23.262   9.761   2.157  1.00  0.00     0.114 C 
HETATM   22  C   UNL     1     -23.142  11.220   1.723  1.00  0.00     0.037 C 
BRANCH  21  23
HETATM   23  C   UNL     1     -23.817   8.871   1.055  1.00  0.00    -0.030 A 
HETATM   24  C   UNL     1     -22.940   8.165   0.211  1.00  0.00     0.053 A 
HETATM   25  C   UNL     1     -23.427   7.443  -0.883  1.00  0.00     0.142 A 
HETATM   26  F   UNL     1     -22.552   6.818  -1.687  1.00  0.00    -0.204 F 
HETATM   27  C   UNL     1     -24.786   7.438  -1.187  1.00  0.00     0.099 A 
HETATM   28  C   UNL     1     -25.665   8.056  -0.299  1.00  0.00     0.142 A 
HETATM   29  F   UNL     1     -26.984   8.042  -0.543  1.00  0.00    -0.204 F 
HETATM   30  C   UNL     1     -25.196   8.764   0.811  1.00  0.00     0.053 A 
BRANCH  27  31
HETATM   31  N   UNL     1     -25.268   6.863  -2.413  1.00  0.00    -0.180 NA
HETATM   32  H   UNL     1     -24.768   6.016  -2.694  1.00  0.00     0.146 HD
BRANCH  31  33
HETATM   33  S   UNL     1     -25.405   7.862  -3.762  1.00  0.00     0.210 S 
HETATM   34  C   UNL     1     -27.095   7.606  -4.244  1.00  0.00     0.180 C 
HETATM   35  O   UNL     1     -25.220   9.239  -3.368  1.00  0.00    -0.211 OA
HETATM   36  O   UNL     1     -24.566   7.246  -4.771  1.00  0.00    -0.211 OA
ENDBRANCH  31  33
ENDBRANCH  27  31
ENDBRANCH  21  23
ENDBRANCH   3  21
TORSDOF 9
ENDMDL
