REMARK  6 active torsions:
REMARK  status: ('A' for Active; 'I' for Inactive)
REMARK    1  A    between atoms: C_2  and  C_3 
REMARK    2  A    between atoms: C_3  and  C_4 
REMARK    3  A    between atoms: C_4  and  C_5 
REMARK    4  A    between atoms: C_5  and  C_6 
REMARK    5  A    between atoms: C_5  and  O_8 
REMARK    6  A    between atoms: C_6  and  O_7 
ROOT
HETATM    1  C   UNL     1       5.051   1.411   2.420  1.00  0.00     0.141 C 
ENDROOT
BRANCH   1   2
HETATM    2  C   UNL     1       4.529   0.652   1.197  1.00  0.00     0.034 C 
BRANCH   2   3
HETATM    3  C   UNL     1       3.003   0.659   1.088  1.00  0.00     0.002 C 
BRANCH   3   4
HETATM    4  C   UNL     1       2.520  -0.090  -0.154  1.00  0.00    -0.004 C 
HETATM    5  C   UNL     1       1.002  -0.088  -0.238  1.00  0.00     0.005 C 
ENDBRANCH   3   4
ENDBRANCH   2   3
ENDBRANCH   1   2
BRANCH   1   6
HETATM    6  C   UNL     1       4.583   0.829   3.760  1.00  0.00     0.195 C 
BRANCH   6   7
HETATM    7  O   UNL     1       5.164   1.564   4.836  1.00  0.00    -0.398 OA
HETATM    8  H   UNL     1       6.074   1.781   4.551  1.00  0.00     0.209 HD
ENDBRANCH   6   7
ENDBRANCH   1   6
BRANCH   1   9
HETATM    9  O   UNL     1       6.489   1.385   2.409  1.00  0.00    -0.393 OA
HETATM   10  H   UNL     1       6.769   0.457   2.313  1.00  0.00     0.210 HD
ENDBRANCH   1   9
TORSDOF 6
