REMARK  11 active torsions:
REMARK  status: ('A' for Active; 'I' for Inactive)
REMARK    1  A    between atoms: C_1  and  C_2 
REMARK    2  A    between atoms: C_1  and  C_9 
REMARK    3  A    between atoms: C_2  and  C_3 
REMARK    4  A    between atoms: C_3  and  C_4 
REMARK    5  A    between atoms: C_4  and  C_5 
REMARK    6  A    between atoms: C_5  and  C_6 
REMARK    7  A    between atoms: C_6  and  O_8 
REMARK    8  A    between atoms: C_9  and  C_10 
REMARK    9  A    between atoms: C_10  and  C_11 
REMARK   10  A    between atoms: C_11  and  C_12 
REMARK   11  A    between atoms: C_12  and  O_13 
ROOT
HETATM    1  C   UNL     1       0.381   1.043   0.896  1.00  0.00     0.000 C 
ENDROOT
BRANCH   1   2
HETATM    2  C   UNL     1       0.913  -0.041  -0.034  1.00  0.00     0.000 C 
BRANCH   2   3
HETATM    3  C   UNL     1       2.439  -0.048  -0.040  1.00  0.00     0.000 C 
BRANCH   3   4
HETATM    4  C   UNL     1       2.964  -1.134  -0.972  1.00  0.00     0.002 C 
BRANCH   4   5
HETATM    5  C   UNL     1       4.487  -1.153  -0.990  1.00  0.00     0.026 C 
BRANCH   5   6
HETATM    6  C   UNL     1       5.008  -2.237  -1.921  1.00  0.00     0.164 C 
BRANCH   6   7
HETATM    7  O   UNL     1       6.427  -2.233  -1.918  1.00  0.00    -0.401 OA
HETATM    8  H   UNL     1       6.716  -1.353  -2.214  1.00  0.00     0.209 HD
ENDBRANCH   6   7
ENDBRANCH   5   6
ENDBRANCH   4   5
ENDBRANCH   3   4
ENDBRANCH   2   3
ENDBRANCH   1   2
BRANCH   1   9
HETATM    9  C   UNL     1      -1.146   1.054   0.903  1.00  0.00     0.001 C 
BRANCH   9  10
HETATM   10  C   UNL     1      -1.661   2.145   1.835  1.00  0.00     0.010 C 
BRANCH  10  11
HETATM   11  C   UNL     1      -3.186   2.198   1.877  1.00  0.00     0.110 C 
BRANCH  11  12
HETATM   12  C   UNL     1      -3.652   3.291   2.809  1.00  0.00     0.139 C 
HETATM   13  O   UNL     1      -2.926   4.035   3.448  1.00  0.00    -0.650 OA
BRANCH  12  14
HETATM   14  O   UNL     1      -5.001   3.376   2.878  1.00  0.00    -0.776 OA
HETATM   15  H   UNL     1      -5.460   2.722   2.318  1.00  0.00     0.167 HD
ENDBRANCH  12  14
ENDBRANCH  11  12
ENDBRANCH  10  11
ENDBRANCH   9  10
ENDBRANCH   1   9
TORSDOF 11
