REMARK  5 active torsions:
REMARK  status: ('A' for Active; 'I' for Inactive)
REMARK    1  A    between atoms: C_1  and  C_2 
REMARK    2  A    between atoms: C_1  and  O_9 
REMARK    3  A    between atoms: C_2  and  C_3 
REMARK    4  A    between atoms: C_2  and  N_5 
REMARK    5  A    between atoms: C_3  and  O_4 
ROOT
HETATM    1  C   UNL     1       0.536   1.324   0.144  1.00  0.00     0.195 C 
HETATM    2 BR   UNL     1      -1.434   1.275   0.060  1.00  0.00    -0.050 Br
ENDROOT
BRANCH   1   3
HETATM    3  C   UNL     1       1.065  -0.082  -0.149  1.00  0.00     0.216 C 
BRANCH   3   4
HETATM    4  O   UNL     1       2.494  -0.159  -0.149  1.00  0.00    -0.397 OA
HETATM    5  H   UNL     1       2.807   0.207  -1.002  1.00  0.00     0.209 HD
ENDBRANCH   3   4
ENDBRANCH   1   3
BRANCH   1   6
HETATM    6  C   UNL     1       0.985   1.899   1.486  1.00  0.00     0.216 C 
BRANCH   6   7
HETATM    7  O   UNL     1       0.592   1.074   2.590  1.00  0.00    -0.397 OA
HETATM    8  H   UNL     1      -0.370   1.175   2.714  1.00  0.00     0.209 HD
ENDBRANCH   6   7
ENDBRANCH   1   6
BRANCH   1   9
HETATM    9  N   UNL     1       0.954   2.288  -0.951  1.00  0.00    -0.129 N 
HETATM   10  O   UNL     1       1.608   1.841  -1.906  1.00  0.00    -0.535 OA
HETATM   11  O   UNL     1       0.637   3.480  -0.826  1.00  0.00    -0.535 OA
ENDBRANCH   1   9
TORSDOF 5
