REMARK  5 active torsions:
REMARK  status: ('A' for Active; 'I' for Inactive)
REMARK    1  A    between atoms: C_2  and  C_3 
REMARK    2  A    between atoms: C_3  and  C_4 
REMARK    3  A    between atoms: C_4  and  C_5 
REMARK    4  A    between atoms: C_6  and  O_12 
REMARK    5  A    between atoms: C_8  and  O_11 
ROOT
HETATM    1  C   UNL     1       5.050  -1.282  -2.484  1.00  0.00    -0.025 A 
HETATM    2  C   UNL     1       5.824  -2.451  -2.467  1.00  0.00     0.074 A 
HETATM    3  C   UNL     1       6.186  -3.096  -3.653  1.00  0.00     0.073 A 
HETATM    4  C   UNL     1       5.784  -2.569  -4.874  1.00  0.00     0.068 A 
HETATM    5  C   UNL     1       5.044  -1.399  -4.927  1.00  0.00     0.037 A 
HETATM    6  C   UNL     1       4.689  -0.756  -3.740  1.00  0.00     0.012 A 
ENDROOT
BRANCH   1   7
HETATM    7  C   UNL     1       4.555  -0.568  -1.244  1.00  0.00     0.041 C 
BRANCH   7   8
HETATM    8  C   UNL     1       3.022  -0.542  -1.179  1.00  0.00     0.004 C 
BRANCH   8   9
HETATM    9  C   UNL     1       2.514   0.142   0.089  1.00  0.00    -0.004 C 
HETATM   10  C   UNL     1       0.993   0.184   0.106  1.00  0.00     0.005 C 
ENDBRANCH   8   9
ENDBRANCH   7   8
ENDBRANCH   1   7
BRANCH   2  11
HETATM   11  O   UNL     1       6.276  -3.051  -1.325  1.00  0.00    -0.360 OA
HETATM   12  H   UNL     1       6.168  -2.451  -0.573  1.00  0.00     0.217 HD
ENDBRANCH   2  11
BRANCH   4  13
HETATM   13  O   UNL     1       6.102  -3.174  -6.053  1.00  0.00    -0.361 OA
HETATM   14  H   UNL     1       6.589  -3.992  -5.854  1.00  0.00     0.217 HD
ENDBRANCH   4  13
TORSDOF 5
