REMARK  7 active torsions:
REMARK  status: ('A' for Active; 'I' for Inactive)
REMARK    1  A    between atoms: C_3  and  N_11 
REMARK    2  A    between atoms: C_4  and  N_8 
REMARK    3  A    between atoms: C_6  and  O_7 
REMARK    4  A    between atoms: N_11  and  C_12 
REMARK    5  A    between atoms: C_12  and  C_13 
REMARK    6  A    between atoms: C_13  and  C_14 
REMARK    7  A    between atoms: C_14  and  O_15 
ROOT
HETATM    1  C   UNL     1       0.257   1.178   0.037  1.00  0.00     0.039 A 
HETATM    2  C   UNL     1      -1.137   1.145   0.044  1.00  0.00     0.034 A 
HETATM    3  C   UNL     1      -1.859  -0.065   0.044  1.00  0.00     0.061 A 
HETATM    4  C   UNL     1      -1.101  -1.261   0.056  1.00  0.00     0.131 A 
HETATM    5  C   UNL     1       0.315  -1.228   0.047  1.00  0.00     0.075 A 
HETATM    6  C   UNL     1       0.970  -0.004   0.033  1.00  0.00     0.068 A 
ENDROOT
BRANCH   3   7
HETATM    7  N   UNL     1      -3.257  -0.039  -0.023  1.00  0.00    -0.388 N 
HETATM    8  H   UNL     1      -3.696  -0.575   0.731  1.00  0.00     0.159 HD
BRANCH   7   9
HETATM    9  C   UNL     1      -3.960   1.182  -0.410  1.00  0.00     0.122 C 
BRANCH   9  10
HETATM   10  C   UNL     1      -5.382   0.895  -0.855  1.00  0.00     0.045 C 
BRANCH  10  11
HETATM   11  C   UNL     1      -5.439  -0.069  -2.032  1.00  0.00     0.165 C 
BRANCH  11  12
HETATM   12  O   UNL     1      -6.784  -0.185  -2.486  1.00  0.00    -0.401 OA
HETATM   13  H   UNL     1      -7.271  -0.684  -1.807  1.00  0.00     0.209 HD
ENDBRANCH  11  12
ENDBRANCH  10  11
ENDBRANCH   9  10
ENDBRANCH   7   9
ENDBRANCH   3   7
BRANCH   4  14
HETATM   14  N   UNL     1      -1.724  -2.598   0.043  1.00  0.00    -0.113 N 
HETATM   15  O   UNL     1      -2.949  -2.699   0.210  1.00  0.00    -0.532 OA
HETATM   16  O   UNL     1      -0.972  -3.581  -0.099  1.00  0.00    -0.532 OA
ENDBRANCH   4  14
BRANCH   6  17
HETATM   17  O   UNL     1       2.328   0.086   0.013  1.00  0.00    -0.361 OA
HETATM   18  H   UNL     1       2.711  -0.807  -0.024  1.00  0.00     0.217 HD
ENDBRANCH   6  17
TORSDOF 7
