REMARK  6 active torsions:
REMARK  status: ('A' for Active; 'I' for Inactive)
REMARK    1  A    between atoms: C_2  and  C_4 
REMARK    2  A    between atoms: C_4  and  C_5 
REMARK    3  A    between atoms: C_5  and  C_6 
REMARK    4  A    between atoms: C_6  and  C_7 
REMARK    5  A    between atoms: C_7  and  C_9 
REMARK    6  A    between atoms: C_24  and  O_26 
ROOT
HETATM    1  C   UNL     1       7.316  -2.803   3.262  1.00  0.00    -0.002 C 
HETATM    2  C   UNL     1       7.196  -2.939   4.782  1.00  0.00     0.006 C 
HETATM    3  C   UNL     1       8.129  -4.139   5.090  1.00  0.00     0.010 C 
HETATM    4  C   UNL     1       8.912  -4.444   3.773  1.00  0.00     0.023 C 
HETATM    5  C   UNL     1       8.836  -3.085   3.033  1.00  0.00    -0.033 C 
HETATM    6  C   UNL     1       9.298  -3.198   1.580  1.00  0.00     0.011 C 
HETATM    7  C   UNL     1       8.524  -4.178   0.737  1.00  0.00     0.011 C 
HETATM    8  C   UNL     1       8.164  -5.500   1.436  1.00  0.00     0.027 C 
HETATM    9  C   UNL     1       8.346  -5.602   2.952  1.00  0.00    -0.070 C 
HETATM   10  C   UNL     1       7.985  -6.774   3.512  1.00  0.00     0.004 C 
HETATM   11  C   UNL     1       7.743  -7.962   2.715  1.00  0.00     0.004 C 
HETATM   12  C   UNL     1       8.265  -8.028   1.472  1.00  0.00    -0.069 C 
HETATM   13  C   UNL     1       8.687  -6.778   0.684  1.00  0.00    -0.013 C 
HETATM   14  C   UNL     1      10.242  -6.805   0.539  1.00  0.00     0.017 C 
HETATM   15  C   UNL     1      10.922  -7.687   1.588  1.00  0.00     0.033 C 
HETATM   16  C   UNL     1      10.441  -9.156   1.501  1.00  0.00     0.122 C 
HETATM   17  C   UNL     1       8.963  -9.301   1.062  1.00  0.00     0.066 C 
HETATM   18  C   UNL     1       8.048  -6.795  -0.731  1.00  0.00     0.021 C 
HETATM   19  C   UNL     1       9.819  -2.081   3.705  1.00  0.00     0.016 C 
ENDROOT
BRANCH   1  20
HETATM   20  C   UNL     1       6.629  -1.674   2.482  1.00  0.00    -0.014 C 
HETATM   21  C   UNL     1       7.286  -0.306   2.597  1.00  0.00     0.010 C 
BRANCH  20  22
HETATM   22  C   UNL     1       5.094  -1.629   2.723  1.00  0.00     0.005 C 
BRANCH  22  23
HETATM   23  C   UNL     1       4.400  -0.946   1.535  1.00  0.00     0.001 C 
BRANCH  23  24
HETATM   24  C   UNL     1       2.874  -0.876   1.619  1.00  0.00     0.004 C 
BRANCH  24  25
HETATM   25  C   UNL     1       2.269  -0.201   0.365  1.00  0.00    -0.023 C 
HETATM   26  C   UNL     1       0.744  -0.140   0.470  1.00  0.00     0.009 C 
HETATM   27  C   UNL     1       2.818   1.206   0.117  1.00  0.00     0.009 C 
ENDBRANCH  24  25
ENDBRANCH  23  24
ENDBRANCH  22  23
ENDBRANCH  20  22
ENDBRANCH   1  20
BRANCH  16  28
HETATM   28  O   UNL     1      10.613  -9.777   2.781  1.00  0.00    -0.395 OA
HETATM   29  H   UNL     1      11.421  -9.417   3.183  1.00  0.00     0.210 HD
ENDBRANCH  16  28
TORSDOF 6
