REMARK  27 active torsions:
REMARK  status: ('A' for Active; 'I' for Inactive)
REMARK    1  A    between atoms: C_2  and  C_3 
REMARK    2  A    between atoms: C_3  and  C_4 
REMARK    3  A    between atoms: C_4  and  C_5 
REMARK    4  A    between atoms: C_5  and  C_6 
REMARK    5  A    between atoms: C_6  and  C_7 
REMARK    6  A    between atoms: C_7  and  C_8 
REMARK    7  A    between atoms: C_8  and  C_9 
REMARK    8  A    between atoms: C_9  and  C_10 
REMARK    9  A    between atoms: C_10  and  C_11 
REMARK   10  A    between atoms: C_11  and  C_12 
REMARK   11  A    between atoms: C_12  and  C_13 
REMARK   12  A    between atoms: C_13  and  C_14 
REMARK   13  A    between atoms: C_14  and  C_15 
REMARK   14  A    between atoms: C_15  and  C_16 
REMARK   15  A    between atoms: C_16  and  O_17 
REMARK   16  A    between atoms: O_17  and  C_18 
REMARK   17  A    between atoms: C_18  and  C_20 
REMARK   18  A    between atoms: C_20  and  C_21 
REMARK   19  A    between atoms: C_20  and  N_29 
REMARK   20  A    between atoms: C_21  and  C_22 
REMARK   21  A    between atoms: C_22  and  C_23 
REMARK   22  A    between atoms: C_23  and  N_24 
REMARK       I    between atoms: N_24  and  C_26 
REMARK       I    between atoms: C_26  and  N_27 
REMARK       I    between atoms: N_29  and  C_30 
REMARK   23  A    between atoms: C_30  and  C_32 
REMARK   24  A    between atoms: C_32  and  C_33 
REMARK   25  A    between atoms: C_32  and  N_41 
REMARK   26  A    between atoms: C_33  and  C_34 
REMARK   27  A    between atoms: C_37  and  O_40 
REMARK       I    between atoms: N_41  and  C_42 
ROOT
HETATM    1  C   UNL     1      19.112  12.687   2.732  1.00  0.00     0.184 C 
ENDROOT
BRANCH   1   2
HETATM    2  C   UNL     1      18.709  11.252   2.365  1.00  0.00     0.281 C 
HETATM    3  O   UNL     1      19.500  10.370   2.066  1.00  0.00    -0.263 OA
BRANCH   2   4
HETATM    4  O   UNL     1      17.349  11.119   2.370  1.00  0.00    -0.320 OA
BRANCH   4   5
HETATM    5  C   UNL     1      16.845   9.824   2.006  1.00  0.00     0.178 C 
BRANCH   5   6
HETATM    6  C   UNL     1      16.958   9.575   0.505  1.00  0.00     0.027 C 
BRANCH   6   7
HETATM    7  C   UNL     1      16.172  10.603  -0.304  1.00  0.00     0.002 C 
BRANCH   7   8
HETATM    8  C   UNL     1      16.331  10.346  -1.797  1.00  0.00     0.000 C 
BRANCH   8   9
HETATM    9  C   UNL     1      15.546  11.373  -2.598  1.00  0.00     0.000 C 
BRANCH   9  10
HETATM   10  C   UNL     1      15.709  11.120  -4.088  1.00  0.00     0.000 C 
BRANCH  10  11
HETATM   11  C   UNL     1      14.923  12.148  -4.884  1.00  0.00     0.000 C 
BRANCH  11  12
HETATM   12  C   UNL     1      15.087  11.891  -6.372  1.00  0.00     0.000 C 
BRANCH  12  13
HETATM   13  C   UNL     1      14.301  12.917  -7.169  1.00  0.00     0.000 C 
BRANCH  13  14
HETATM   14  C   UNL     1      14.461  12.660  -8.657  1.00  0.00     0.000 C 
BRANCH  14  15
HETATM   15  C   UNL     1      13.672  13.687  -9.452  1.00  0.00     0.000 C 
BRANCH  15  16
HETATM   16  C   UNL     1      13.831  13.431 -10.941  1.00  0.00     0.000 C 
BRANCH  16  17
HETATM   17  C   UNL     1      13.042  14.457 -11.739  1.00  0.00     0.000 C 
BRANCH  17  18
HETATM   18  C   UNL     1      13.200  14.201 -13.231  1.00  0.00    -0.000 C 
BRANCH  18  19
HETATM   19  C   UNL     1      12.415  15.225 -14.040  1.00  0.00    -0.005 C 
HETATM   20  C   UNL     1      12.574  14.968 -15.527  1.00  0.00     0.005 C 
ENDBRANCH  18  19
ENDBRANCH  17  18
ENDBRANCH  16  17
ENDBRANCH  15  16
ENDBRANCH  14  15
ENDBRANCH  13  14
ENDBRANCH  12  13
ENDBRANCH  11  12
ENDBRANCH  10  11
ENDBRANCH   9  10
ENDBRANCH   8   9
ENDBRANCH   7   8
ENDBRANCH   6   7
ENDBRANCH   5   6
ENDBRANCH   4   5
ENDBRANCH   2   4
ENDBRANCH   1   2
BRANCH   1  21
HETATM   21  C   UNL     1      20.368  12.655   3.625  1.00  0.00     0.037 C 
BRANCH  21  22
HETATM   22  C   UNL     1      20.884  14.042   4.017  1.00  0.00     0.023 C 
BRANCH  22  23
HETATM   23  C   UNL     1      19.889  14.826   4.867  1.00  0.00     0.138 C 
BRANCH  23  24
HETATM   24  N   UNL     1      20.422  16.167   5.118  1.00  0.00    -0.227 N 
HETATM   25  C   UNL     1      20.155  17.105   4.283  1.00  0.00     0.665 C 
HETATM   26  N   UNL     1      19.420  17.040   3.156  1.00  0.00    -0.235 N 
HETATM   27  N   UNL     1      20.637  18.348   4.473  1.00  0.00    -0.235 N 
HETATM   28  H   UNL     1      19.066  16.152   2.831  1.00  0.00     0.174 HD
HETATM   29  H   UNL     1      19.290  17.830   2.554  1.00  0.00     0.174 HD
HETATM   30  H   UNL     1      21.157  18.517   5.326  1.00  0.00     0.174 HD
HETATM   31  H   UNL     1      20.424  19.123   3.875  1.00  0.00     0.174 HD
ATOM     32  HN  UNL     1      20.995  16.352   5.941  1.00  0.00     0.177 HD
ENDBRANCH  23  24
ENDBRANCH  22  23
ENDBRANCH  21  22
ENDBRANCH   1  21
BRANCH   1  33
HETATM   33  N   UNL     1      19.392  13.441   1.509  1.00  0.00    -0.345 N 
HETATM   34  C   UNL     1      18.481  14.296   0.934  1.00  0.00     0.241 C 
HETATM   35  O   UNL     1      17.378  14.561   1.417  1.00  0.00    -0.271 OA
HETATM   36  H   UNL     1      20.290  13.281   1.054  1.00  0.00     0.163 HD
BRANCH  34  37
HETATM   37  C   UNL     1      19.002  15.060  -0.302  1.00  0.00     0.180 C 
BRANCH  37  38
HETATM   38  C   UNL     1      17.842  15.231  -1.302  1.00  0.00     0.073 C 
BRANCH  38  39
HETATM   39  C   UNL     1      18.223  16.008  -2.545  1.00  0.00    -0.056 A 
HETATM   40  C   UNL     1      19.215  15.537  -3.419  1.00  0.00     0.010 A 
HETATM   41  C   UNL     1      19.582  16.282  -4.543  1.00  0.00     0.037 A 
HETATM   42  C   UNL     1      18.949  17.493  -4.801  1.00  0.00     0.065 A 
HETATM   43  C   UNL     1      17.956  17.968  -3.954  1.00  0.00     0.037 A 
HETATM   44  C   UNL     1      17.591  17.228  -2.830  1.00  0.00     0.010 A 
BRANCH  42  45
HETATM   45  O   UNL     1      19.275  18.254  -5.884  1.00  0.00    -0.361 OA
HETATM   46  H   UNL     1      19.952  17.786  -6.399  1.00  0.00     0.217 HD
ENDBRANCH  42  45
ENDBRANCH  38  39
ENDBRANCH  37  38
BRANCH  37  47
HETATM   47  N   UNL     1      19.508  16.379   0.115  1.00  0.00    -0.348 N 
HETATM   48  C   UNL     1      20.825  16.591   0.428  1.00  0.00     0.214 C 
HETATM   49  O   UNL     1      21.633  15.674   0.496  1.00  0.00    -0.274 OA
HETATM   50  C   UNL     1      21.215  18.021   0.715  1.00  0.00     0.117 C 
HETATM   51  H   UNL     1      18.866  17.161   0.080  1.00  0.00     0.163 HD
ENDBRANCH  37  47
ENDBRANCH  34  37
ENDBRANCH   1  33
TORSDOF 27
