REMARK  20 active torsions:
REMARK  status: ('A' for Active; 'I' for Inactive)
REMARK       I    between atoms: C_2  and  N_4 
REMARK    1  A    between atoms: N_4  and  C_5 
REMARK    2  A    between atoms: C_5  and  C_6 
REMARK    3  A    between atoms: C_5  and  C_11 
REMARK    4  A    between atoms: C_6  and  C_7 
REMARK    5  A    between atoms: C_7  and  C_8 
REMARK    6  A    between atoms: C_8  and  C_9 
REMARK    7  A    between atoms: C_9  and  N_10 
REMARK       I    between atoms: C_11  and  N_13 
REMARK    8  A    between atoms: N_13  and  C_14 
REMARK    9  A    between atoms: C_14  and  C_15 
REMARK       I    between atoms: C_15  and  N_17 
REMARK   10  A    between atoms: N_17  and  C_18 
REMARK   11  A    between atoms: C_18  and  C_19 
REMARK   12  A    between atoms: C_18  and  C_26 
REMARK   13  A    between atoms: C_19  and  C_20 
REMARK       I    between atoms: C_26  and  N_28 
REMARK   14  A    between atoms: N_28  and  C_29 
REMARK   15  A    between atoms: C_29  and  C_30 
REMARK   16  A    between atoms: C_29  and  C_35 
REMARK   17  A    between atoms: C_30  and  C_31 
REMARK   18  A    between atoms: C_31  and  C_32 
REMARK   19  A    between atoms: C_32  and  C_33 
REMARK   20  A    between atoms: C_33  and  N_34 
REMARK       I    between atoms: C_35  and  N_37 
ROOT
HETATM    1  C   UNL     1      10.730  -3.563   4.213  1.00  0.00     0.182 C 
ENDROOT
BRANCH   1   2
HETATM    2  N   UNL     1       9.260  -3.502   4.250  1.00  0.00    -0.346 N 
HETATM    3  C   UNL     1       8.515  -2.858   3.290  1.00  0.00     0.236 C 
HETATM    4  O   UNL     1       9.022  -2.255   2.345  1.00  0.00    -0.272 OA
HETATM    5  H   UNL     1       8.796  -4.196   4.841  1.00  0.00     0.163 HD
BRANCH   3   6
HETATM    6  C   UNL     1       6.999  -3.002   3.426  1.00  0.00     0.225 C 
BRANCH   6   7
HETATM    7  N   UNL     1       6.535  -4.054   2.546  1.00  0.00    -0.351 N 
HETATM    8  C   UNL     1       6.353  -5.336   2.997  1.00  0.00     0.240 C 
HETATM    9  O   UNL     1       6.563  -5.633   4.170  1.00  0.00    -0.271 OA
HETATM   10  H   UNL     1       6.352  -3.842   1.575  1.00  0.00     0.163 HD
BRANCH   8  11
HETATM   11  C   UNL     1       5.917  -6.372   1.927  1.00  0.00     0.176 C 
BRANCH  11  12
HETATM   12  N   UNL     1       5.739  -5.743   0.604  1.00  0.00    -0.348 N 
HETATM   13  C   UNL     1       4.541  -5.187   0.217  1.00  0.00     0.214 C 
HETATM   14  C   UNL     1       4.580  -4.555  -1.148  1.00  0.00     0.117 C 
HETATM   15  O   UNL     1       3.549  -5.146   0.932  1.00  0.00    -0.274 OA
HETATM   16  H   UNL     1       6.551  -5.639   0.010  1.00  0.00     0.163 HD
ENDBRANCH  11  12
BRANCH  11  17
HETATM   17  C   UNL     1       6.961  -7.496   1.798  1.00  0.00     0.035 C 
BRANCH  17  18
HETATM   18  C   UNL     1       7.189  -8.366   3.042  1.00  0.00     0.004 C 
BRANCH  18  19
HETATM   19  C   UNL     1       5.952  -9.092   3.578  1.00  0.00     0.030 C 
BRANCH  19  20
HETATM   20  C   UNL     1       5.398 -10.110   2.582  1.00  0.00     0.267 C 
BRANCH  20  21
HETATM   21  N   UNL     1       4.242 -10.800   3.137  1.00  0.00     0.078 N 
HETATM   22  H   UNL     1       4.511 -11.305   3.981  1.00  0.00     0.312 HD
HETATM   23  H   UNL     1       3.912 -11.499   2.474  1.00  0.00     0.312 HD
ENDBRANCH  20  21
ENDBRANCH  19  20
ENDBRANCH  18  19
ENDBRANCH  17  18
ENDBRANCH  11  17
ENDBRANCH   8  11
ENDBRANCH   6   7
ENDBRANCH   3   6
ENDBRANCH   1   2
BRANCH   1  24
HETATM   24  C   UNL     1      11.403  -2.175   4.280  1.00  0.00     0.093 C 
BRANCH  24  25
HETATM   25  C   UNL     1      11.140  -1.418   5.539  1.00  0.00     0.028 A 
HETATM   26  C   UNL     1      11.764  -1.403   6.769  1.00  0.00     0.114 A 
HETATM   27  N   UNL     1      11.188  -0.480   7.599  1.00  0.00    -0.360 N 
HETATM   28  C   UNL     1      10.208   0.049   6.906  1.00  0.00     0.180 A 
ATOM     29  HN  UNL     1      11.463  -0.252   8.554  1.00  0.00     0.166 HD
HETATM   30  N   UNL     1      10.128  -0.497   5.657  1.00  0.00    -0.354 N 
HETATM   31  H   UNL     1       9.452  -0.253   4.946  1.00  0.00     0.166 HD
ENDBRANCH  24  25
ENDBRANCH   1  24
BRANCH   1  32
HETATM   32  C   UNL     1      11.250  -4.495   5.339  1.00  0.00     0.241 C 
HETATM   33  O   UNL     1      10.485  -5.123   6.068  1.00  0.00    -0.271 OA
HETATM   34  N   UNL     1      12.626  -4.589   5.448  1.00  0.00    -0.346 N 
HETATM   35  H   UNL     1      13.206  -4.351   4.655  1.00  0.00     0.163 HD
BRANCH  34  36
HETATM   36  C   UNL     1      13.276  -5.316   6.554  1.00  0.00     0.176 C 
BRANCH  36  37
HETATM   37  C   UNL     1      13.526  -6.779   6.151  1.00  0.00     0.035 C 
BRANCH  37  38
HETATM   38  C   UNL     1      14.106  -7.682   7.252  1.00  0.00     0.004 C 
BRANCH  38  39
HETATM   39  C   UNL     1      13.279  -7.756   8.539  1.00  0.00     0.030 C 
BRANCH  39  40
HETATM   40  C   UNL     1      11.904  -8.380   8.303  1.00  0.00     0.267 C 
BRANCH  40  41
HETATM   41  N   UNL     1      11.155  -8.458   9.550  1.00  0.00     0.078 N 
HETATM   42  H   UNL     1      11.640  -9.064  10.209  1.00  0.00     0.312 HD
HETATM   43  H   UNL     1      10.248  -8.887   9.369  1.00  0.00     0.312 HD
ENDBRANCH  40  41
ENDBRANCH  39  40
ENDBRANCH  38  39
ENDBRANCH  37  38
ENDBRANCH  36  37
BRANCH  36  44
HETATM   44  C   UNL     1      14.598  -4.624   6.968  1.00  0.00     0.238 C 
HETATM   45  O   UNL     1      15.271  -4.951   7.941  1.00  0.00    -0.271 OA
HETATM   46  N   UNL     1      15.071  -3.637   6.143  1.00  0.00    -0.368 N 
HETATM   47  H   UNL     1      14.403  -3.025   5.701  1.00  0.00     0.159 HD
HETATM   48  H   UNL     1      15.897  -3.176   6.513  1.00  0.00     0.159 HD
ENDBRANCH  36  44
ENDBRANCH  34  36
ENDBRANCH   1  32
TORSDOF 20
