REMARK  19 active torsions:
REMARK  status: ('A' for Active; 'I' for Inactive)
REMARK    1  A    between atoms: C_2  and  C_3 
REMARK    2  A    between atoms: C_3  and  C_4 
REMARK    3  A    between atoms: C_4  and  O_5 
REMARK    4  A    between atoms: O_5  and  C_6 
REMARK    5  A    between atoms: C_6  and  C_8 
REMARK    6  A    between atoms: C_8  and  C_9 
REMARK    7  A    between atoms: C_9  and  C_10 
REMARK    8  A    between atoms: C_9  and  C_18 
REMARK    9  A    between atoms: C_9  and  O_25 
REMARK   10  A    between atoms: C_10  and  C_11 
REMARK   11  A    between atoms: C_11  and  O_13 
REMARK   12  A    between atoms: O_13  and  C_14 
REMARK   13  A    between atoms: C_14  and  C_15 
REMARK   14  A    between atoms: C_15  and  C_16 
REMARK   15  A    between atoms: C_18  and  O_20 
REMARK   16  A    between atoms: O_20  and  C_21 
REMARK   17  A    between atoms: C_21  and  C_22 
REMARK   18  A    between atoms: C_22  and  C_23 
REMARK   19  A    between atoms: O_25  and  C_26 
ROOT
HETATM    1  C   UNL     1       8.497   3.027  -3.342  1.00  0.00     0.175 C 
ENDROOT
BRANCH   1   2
HETATM    2  C   UNL     1       6.950   2.953  -3.346  1.00  0.00     0.161 C 
BRANCH   2   3
HETATM    3  C   UNL     1       6.290   4.298  -3.154  1.00  0.00     0.262 C 
HETATM    4  O   UNL     1       5.985   4.772  -2.062  1.00  0.00    -0.265 OA
BRANCH   3   5
HETATM    5  O   UNL     1       6.033   4.912  -4.336  1.00  0.00    -0.321 OA
BRANCH   5   6
HETATM    6  C   UNL     1       4.649   5.256  -4.484  1.00  0.00     0.178 C 
BRANCH   6   7
HETATM    7  C   UNL     1       4.435   6.756  -4.594  1.00  0.00     0.026 C 
BRANCH   7   8
HETATM    8  C   UNL     1       5.186   7.343  -5.790  1.00  0.00    -0.002 C 
HETATM    9  C   UNL     1       4.960   8.842  -5.886  1.00  0.00     0.005 C 
ENDBRANCH   7   8
ENDBRANCH   6   7
ENDBRANCH   5   6
ENDBRANCH   3   5
ENDBRANCH   2   3
ENDBRANCH   1   2
BRANCH   1  10
HETATM   10  C   UNL     1       9.007   3.575  -1.962  1.00  0.00     0.161 C 
BRANCH  10  11
HETATM   11  C   UNL     1       8.588   2.715  -0.786  1.00  0.00     0.262 C 
HETATM   12  O   UNL     1       8.880   1.532  -0.677  1.00  0.00    -0.265 OA
BRANCH  11  13
HETATM   13  O   UNL     1       7.774   3.400   0.064  1.00  0.00    -0.321 OA
BRANCH  13  14
HETATM   14  C   UNL     1       6.846   2.565   0.774  1.00  0.00     0.178 C 
BRANCH  14  15
HETATM   15  C   UNL     1       7.092   2.625   2.273  1.00  0.00     0.026 C 
BRANCH  15  16
HETATM   16  C   UNL     1       6.098   1.751   3.036  1.00  0.00    -0.002 C 
HETATM   17  C   UNL     1       6.354   1.810   4.533  1.00  0.00     0.005 C 
ENDBRANCH  15  16
ENDBRANCH  14  15
ENDBRANCH  13  14
ENDBRANCH  11  13
ENDBRANCH  10  11
ENDBRANCH   1  10
BRANCH   1  18
HETATM   18  C   UNL     1       9.042   1.601  -3.687  1.00  0.00     0.295 C 
HETATM   19  O   UNL     1       8.333   0.649  -3.995  1.00  0.00    -0.262 OA
BRANCH  18  20
HETATM   20  O   UNL     1      10.409   1.540  -3.588  1.00  0.00    -0.319 OA
BRANCH  20  21
HETATM   21  C   UNL     1      10.912   0.239  -3.227  1.00  0.00     0.178 C 
BRANCH  21  22
HETATM   22  C   UNL     1      11.834  -0.312  -4.310  1.00  0.00     0.026 C 
BRANCH  22  23
HETATM   23  C   UNL     1      12.410  -1.670  -3.906  1.00  0.00    -0.002 C 
HETATM   24  C   UNL     1      13.324  -2.238  -4.979  1.00  0.00     0.005 C 
ENDBRANCH  22  23
ENDBRANCH  21  22
ENDBRANCH  20  21
ENDBRANCH  18  20
ENDBRANCH   1  18
BRANCH   1  25
HETATM   25  O   UNL     1       8.975   3.938  -4.396  1.00  0.00    -0.299 OA
BRANCH  25  26
HETATM   26  C   UNL     1       8.687   3.608  -5.685  1.00  0.00     0.256 C 
HETATM   27  O   UNL     1       8.017   2.617  -6.030  1.00  0.00    -0.266 OA
HETATM   28  C   UNL     1       9.251   4.535  -6.702  1.00  0.00     0.126 C 
ENDBRANCH  25  26
ENDBRANCH   1  25
TORSDOF 19
