REMARK  3 active torsions:
REMARK  status: ('A' for Active; 'I' for Inactive)
REMARK       I    between atoms: C_2  and  N_4 
REMARK    1  A    between atoms: C_6  and  O_12 
REMARK    2  A    between atoms: C_8  and  C_9 
REMARK    3  A    between atoms: C_9  and  O_11 
ROOT
HETATM    1  C   UNL     1       1.294  -0.127  -0.307  1.00  0.00     0.117 C 
HETATM    2  C   UNL     1       2.538  -0.253   0.529  1.00  0.00     0.216 C 
HETATM    3  O   UNL     1       2.781   0.531   1.450  1.00  0.00    -0.274 OA
HETATM    4  N   UNL     1       3.362  -1.323   0.310  1.00  0.00    -0.335 N 
HETATM    5  C   UNL     1       3.110  -2.463  -0.561  1.00  0.00     0.158 C 
HETATM    6  C   UNL     1       4.378  -3.326  -0.488  1.00  0.00     0.138 C 
HETATM    7  C   UNL     1       5.398  -2.475   0.268  1.00  0.00     0.069 C 
HETATM    8  C   UNL     1       4.549  -1.552   1.131  1.00  0.00     0.187 C 
ENDROOT
BRANCH   8   9
HETATM    9  C   UNL     1       4.154  -2.177   2.480  1.00  0.00     0.163 C 
HETATM   10  O   UNL     1       4.493  -3.291   2.854  1.00  0.00    -0.648 OA
BRANCH   9  11
HETATM   11  O   UNL     1       3.389  -1.362   3.247  1.00  0.00    -0.775 OA
HETATM   12  H   UNL     1       3.189  -0.496   2.808  1.00  0.00     0.167 HD
ENDBRANCH   9  11
ENDBRANCH   8   9
BRANCH   6  13
HETATM   13  O   UNL     1       4.867  -3.648  -1.786  1.00  0.00    -0.394 OA
HETATM   14  H   UNL     1       5.109  -2.824  -2.241  1.00  0.00     0.210 HD
ENDBRANCH   6  13
TORSDOF 3
