REMARK  5 active torsions:
REMARK  status: ('A' for Active; 'I' for Inactive)
REMARK       I    between atoms: C_2  and  N_4 
REMARK    1  A    between atoms: N_4  and  CA_5 
REMARK    2  A    between atoms: CA_5  and  CB_6 
REMARK    3  A    between atoms: CA_5  and  C_8 
REMARK    4  A    between atoms: CB_6  and  SG_7 
REMARK    5  A    between atoms: C_8  and  OXT_10 
ROOT
ATOM      1  CA  CYS A   1       4.761  -0.369   1.130  1.00  0.00     0.191 C 
ENDROOT
BRANCH   1   2
ATOM      2  N   CYS A   1       3.300  -0.304   1.104  1.00  0.00    -0.346 N 
HETATM    3  C   UNK A   0       2.580  -0.405  -0.058  1.00  0.00     0.214 C 
HETATM    4  C   UNK A   0       1.091  -0.327   0.129  1.00  0.00     0.117 C 
HETATM    5  O   UNK A   0       3.106  -0.565  -1.155  1.00  0.00    -0.274 OA
ATOM      6  H   CYS A   1       2.819  -0.266   2.000  1.00  0.00     0.163 HD
ENDBRANCH   1   2
BRANCH   1   7
ATOM      7  CB  CYS A   1       5.432   1.009   1.088  1.00  0.00     0.106 C 
BRANCH   7   8
ATOM      8  SG  CYS A   1       5.132   1.973  -0.431  1.00  0.00    -0.180 SA
ATOM      9  HG  CYS A   1       4.578   0.984  -1.159  1.00  0.00     0.101 HD
ENDBRANCH   7   8
ENDBRANCH   1   7
BRANCH   1  10
ATOM     10  C   CYS A   1       5.160  -1.040   2.445  1.00  0.00     0.164 C 
ATOM     11  O   CYS A   1       4.505  -0.946   3.476  1.00  0.00    -0.648 OA
BRANCH  10  12
ATOM     12  OXT CYS A   1       6.323  -1.726   2.393  1.00  0.00    -0.775 OA
ATOM     13  HXT CYS A   1       6.744  -1.773   1.514  1.00  0.00     0.167 HD
ENDBRANCH  10  12
ENDBRANCH   1  10
TORSDOF 5
