REMARK  6 active torsions:
REMARK  status: ('A' for Active; 'I' for Inactive)
REMARK       I    between atoms: C_2  and  N_4 
REMARK    1  A    between atoms: N_4  and  CA_5 
REMARK    2  A    between atoms: CA_5  and  CB_6 
REMARK    3  A    between atoms: CA_5  and  C_11 
REMARK    4  A    between atoms: CB_6  and  CG_7 
REMARK    5  A    between atoms: CG_7  and  CD_8 
REMARK       I    between atoms: CD_8  and  NE2_10 
REMARK    6  A    between atoms: C_11  and  OXT_13 
ROOT
ATOM      1  CA  GLN A   1       4.727   0.829   0.869  1.00  0.00     0.182 C 
ENDROOT
BRANCH   1   2
ATOM      2  N   GLN A   1       3.268   0.811   0.823  1.00  0.00    -0.347 N 
HETATM    3  C   UNK A   0       2.555  -0.239   0.307  1.00  0.00     0.214 C 
HETATM    4  C   UNK A   0       1.065  -0.041   0.351  1.00  0.00     0.117 C 
HETATM    5  O   UNK A   0       3.080  -1.261  -0.120  1.00  0.00    -0.274 OA
ATOM      6  H   GLN A   1       2.781   1.602   1.241  1.00  0.00     0.163 HD
ENDBRANCH   1   2
BRANCH   1   7
ATOM      7  CB  GLN A   1       5.304   1.427  -0.420  1.00  0.00     0.045 C 
BRANCH   7   8
ATOM      8  CG  GLN A   1       6.833   1.434  -0.435  1.00  0.00     0.105 C 
BRANCH   8   9
ATOM      9  CD  GLN A   1       7.413   1.997  -1.712  1.00  0.00     0.215 C 
ATOM     10  OE1 GLN A   1       6.757   2.414  -2.656  1.00  0.00    -0.274 OA
ATOM     11  NE2 GLN A   1       8.779   2.014  -1.731  1.00  0.00    -0.370 N 
ATOM     12 1HE2 GLN A   1       9.352   1.728  -0.950  1.00  0.00     0.159 HD
ATOM     13 2HE2 GLN A   1       9.234   2.408  -2.544  1.00  0.00     0.159 HD
ENDBRANCH   8   9
ENDBRANCH   7   8
ENDBRANCH   1   7
BRANCH   1  14
ATOM     14  C   GLN A   1       5.120   1.657   2.099  1.00  0.00     0.163 C 
ATOM     15  O   GLN A   1       4.469   2.602   2.521  1.00  0.00    -0.648 OA
BRANCH  14  16
ATOM     16  OXT GLN A   1       6.282   1.269   2.678  1.00  0.00    -0.775 OA
ATOM     17  HXT GLN A   1       6.688   0.473   2.284  1.00  0.00     0.167 HD
ENDBRANCH  14  16
ENDBRANCH   1  14
TORSDOF 6
