REMARK  6 active torsions:
REMARK  status: ('A' for Active; 'I' for Inactive)
REMARK       I    between atoms: C_2  and  N_4 
REMARK    1  A    between atoms: N_4  and  CA_5 
REMARK    2  A    between atoms: CA_5  and  CB_6 
REMARK    3  A    between atoms: CA_5  and  C_10 
REMARK    4  A    between atoms: CB_6  and  CG_7 
REMARK    5  A    between atoms: CG_7  and  SD_8 
REMARK    6  A    between atoms: C_10  and  OXT_12 
ROOT
ATOM      1  CA  MET A   1       4.643   1.085  -0.233  1.00  0.00     0.183 C 
ENDROOT
BRANCH   1   2
ATOM      2  N   MET A   1       3.181   1.037  -0.251  1.00  0.00    -0.347 N 
HETATM    3  C   UNK A   0       2.477   0.033   0.369  1.00  0.00     0.214 C 
HETATM    4  C   UNK A   0       0.985   0.172   0.239  1.00  0.00     0.117 C 
HETATM    5  O   UNK A   0       3.010  -0.881   0.985  1.00  0.00    -0.274 OA
ATOM      6  H   MET A   1       2.693   1.810  -0.694  1.00  0.00     0.163 HD
ENDBRANCH   1   2
BRANCH   1   7
ATOM      7  CB  MET A   1       5.219   0.283  -1.407  1.00  0.00     0.046 C 
BRANCH   7   8
ATOM      8  CG  MET A   1       6.746   0.208  -1.450  1.00  0.00     0.076 C 
BRANCH   8   9
ATOM      9  SD  MET A   1       7.495  -0.458   0.073  1.00  0.00    -0.173 SA
ATOM     10  CE  MET A   1       6.791  -2.133   0.033  1.00  0.00     0.089 C 
ENDBRANCH   8   9
ENDBRANCH   7   8
ENDBRANCH   1   7
BRANCH   1  11
ATOM     11  C   MET A   1       5.056   2.555  -0.331  1.00  0.00     0.163 C 
ATOM     12  O   MET A   1       4.403   3.403  -0.927  1.00  0.00    -0.648 OA
BRANCH  11  13
ATOM     13  OXT MET A   1       6.232   2.840   0.275  1.00  0.00    -0.775 OA
ATOM     14  HXT MET A   1       6.664   2.073   0.707  1.00  0.00     0.167 HD
ENDBRANCH  11  13
ENDBRANCH   1  11
TORSDOF 6
