REMARK  3 active torsions:
REMARK  status: ('A' for Active; 'I' for Inactive)
REMARK    1  A    between atoms: CA_2  and  C_3 
REMARK    2  A    between atoms: CA_2  and  N_6 
REMARK    3  A    between atoms: C_3  and  OXT_5 
ROOT
ATOM      1  CB  ALA A   1       0.916   0.025   0.036  1.00  0.00     0.054 C 
ATOM      2  CA  ALA A   1       2.439   0.021   0.016  1.00  0.00     0.310 C 
ENDROOT
BRANCH   2   3
ATOM      3  C   ALA A   1       2.982  -0.017  -1.425  1.00  0.00     0.173 C 
ATOM      4  O   ALA A   1       3.689   0.856  -1.914  1.00  0.00    -0.648 OA
BRANCH   3   5
ATOM      5  OXT ALA A   1       2.645  -1.131  -2.112  1.00  0.00    -0.775 OA
ATOM      6  HXT ALA A   1       2.110  -1.772  -1.607  1.00  0.00     0.167 HD
ENDBRANCH   3   5
ENDBRANCH   2   3
BRANCH   2   7
ATOM      7  N   ALA A   1       2.925   1.229   0.714  1.00  0.00     0.092 N 
ATOM      8  H1  ALA A   1       2.633   2.047   0.172  1.00  0.00     0.313 HD
ATOM      9  H2  ALA A   1       3.946   1.251   0.631  1.00  0.00     0.313 HD
ENDBRANCH   2   7
TORSDOF 3
