REMARK  1 active torsions:
REMARK  status: ('A' for Active; 'I' for Inactive)
REMARK    1  A    between atoms: C_2  and  O_3 
ROOT
HETATM    1  C   UNL     1       0.978   0.060  -0.075  1.00  0.00     0.033 C 
HETATM    2  C   UNL     1       2.492   0.067  -0.076  1.00  0.00     0.159 C 
ENDROOT
BRANCH   2   3
HETATM    3  O   UNL     1       2.974   1.233   0.576  1.00  0.00    -0.401 OA
HETATM    4  H   UNL     1       2.634   2.003   0.089  1.00  0.00     0.209 HD
ENDBRANCH   2   3
TORSDOF 1
