REMARK  1 active torsions:
REMARK  status: ('A' for Active; 'I' for Inactive)
REMARK    1  A    between atoms: C_1  and  N_8 
REMARK       I    between atoms: N_8  and  C_9 
REMARK       I    between atoms: C_9  and  N_11 
ROOT
HETATM    1  C   UNL     1      -0.626  -1.420   0.101  1.00  0.00     0.284 A 
HETATM    2  C   UNL     1      -1.138   0.034   0.123  1.00  0.00     0.268 A 
HETATM    3  O   UNL     1      -2.293   0.386   0.318  1.00  0.00    -0.269 OA
HETATM    4  N   UNL     1      -0.074   0.864  -0.045  1.00  0.00    -0.276 N 
HETATM    5  C   UNL     1       1.078   0.155  -0.052  1.00  0.00     0.324 A 
HETATM    6  O   UNL     1       2.202   0.623  -0.088  1.00  0.00    -0.247 OA
HETATM    7  N   UNL     1       0.776  -1.179   0.017  1.00  0.00    -0.313 N 
HETATM    8  H   UNL     1      -0.112   1.868  -0.013  1.00  0.00     0.173 HD
HETATM    9  H   UNL     1       1.474  -1.909   0.037  1.00  0.00     0.166 HD
ENDROOT
BRANCH   1  10
HETATM   10  N   UNL     1      -1.001  -2.119   1.296  1.00  0.00    -0.314 N 
HETATM   11  C   UNL     1      -0.670  -3.431   1.425  1.00  0.00     0.315 C 
HETATM   12  O   UNL     1       0.035  -4.060   0.652  1.00  0.00    -0.248 OA
HETATM   13  N   UNL     1      -1.196  -3.990   2.541  1.00  0.00    -0.352 N 
HETATM   14  H   UNL     1      -1.266  -3.399   3.357  1.00  0.00     0.160 HD
HETATM   15  H   UNL     1      -0.840  -4.920   2.727  1.00  0.00     0.160 HD
HETATM   16  H   UNL     1      -1.908  -1.881   1.672  1.00  0.00     0.166 HD
ENDBRANCH   1  10
TORSDOF 1
