REMARK  8 active torsions:
REMARK  status: ('A' for Active; 'I' for Inactive)
REMARK    1  A    between atoms: C_3  and  O_8 
REMARK    2  A    between atoms: C_6  and  O_7 
REMARK    3  A    between atoms: O_8  and  C_9 
REMARK    4  A    between atoms: C_10  and  O_19 
REMARK    5  A    between atoms: C_11  and  O_18 
REMARK    6  A    between atoms: C_12  and  O_17 
REMARK    7  A    between atoms: C_13  and  C_15 
REMARK    8  A    between atoms: C_15  and  O_16 
ROOT
HETATM    1  C   UNL     1      -3.652  -1.417  -0.320  1.00  0.00     0.298 C 
HETATM    2  C   UNL     1      -3.882  -2.272   0.939  1.00  0.00     0.205 C 
HETATM    3  C   UNL     1      -3.849  -3.743   0.459  1.00  0.00     0.183 C 
HETATM    4  C   UNL     1      -4.860  -4.025  -0.681  1.00  0.00     0.180 C 
HETATM    5  C   UNL     1      -4.737  -2.948  -1.771  1.00  0.00     0.179 C 
HETATM    6  O   UNL     1      -4.795  -1.638  -1.169  1.00  0.00    -0.348 OA
ENDROOT
BRANCH   1   7
HETATM    7  O   UNL     1      -3.497  -0.025  -0.046  1.00  0.00    -0.318 OA
BRANCH   7   8
HETATM    8  C   UNL     1      -3.205   0.738  -1.160  1.00  0.00     0.072 A 
HETATM    9  C   UNL     1      -3.301   2.120  -0.995  1.00  0.00     0.039 A 
HETATM   10  C   UNL     1      -3.117   2.975  -2.084  1.00  0.00     0.039 A 
HETATM   11  C   UNL     1      -2.815   2.448  -3.341  1.00  0.00     0.065 A 
HETATM   12  C   UNL     1      -2.660   1.083  -3.512  1.00  0.00     0.039 A 
HETATM   13  C   UNL     1      -2.849   0.233  -2.420  1.00  0.00     0.039 A 
BRANCH  11  14
HETATM   14  O   UNL     1      -2.684   3.297  -4.400  1.00  0.00    -0.361 OA
HETATM   15  H   UNL     1      -2.576   2.776  -5.210  1.00  0.00     0.217 HD
ENDBRANCH  11  14
ENDBRANCH   7   8
ENDBRANCH   1   7
BRANCH   2  16
HETATM   16  O   UNL     1      -5.158  -2.014   1.557  1.00  0.00    -0.388 OA
HETATM   17  H   UNL     1      -5.625  -1.375   0.987  1.00  0.00     0.210 HD
ENDBRANCH   2  16
BRANCH   3  18
HETATM   18  O   UNL     1      -4.064  -4.636   1.548  1.00  0.00    -0.390 OA
HETATM   19  H   UNL     1      -4.983  -4.473   1.838  1.00  0.00     0.210 HD
ENDBRANCH   3  18
BRANCH   5  20
HETATM   20  C   UNL     1      -5.842  -2.999  -2.826  1.00  0.00     0.198 C 
BRANCH  20  21
HETATM   21  O   UNL     1      -5.654  -1.924  -3.752  1.00  0.00    -0.398 OA
HETATM   22  H   UNL     1      -5.681  -1.106  -3.221  1.00  0.00     0.209 HD
ENDBRANCH  20  21
ENDBRANCH   5  20
BRANCH   4  23
HETATM   23  O   UNL     1      -6.199  -4.085  -0.167  1.00  0.00    -0.390 OA
HETATM   24  H   UNL     1      -6.510  -3.174  -0.014  1.00  0.00     0.210 HD
ENDBRANCH   4  23
TORSDOF 8
