REMARK  4 active torsions:
REMARK  status: ('A' for Active; 'I' for Inactive)
REMARK    1  A    between atoms: C_2  and  N_3 
REMARK    2  A    between atoms: C_2  and  P_4 
REMARK    3  A    between atoms: P_4  and  O_5 
REMARK    4  A    between atoms: P_4  and  O_7 
ROOT
HETATM    1  C   UNL     1       1.031  -0.006  -0.027  1.00  0.00     0.052 C 
HETATM    2  C   UNL     1       2.535  -0.194  -0.120  1.00  0.00     0.295 C 
ENDROOT
BRANCH   2   3
HETATM    3  N   UNL     1       3.273   0.586   0.886  1.00  0.00     0.091 N 
HETATM    4  H   UNL     1       2.879   0.375   1.806  1.00  0.00     0.313 HD
HETATM    5  H   UNL     1       3.060   1.576   0.739  1.00  0.00     0.313 HD
ENDBRANCH   2   3
BRANCH   2   6
HETATM    6  P   UNL     1       3.084  -1.925   0.310  1.00  0.00     0.197 P 
BRANCH   6   7
HETATM    7  O   UNL     1       2.673  -2.603  -0.916  1.00  0.00    -0.348 OA
ATOM      8  HO  UNL     1       2.952  -3.484  -0.697  1.00  0.00     0.217 HD
ENDBRANCH   6   7
BRANCH   6   9
HETATM    9  O   UNL     1       4.656  -1.783  -0.058  1.00  0.00    -0.348 OA
HETATM   10  H   UNL     1       4.895  -0.849   0.129  1.00  0.00     0.217 HD
ENDBRANCH   6   9
ENDBRANCH   2   6
TORSDOF 4
