REMARK  1 active torsions:
REMARK  status: ('A' for Active; 'I' for Inactive)
REMARK    1  A    between atoms: C_1  and  O_3 
ROOT
HETATM    1  H   UNL     1       2.381   0.150   0.398  1.00  0.00     0.271 HD
HETATM    2  H   UNL     1       1.835  -0.958   0.714  1.00  0.00     0.271 HD
HETATM    3  H   UNL     1       1.556   0.804   1.155  1.00  0.00     0.271 HD
HETATM    4  H   UNL     1       0.997  -0.337   1.602  1.00  0.00     0.271 HD
HETATM    5  N   UNL     2       1.970  -0.134   1.334  1.00  0.00    -0.084 N 
ENDROOT
TORSDOF 1
