REMARK  15 active torsions:
REMARK  status: ('A' for Active; 'I' for Inactive)
REMARK    1  A    between atoms: C_11  and  O_12 
REMARK    2  A    between atoms: O_12  and  C_13 
REMARK    3  A    between atoms: C_14  and  O_24 
REMARK    4  A    between atoms: C_15  and  O_23 
REMARK    5  A    between atoms: C_16  and  O_22 
REMARK    6  A    between atoms: C_17  and  C_19 
REMARK    7  A    between atoms: C_19  and  O_21 
REMARK    8  A    between atoms: O_24  and  C_25 
REMARK    9  A    between atoms: C_26  and  O_36 
REMARK   10  A    between atoms: C_27  and  O_35 
REMARK   11  A    between atoms: C_28  and  O_34 
REMARK   12  A    between atoms: C_29  and  C_31 
REMARK   13  A    between atoms: C_31  and  O_33 
REMARK   14  A    between atoms: C_48  and  C_52 
REMARK   15  A    between atoms: C_52  and  O_54 
ROOT
HETATM    1  H   UNL     1       1.927   0.070  -0.051  1.00  0.00     0.309 HD
HETATM    2  H   UNL     1       0.604  -0.504  -0.799  1.00  0.00     0.309 HD
HETATM    3  H   UNL     1       0.539   0.905   0.005  1.00  0.00     0.309 HD
HETATM    4  N   UNL     2       0.917  -0.041   0.053  1.00  0.00     0.072 N 
ENDROOT
TORSDOF 15
