REMARK  0 active torsions:
REMARK  status: ('A' for Active; 'I' for Inactive)
ROOT
HETATM    1  C   UNL     1       1.337   1.318  -0.469  1.00  0.00     0.347 C 
HETATM    2  O   UNL     1       0.797   1.225   0.624  1.00  0.00    -0.616 OA
HETATM    3  O   UNL     1       0.732   1.574  -1.507  1.00  0.00    -0.616 OA
HETATM    4  O   UNL     1       2.333   0.656  -0.759  1.00  0.00    -0.616 OA
ENDROOT
TORSDOF 0
