REMARK  7 active torsions:
REMARK  status: ('A' for Active; 'I' for Inactive)
REMARK    1  A    between atoms: CG_1  and  CB_2 
REMARK    2  A    between atoms: CG_1  and  CD_8 
REMARK    3  A    between atoms: CB_2  and  CA_3 
REMARK    4  A    between atoms: CA_3  and  C_4 
REMARK    5  A    between atoms: CA_3  and  N_7 
REMARK    6  A    between atoms: C_4  and  OXT_6 
REMARK    7  A    between atoms: CD_8  and  NE_9 
REMARK       I    between atoms: NE_9  and  CZ_11 
REMARK       I    between atoms: CZ_11  and  NH2_13 
ROOT
ATOM      1  CG  ARG A   1       1.166   0.092   0.070  1.00  0.00     0.022 C 
ENDROOT
BRANCH   1   2
ATOM      2  CB  ARG A   1       0.557  -0.508  -1.200  1.00  0.00     0.048 C 
BRANCH   2   3
ATOM      3  CA  ARG A   1      -0.976  -0.452  -1.219  1.00  0.00     0.314 C 
BRANCH   3   4
ATOM      4  C   ARG A   1      -1.499   0.997  -1.197  1.00  0.00     0.173 C 
ATOM      5  O   ARG A   1      -1.714   1.661  -2.203  1.00  0.00    -0.648 OA
BRANCH   4   6
ATOM      6  OXT ARG A   1      -1.732   1.478   0.045  1.00  0.00    -0.775 OA
ATOM      7  HXT ARG A   1      -1.508   0.858   0.765  1.00  0.00     0.167 HD
ENDBRANCH   4   6
ENDBRANCH   3   4
BRANCH   3   8
ATOM      8  N   ARG A   1      -1.455  -1.123  -2.451  1.00  0.00     0.093 N 
ATOM      9  H1  ARG A   1      -1.119  -0.573  -3.250  1.00  0.00     0.314 HD
ATOM     10  H2  ARG A   1      -2.470  -1.014  -2.505  1.00  0.00     0.314 HD
ENDBRANCH   3   8
ENDBRANCH   2   3
ENDBRANCH   1   2
BRANCH   1  11
ATOM     11  CD  ARG A   1       2.688  -0.043   0.083  1.00  0.00     0.122 C 
BRANCH  11  12
ATOM     12  NE  ARG A   1       3.179   0.604   1.296  1.00  0.00    -0.367 N 
ATOM     13  CZ  ARG A   1       4.444   0.640   1.497  1.00  0.00     0.143 C 
ATOM     14  NH1 ARG A   1       5.440   0.125   0.743  1.00  0.00    -0.376 N 
ATOM     15  NH2 ARG A   1       4.920   1.307   2.568  1.00  0.00    -0.274 NA
ATOM     16 HH11 ARG A   1       5.165  -0.538   0.033  1.00  0.00     0.158 HD
ATOM     17 HH12 ARG A   1       6.289  -0.138   1.223  1.00  0.00     0.158 HD
ATOM     18 HH21 ARG A   1       4.182   1.567   3.212  1.00  0.00     0.127 HD
ATOM     19 HH22 ARG A   1       5.744   0.950   3.023  1.00  0.00     0.127 HD
ATOM     20  HE  ARG A   1       2.531   1.017   1.967  1.00  0.00     0.162 HD
ENDBRANCH  11  12
ENDBRANCH   1  11
TORSDOF 7
