REMARK  22 active torsions:
REMARK  status: ('A' for Active; 'I' for Inactive)
REMARK    1  A    between atoms: C_2  and  C_4 
REMARK    2  A    between atoms: C_4  and  C_5 
REMARK    3  A    between atoms: C_5  and  C_6 
REMARK    4  A    between atoms: C_6  and  C_7 
REMARK    5  A    between atoms: C_7  and  C_8 
REMARK    6  A    between atoms: C_8  and  C_9 
REMARK    7  A    between atoms: C_9  and  C_10 
REMARK    8  A    between atoms: C_10  and  C_11 
REMARK    9  A    between atoms: C_11  and  C_12 
REMARK   10  A    between atoms: C_12  and  C_13 
REMARK   11  A    between atoms: C_13  and  C_14 
REMARK   12  A    between atoms: C_14  and  C_15 
REMARK   13  A    between atoms: C_15  and  C_16 
REMARK   14  A    between atoms: C_16  and  C_17 
REMARK   15  A    between atoms: C_17  and  C_18 
REMARK   16  A    between atoms: C_18  and  O_20 
REMARK   17  A    between atoms: O_20  and  C_21 
REMARK   18  A    between atoms: C_21  and  C_22 
REMARK   19  A    between atoms: C_22  and  C_23 
REMARK   20  A    between atoms: C_22  and  O_31 
REMARK   21  A    between atoms: C_24  and  O_30 
REMARK   22  A    between atoms: C_25  and  O_29 
ROOT
HETATM    1  C   UNL     1      16.675  10.044  -0.379  1.00  0.00     0.111 C 
ENDROOT
BRANCH   1   2
HETATM    2  C   UNL     1      15.155   9.928  -0.361  1.00  0.00     0.010 C 
BRANCH   2   3
HETATM    3  C   UNL     1      14.668   8.495  -0.302  1.00  0.00     0.000 C 
BRANCH   3   4
HETATM    4  C   UNL     1      13.144   8.495  -0.296  1.00  0.00     0.000 C 
BRANCH   4   5
HETATM    5  C   UNL     1      12.617   7.075  -0.246  1.00  0.00     0.000 C 
BRANCH   5   6
HETATM    6  C   UNL     1      11.099   7.078  -0.246  1.00  0.00     0.000 C 
BRANCH   6   7
HETATM    7  C   UNL     1      10.583   5.651  -0.196  1.00  0.00     0.000 C 
BRANCH   7   8
HETATM    8  C   UNL     1       9.066   5.647  -0.197  1.00  0.00     0.000 C 
BRANCH   8   9
HETATM    9  C   UNL     1       8.553   4.221  -0.144  1.00  0.00     0.000 C 
BRANCH   9  10
HETATM   10  C   UNL     1       7.035   4.223  -0.146  1.00  0.00     0.000 C 
BRANCH  10  11
HETATM   11  C   UNL     1       6.514   2.801  -0.087  1.00  0.00     0.000 C 
BRANCH  11  12
HETATM   12  C   UNL     1       4.994   2.801  -0.086  1.00  0.00     0.000 C 
BRANCH  12  13
HETATM   13  C   UNL     1       4.493   1.369  -0.042  1.00  0.00     0.000 C 
BRANCH  13  14
HETATM   14  C   UNL     1       2.970   1.319  -0.056  1.00  0.00     0.004 C 
BRANCH  14  15
HETATM   15  C   UNL     1       2.439  -0.122  -0.004  1.00  0.00    -0.023 C 
HETATM   16  C   UNL     1       0.912  -0.104   0.007  1.00  0.00     0.009 C 
HETATM   17  C   UNL     1       2.941  -0.963  -1.179  1.00  0.00     0.009 C 
ENDBRANCH  14  15
ENDBRANCH  13  14
ENDBRANCH  12  13
ENDBRANCH  11  12
ENDBRANCH  10  11
ENDBRANCH   9  10
ENDBRANCH   8   9
ENDBRANCH   7   8
ENDBRANCH   6   7
ENDBRANCH   5   6
ENDBRANCH   4   5
ENDBRANCH   3   4
ENDBRANCH   2   3
ENDBRANCH   1   2
BRANCH   1  18
HETATM   18  C   UNL     1      17.121  11.489  -0.364  1.00  0.00     0.258 C 
HETATM   19  O   UNL     1      18.285  11.848  -0.254  1.00  0.00    -0.265 OA
BRANCH  18  20
HETATM   20  O   UNL     1      16.061  12.345  -0.361  1.00  0.00    -0.319 OA
BRANCH  20  21
HETATM   21  C   UNL     1      16.072  13.298   0.705  1.00  0.00     0.213 C 
BRANCH  21  22
HETATM   22  C   UNL     1      16.056  14.725   0.167  1.00  0.00     0.178 C 
BRANCH  22  23
HETATM   23  C   UNL     1      15.954  15.734   1.326  1.00  0.00     0.222 C 
HETATM   24  C   UNL     1      16.021  17.149   0.872  1.00  0.00     0.114 C 
HETATM   25  C   UNL     1      17.156  17.716   1.269  1.00  0.00     0.173 C 
HETATM   26  C   UNL     1      17.883  16.714   2.039  1.00  0.00     0.320 C 
HETATM   27  O   UNL     1      18.995  16.851   2.501  1.00  0.00    -0.257 OA
HETATM   28  O   UNL     1      17.109  15.598   2.166  1.00  0.00    -0.301 OA
BRANCH  24  29
HETATM   29  O   UNL     1      15.069  17.740   0.103  1.00  0.00    -0.359 OA
HETATM   30  H   UNL     1      14.529  17.025  -0.284  1.00  0.00     0.217 HD
ENDBRANCH  24  29
BRANCH  25  31
HETATM   31  O   UNL     1      17.613  18.962   0.990  1.00  0.00    -0.353 OA
HETATM   32  H   UNL     1      16.980  19.308   0.333  1.00  0.00     0.218 HD
ENDBRANCH  25  31
ENDBRANCH  22  23
BRANCH  22  33
HETATM   33  O   UNL     1      17.244  14.985  -0.594  1.00  0.00    -0.390 OA
HETATM   34  H   UNL     1      17.973  14.682  -0.012  1.00  0.00     0.210 HD
ENDBRANCH  22  33
ENDBRANCH  21  22
ENDBRANCH  20  21
ENDBRANCH  18  20
ENDBRANCH   1  18
TORSDOF 22
