REMARK  12 active torsions:
REMARK  status: ('A' for Active; 'I' for Inactive)
REMARK    1  A    between atoms: C_1  and  C_2 
REMARK    2  A    between atoms: C_1  and  O_23 
REMARK    3  A    between atoms: C_3  and  O_22 
REMARK    4  A    between atoms: C_4  and  O_21 
REMARK    5  A    between atoms: C_5  and  O_20 
REMARK    6  A    between atoms: C_6  and  O_8 
REMARK    7  A    between atoms: O_8  and  C_9 
REMARK    8  A    between atoms: C_10  and  O_19 
REMARK    9  A    between atoms: C_11  and  C_15 
REMARK   10  A    between atoms: C_15  and  C_16 
REMARK   11  A    between atoms: C_15  and  O_18 
REMARK   12  A    between atoms: C_16  and  O_17 
ROOT
HETATM    1  C   UNL     1       0.521  -1.076   0.577  1.00  0.00     0.179 C 
HETATM    2  C   UNL     1       0.886  -2.409  -0.103  1.00  0.00     0.180 C 
HETATM    3  C   UNL     1       0.418  -2.403  -1.571  1.00  0.00     0.183 C 
HETATM    4  C   UNL     1      -1.058  -1.999  -1.705  1.00  0.00     0.205 C 
HETATM    5  C   UNL     1      -1.318  -0.688  -0.929  1.00  0.00     0.298 C 
HETATM    6  O   UNL     1      -0.898  -0.848   0.430  1.00  0.00    -0.348 OA
ENDROOT
BRANCH   5   7
HETATM    7  O   UNL     1      -2.730  -0.429  -0.981  1.00  0.00    -0.309 OA
BRANCH   7   8
HETATM    8  C   UNL     1      -3.082   0.888  -0.862  1.00  0.00     0.179 A 
HETATM    9  C   UNL     1      -4.182   1.429  -1.375  1.00  0.00     0.115 A 
HETATM   10  C   UNL     1      -4.282   2.877  -1.100  1.00  0.00     0.222 A 
HETATM   11  O   UNL     1      -3.124   3.133  -0.285  1.00  0.00    -0.301 OA
HETATM   12  C   UNL     1      -2.374   1.996  -0.172  1.00  0.00     0.320 A 
HETATM   13  O   UNL     1      -1.303   1.934   0.397  1.00  0.00    -0.257 OA
BRANCH   9  14
HETATM   14  O   UNL     1      -5.156   0.787  -2.091  1.00  0.00    -0.359 OA
HETATM   15  H   UNL     1      -4.939  -0.166  -2.112  1.00  0.00     0.217 HD
ENDBRANCH   9  14
BRANCH  10  16
HETATM   16  C   UNL     1      -5.560   3.322  -0.369  1.00  0.00     0.177 C 
BRANCH  16  17
HETATM   17  C   UNL     1      -5.764   2.644   0.991  1.00  0.00     0.198 C 
BRANCH  17  18
HETATM   18  O   UNL     1      -6.988   3.089   1.575  1.00  0.00    -0.398 OA
HETATM   19  H   UNL     1      -7.020   4.055   1.427  1.00  0.00     0.209 HD
ENDBRANCH  17  18
ENDBRANCH  16  17
BRANCH  16  20
HETATM   20  O   UNL     1      -5.534   4.748  -0.150  1.00  0.00    -0.390 OA
HETATM   21  H   UNL     1      -4.636   4.979   0.155  1.00  0.00     0.210 HD
ENDBRANCH  16  20
ENDBRANCH  10  16
ENDBRANCH   7   8
ENDBRANCH   5   7
BRANCH   4  22
HETATM   22  O   UNL     1      -1.891  -3.074  -1.218  1.00  0.00    -0.388 OA
HETATM   23  H   UNL     1      -2.321  -2.767  -0.400  1.00  0.00     0.210 HD
ENDBRANCH   4  22
BRANCH   3  24
HETATM   24  O   UNL     1       0.617  -3.690  -2.161  1.00  0.00    -0.390 OA
HETATM   25  H   UNL     1       0.027  -4.287  -1.654  1.00  0.00     0.210 HD
ENDBRANCH   3  24
BRANCH   1  26
HETATM   26  C   UNL     1       1.379   0.111   0.103  1.00  0.00     0.198 C 
BRANCH  26  27
HETATM   27  O   UNL     1       2.759  -0.120   0.341  1.00  0.00    -0.398 OA
HETATM   28  H   UNL     1       2.940   0.116   1.268  1.00  0.00     0.209 HD
ENDBRANCH  26  27
ENDBRANCH   1  26
BRANCH   2  29
HETATM   29  O   UNL     1       0.253  -3.491   0.609  1.00  0.00    -0.390 OA
HETATM   30  H   UNL     1      -0.580  -3.155   0.985  1.00  0.00     0.210 HD
ENDBRANCH   2  29
TORSDOF 12
