REMARK  22 active torsions:
REMARK  status: ('A' for Active; 'I' for Inactive)
REMARK    1  A    between atoms: C_5  and  C_33 
REMARK    2  A    between atoms: C_19  and  O_26 
REMARK    3  A    between atoms: C_20  and  O_25 
REMARK    4  A    between atoms: C_21  and  C_23 
REMARK    5  A    between atoms: C_23  and  O_24 
REMARK    6  A    between atoms: C_33  and  O_35 
REMARK    7  A    between atoms: O_35  and  C_36 
REMARK    8  A    between atoms: C_37  and  O_67 
REMARK    9  A    between atoms: C_38  and  O_66 
REMARK   10  A    between atoms: C_39  and  O_65 
REMARK   11  A    between atoms: C_40  and  C_42 
REMARK   12  A    between atoms: C_42  and  O_43 
REMARK   13  A    between atoms: O_43  and  C_44 
REMARK   14  A    between atoms: C_45  and  O_64 
REMARK   15  A    between atoms: C_46  and  O_63 
REMARK   16  A    between atoms: C_47  and  O_52 
REMARK   17  A    between atoms: C_48  and  C_50 
REMARK   18  A    between atoms: C_50  and  O_51 
REMARK   19  A    between atoms: O_52  and  C_53 
REMARK   20  A    between atoms: C_54  and  O_62 
REMARK   21  A    between atoms: C_55  and  O_61 
REMARK   22  A    between atoms: C_56  and  O_60 
ROOT
HETATM    1  C   UNL     1       2.183   5.630   2.028  1.00  0.00     0.301 C 
HETATM    2  C   UNL     1       1.097   5.015   2.904  1.00  0.00     0.205 C 
HETATM    3  C   UNL     1      -0.093   4.641   2.034  1.00  0.00     0.183 C 
HETATM    4  C   UNL     1      -0.673   5.817   1.214  1.00  0.00     0.180 C 
HETATM    5  C   UNL     1       0.447   6.613   0.505  1.00  0.00     0.180 C 
HETATM    6  O   UNL     1       1.619   6.820   1.350  1.00  0.00    -0.348 OA
ENDROOT
BRANCH   1   7
HETATM    7  O   UNL     1       2.728   4.619   1.128  1.00  0.00    -0.286 OA
BRANCH   7   8
HETATM    8  C   UNL     1       3.440   3.463   1.497  1.00  0.00     0.270 C 
HETATM    9  O   UNL     1       3.614   3.123   2.639  1.00  0.00    -0.264 OA
BRANCH   8  10
HETATM   10  C   UNL     1       3.902   2.735   0.165  1.00  0.00     0.056 C 
HETATM   11  C   UNL     1       2.573   2.651  -0.625  1.00  0.00     0.021 C 
HETATM   12  C   UNL     1       1.700   1.624   0.089  1.00  0.00     0.006 C 
HETATM   13  C   UNL     1       2.212   0.227  -0.253  1.00  0.00    -0.014 C 
HETATM   14  C   UNL     1       1.122  -0.770   0.163  1.00  0.00     0.010 C 
HETATM   15  C   UNL     1       3.688   0.008   0.282  1.00  0.00    -0.005 C 
HETATM   16  C   UNL     1       4.629   1.261  -0.095  1.00  0.00     0.037 C 
HETATM   17  C   UNL     1       3.685  -0.433   1.749  1.00  0.00     0.011 C 
HETATM   18  C   UNL     1       6.255   1.179  -0.102  1.00  0.00    -0.069 C 
HETATM   19  C   UNL     1       6.986   2.509   0.180  1.00  0.00    -0.013 C 
HETATM   20  C   UNL     1       7.136   0.129  -0.325  1.00  0.00    -0.022 C 
HETATM   21  C   UNL     1       6.129   3.707   0.535  1.00  0.00     0.016 C 
HETATM   22  C   UNL     1       8.061   2.074   1.364  1.00  0.00    -0.028 C 
HETATM   23  C   UNL     1       7.554   2.963  -1.269  1.00  0.00     0.021 C 
HETATM   24  C   UNL     1       4.879   3.768  -0.376  1.00  0.00     0.022 C 
HETATM   25  C   UNL     1       9.249   1.616   0.458  1.00  0.00     0.007 C 
HETATM   26  C   UNL     1       8.564   2.987   2.514  1.00  0.00     0.011 C 
HETATM   27  C   UNL     1       7.420   0.899   2.318  1.00  0.00     0.016 C 
HETATM   28  C   UNL     1       8.784   0.192  -0.050  1.00  0.00     0.033 C 
HETATM   29  C   UNL     1      10.626   2.473   0.647  1.00  0.00    -0.033 C 
HETATM   30  C   UNL     1      11.140   2.334   2.087  1.00  0.00     0.007 C 
HETATM   31  C   UNL     1      11.678   2.263  -0.503  1.00  0.00     0.044 C 
HETATM   32  C   UNL     1      10.410   4.060   0.486  1.00  0.00     0.016 C 
HETATM   33  C   UNL     1       9.958   2.534   3.092  1.00  0.00     0.007 C 
HETATM   34  C   UNL     1      12.191   1.171   2.334  1.00  0.00     0.010 C 
HETATM   35  C   UNL     1      12.787   0.636   0.989  1.00  0.00     0.157 C 
HETATM   36  C   UNL     1      13.315   1.742   3.253  1.00  0.00     0.020 C 
HETATM   37  C   UNL     1      13.012   1.680  -0.088  1.00  0.00     0.148 C 
BRANCH  34  38
HETATM   38  C   UNL     1      11.603  -0.062   3.062  1.00  0.00     0.176 C 
BRANCH  38  39
HETATM   39  O   UNL     1      12.561  -1.103   3.257  1.00  0.00    -0.400 OA
HETATM   40  H   UNL     1      13.210  -1.077   2.521  1.00  0.00     0.209 HD
ENDBRANCH  38  39
ENDBRANCH  34  38
BRANCH  35  41
HETATM   41  O   UNL     1      14.014  -0.063   1.215  1.00  0.00    -0.392 OA
HETATM   42  H   UNL     1      14.723   0.610   1.136  1.00  0.00     0.210 HD
ENDBRANCH  35  41
BRANCH  37  43
HETATM   43  O   UNL     1      13.952   2.658   0.341  1.00  0.00    -0.393 OA
HETATM   44  H   UNL     1      13.490   3.429   0.699  1.00  0.00     0.210 HD
ENDBRANCH  37  43
ENDBRANCH   8  10
ENDBRANCH   7   8
ENDBRANCH   1   7
BRANCH   2  45
HETATM   45  O   UNL     1       0.598   5.889   3.923  1.00  0.00    -0.388 OA
HETATM   46  H   UNL     1       1.260   6.591   4.078  1.00  0.00     0.210 HD
ENDBRANCH   2  45
BRANCH   3  47
HETATM   47  O   UNL     1      -1.066   4.040   2.888  1.00  0.00    -0.390 OA
HETATM   48  H   UNL     1      -1.033   4.504   3.751  1.00  0.00     0.210 HD
ENDBRANCH   3  47
BRANCH   5  49
HETATM   49  C   UNL     1      -0.115   7.981  -0.123  1.00  0.00     0.205 C 
BRANCH  49  50
HETATM   50  O   UNL     1      -0.835   8.788   0.823  1.00  0.00    -0.356 OA
BRANCH  50  51
HETATM   51  C   UNL     1      -1.359  10.067   0.397  1.00  0.00     0.291 C 
HETATM   52  C   UNL     1      -1.636  10.858   1.668  1.00  0.00     0.204 C 
HETATM   53  C   UNL     1      -2.687  10.076   2.461  1.00  0.00     0.183 C 
HETATM   54  C   UNL     1      -4.070  10.097   1.761  1.00  0.00     0.187 C 
HETATM   55  C   UNL     1      -3.835   9.726   0.235  1.00  0.00     0.180 C 
HETATM   56  O   UNL     1      -2.558  10.063  -0.383  1.00  0.00    -0.348 OA
BRANCH  52  57
HETATM   57  O   UNL     1      -2.098  12.185   1.398  1.00  0.00    -0.388 OA
HETATM   58  H   UNL     1      -2.842  12.097   0.768  1.00  0.00     0.210 HD
ENDBRANCH  52  57
BRANCH  53  59
HETATM   59  O   UNL     1      -2.649  10.517   3.814  1.00  0.00    -0.390 OA
HETATM   60  H   UNL     1      -2.295  11.433   3.795  1.00  0.00     0.210 HD
ENDBRANCH  53  59
BRANCH  54  61
HETATM   61  O   UNL     1      -4.858  11.313   1.955  1.00  0.00    -0.348 OA
BRANCH  61  62
HETATM   62  C   UNL     1      -5.184  11.629   3.333  1.00  0.00     0.292 C 
HETATM   63  C   UNL     1      -6.075  10.613   4.108  1.00  0.00     0.204 C 
HETATM   64  C   UNL     1      -7.573  10.873   3.811  1.00  0.00     0.183 C 
HETATM   65  C   UNL     1      -7.967  12.347   4.007  1.00  0.00     0.178 C 
HETATM   66  C   UNL     1      -6.985  13.271   3.267  1.00  0.00     0.152 C 
HETATM   67  O   UNL     1      -5.612  12.985   3.518  1.00  0.00    -0.351 OA
HETATM   68  C   UNL     1      -7.197  14.729   3.699  1.00  0.00     0.042 C 
BRANCH  63  69
HETATM   69  O   UNL     1      -5.788  10.673   5.529  1.00  0.00    -0.388 OA
HETATM   70  H   UNL     1      -5.419  11.560   5.705  1.00  0.00     0.210 HD
ENDBRANCH  63  69
BRANCH  64  71
HETATM   71  O   UNL     1      -8.462  10.058   4.589  1.00  0.00    -0.390 OA
HETATM   72  H   UNL     1      -8.165   9.132   4.572  1.00  0.00     0.210 HD
ENDBRANCH  64  71
BRANCH  65  73
HETATM   73  O   UNL     1      -8.036  12.732   5.391  1.00  0.00    -0.390 OA
HETATM   74  H   UNL     1      -8.071  11.934   5.943  1.00  0.00     0.210 HD
ENDBRANCH  65  73
ENDBRANCH  61  62
ENDBRANCH  54  61
BRANCH  55  75
HETATM   75  C   UNL     1      -4.895  10.344  -0.703  1.00  0.00     0.198 C 
BRANCH  75  76
HETATM   76  O   UNL     1      -4.538  10.073  -2.063  1.00  0.00    -0.398 OA
HETATM   77  H   UNL     1      -3.581  10.284  -2.095  1.00  0.00     0.209 HD
ENDBRANCH  75  76
ENDBRANCH  55  75
ENDBRANCH  50  51
ENDBRANCH  49  50
ENDBRANCH   5  49
BRANCH   4  78
HETATM   78  O   UNL     1      -1.537   6.658   1.983  1.00  0.00    -0.390 OA
HETATM   79  H   UNL     1      -1.021   7.445   2.251  1.00  0.00     0.210 HD
ENDBRANCH   4  78
TORSDOF 22
