REMARK  6 active torsions:
REMARK  status: ('A' for Active; 'I' for Inactive)
REMARK    1  A    between atoms: CB_1  and  CA_2 
REMARK    2  A    between atoms: CB_1  and  CG_7 
REMARK    3  A    between atoms: CA_2  and  C_3 
REMARK    4  A    between atoms: CA_2  and  N_6 
REMARK    5  A    between atoms: C_3  and  OXT_5 
REMARK    6  A    between atoms: CG_7  and  OD2_9 
ROOT
ATOM      1  CA  ASP A   1       0.547  -0.989  -1.012  1.00  0.00     0.324 C 
ENDROOT
BRANCH   1   2
ATOM      2  CB  ASP A   1       1.039  -0.063   0.101  1.00  0.00     0.156 C 
BRANCH   2   3
ATOM      3  CG  ASP A   1       2.540   0.002   0.129  1.00  0.00     0.141 C 
ATOM      4  OD1 ASP A   1       3.265  -0.608  -0.645  1.00  0.00    -0.650 OA
BRANCH   3   5
ATOM      5  OD2 ASP A   1       3.022   0.783   1.119  1.00  0.00    -0.776 OA
ATOM      6  HD2 ASP A   1       2.335   1.204   1.673  1.00  0.00     0.167 HD
ENDBRANCH   3   5
ENDBRANCH   2   3
ENDBRANCH   1   2
BRANCH   1   7
ATOM      7  C   ASP A   1       0.827  -2.477  -0.704  1.00  0.00     0.174 C 
ATOM      8  O   ASP A   1      -0.056  -3.268  -0.388  1.00  0.00    -0.648 OA
BRANCH   7   9
ATOM      9  OXT ASP A   1       2.113  -2.859  -0.826  1.00  0.00    -0.775 OA
ATOM     10  HXT ASP A   1       2.753  -2.136  -1.038  1.00  0.00     0.167 HD
ENDBRANCH   7   9
ENDBRANCH   1   7
BRANCH   1  11
ATOM     11  N   ASP A   1      -0.925  -0.792  -1.138  1.00  0.00     0.093 N 
ATOM     12  H1  ASP A   1      -1.365  -1.181  -0.297  1.00  0.00     0.314 HD
ATOM     13  H2  ASP A   1      -1.261  -1.425  -1.871  1.00  0.00     0.314 HD
ENDBRANCH   1  11
TORSDOF 6
