REMARK  10 active torsions:
REMARK  status: ('A' for Active; 'I' for Inactive)
REMARK    1  A    between atoms: C_1  and  C_2 
REMARK    2  A    between atoms: C_1  and  C_8 
REMARK    3  A    between atoms: C_2  and  C_3 
REMARK    4  A    between atoms: C_3  and  C_4 
REMARK    5  A    between atoms: C_4  and  C_5 
REMARK    6  A    between atoms: C_5  and  O_7 
REMARK    7  A    between atoms: C_8  and  C_9 
REMARK    8  A    between atoms: C_9  and  C_10 
REMARK    9  A    between atoms: C_10  and  C_11 
REMARK   10  A    between atoms: C_11  and  O_13 
ROOT
HETATM    1  C   UNL     1       0.971  -0.021  -0.070  1.00  0.00     0.000 C 
ENDROOT
BRANCH   1   2
HETATM    2  C   UNL     1       0.351   1.015  -1.014  1.00  0.00     0.001 C 
BRANCH   2   3
HETATM    3  C   UNL     1      -1.178   0.992  -1.030  1.00  0.00     0.010 C 
BRANCH   3   4
HETATM    4  C   UNL     1      -1.792   1.343   0.325  1.00  0.00     0.110 C 
BRANCH   4   5
HETATM    5  C   UNL     1      -3.301   1.379   0.275  1.00  0.00     0.139 C 
HETATM    6  O   UNL     1      -3.981   1.175  -0.716  1.00  0.00    -0.650 OA
BRANCH   5   7
HETATM    7  O   UNL     1      -3.843   1.661   1.482  1.00  0.00    -0.776 OA
HETATM    8  H   UNL     1      -3.181   1.801   2.186  1.00  0.00     0.167 HD
ENDBRANCH   5   7
ENDBRANCH   4   5
ENDBRANCH   3   4
ENDBRANCH   2   3
ENDBRANCH   1   2
BRANCH   1   9
HETATM    9  C   UNL     1       2.504  -0.001  -0.071  1.00  0.00     0.001 C 
BRANCH   9  10
HETATM   10  C   UNL     1       3.063   1.342   0.402  1.00  0.00     0.010 C 
BRANCH  10  11
HETATM   11  C   UNL     1       4.587   1.359   0.457  1.00  0.00     0.110 C 
BRANCH  11  12
HETATM   12  C   UNL     1       5.091   2.714   0.904  1.00  0.00     0.139 C 
HETATM   13  O   UNL     1       4.389   3.659   1.226  1.00  0.00    -0.650 OA
BRANCH  12  14
HETATM   14  O   UNL     1       6.440   2.787   0.915  1.00  0.00    -0.776 OA
HETATM   15  H   UNL     1       6.882   1.964   0.636  1.00  0.00     0.167 HD
ENDBRANCH  12  14
ENDBRANCH  11  12
ENDBRANCH  10  11
ENDBRANCH   9  10
ENDBRANCH   1   9
TORSDOF 10
