REMARK  4 active torsions:
REMARK  status: ('A' for Active; 'I' for Inactive)
REMARK    1  A    between atoms: C_5  and  C_6 
REMARK    2  A    between atoms: C_5  and  C_14 
REMARK    3  A    between atoms: C_9  and  N_12 
REMARK    4  A    between atoms: C_17  and  N_20 
ROOT
HETATM    1  C   UNL     1       1.048  -0.332   0.708  1.00  0.00     0.050 C 
HETATM    2  C   UNL     1       2.537  -0.230   0.487  1.00  0.00    -0.035 A 
HETATM    3  C   UNL     1       3.145   0.975   0.449  1.00  0.00     0.021 A 
HETATM    4  C   UNL     1       4.625   1.095   0.251  1.00  0.00    -0.024 A 
HETATM    5  C   UNL     1       5.259   2.301   0.316  1.00  0.00    -0.005 C 
HETATM    6  C   UNL     1       5.394  -0.167   0.017  1.00  0.00     0.014 A 
HETATM    7  C   UNL     1       4.793  -1.362   0.052  1.00  0.00     0.030 A 
HETATM    8  C   UNL     1       3.341  -1.469   0.318  1.00  0.00     0.031 A 
HETATM    9  N   UNL     1       2.781  -2.624   0.404  1.00  0.00    -0.399 N 
ATOM     10  HN  UNL     1       1.778  -2.677   0.581  1.00  0.00     0.156 HD
HETATM   11  H   UNL     1       3.318  -3.498   0.299  1.00  0.00     0.156 HD
ENDROOT
BRANCH   5  12
HETATM   12  C   UNL     1       6.736   2.384   0.233  1.00  0.00    -0.024 A 
HETATM   13  C   UNL     1       7.381   2.602  -0.993  1.00  0.00     0.021 A 
HETATM   14  C   UNL     1       8.788   2.635  -1.063  1.00  0.00    -0.035 A 
HETATM   15  C   UNL     1       9.548   2.447   0.119  1.00  0.00     0.031 A 
HETATM   16  C   UNL     1       9.461   2.857  -2.392  1.00  0.00     0.050 C 
HETATM   17  C   UNL     1       8.887   2.237   1.337  1.00  0.00     0.030 A 
HETATM   18  C   UNL     1       7.495   2.204   1.393  1.00  0.00     0.014 A 
BRANCH  15  19
HETATM   19  N   UNL     1      10.969   2.457   0.104  1.00  0.00    -0.399 N 
HETATM   20  H   UNL     1      11.504   2.593  -0.764  1.00  0.00     0.156 HD
HETATM   21  H   UNL     1      11.500   2.308   0.974  1.00  0.00     0.156 HD
ENDBRANCH  15  19
ENDBRANCH   5  12
BRANCH   5  22
HETATM   22  C   UNL     1       4.524   3.552   0.618  1.00  0.00    -0.024 A 
HETATM   23  C   UNL     1       4.397   3.984   1.945  1.00  0.00     0.021 A 
HETATM   24  C   UNL     1       3.691   5.160   2.256  1.00  0.00    -0.035 A 
HETATM   25  C   UNL     1       3.108   5.916   1.209  1.00  0.00     0.031 A 
HETATM   26  C   UNL     1       3.565   5.588   3.694  1.00  0.00     0.050 C 
HETATM   27  C   UNL     1       3.247   5.475  -0.117  1.00  0.00     0.030 A 
HETATM   28  C   UNL     1       3.945   4.302  -0.412  1.00  0.00     0.014 A 
BRANCH  25  29
HETATM   29  N   UNL     1       2.385   7.111   1.469  1.00  0.00    -0.399 N 
HETATM   30  H   UNL     1       2.252   7.471   2.425  1.00  0.00     0.156 HD
HETATM   31  H   UNL     1       1.968   7.648   0.694  1.00  0.00     0.156 HD
ENDBRANCH  25  29
ENDBRANCH   5  22
TORSDOF 4
