REMARK  2 active torsions:
REMARK  status: ('A' for Active; 'I' for Inactive)
REMARK    1  A    between atoms: C_4  and  C_7 
REMARK    2  A    between atoms: C_7  and  O_8 
ROOT
HETATM    1  C   UNL     1       1.385  -0.206   0.064  1.00  0.00     0.000 A 
HETATM    2  C   UNL     1       0.521  -1.298   0.055  1.00  0.00     0.001 A 
HETATM    3  C   UNL     1      -0.860  -1.100  -0.008  1.00  0.00     0.009 A 
HETATM    4  C   UNL     1      -1.389   0.197  -0.064  1.00  0.00    -0.035 A 
HETATM    5  C   UNL     1      -0.509   1.287  -0.048  1.00  0.00     0.009 A 
HETATM    6  C   UNL     1       0.871   1.089   0.013  1.00  0.00     0.001 A 
ENDROOT
BRANCH   4   7
HETATM    7  C   UNL     1      -2.873   0.419  -0.172  1.00  0.00     0.202 C 
BRANCH   7   8
HETATM    8  O   UNL     1      -3.354   1.167   0.938  1.00  0.00    -0.396 OA
HETATM    9  H   UNL     1      -2.916   0.809   1.729  1.00  0.00     0.209 HD
ENDBRANCH   7   8
ENDBRANCH   4   7
TORSDOF 2
