REMARK  2 active torsions:
REMARK  status: ('A' for Active; 'I' for Inactive)
REMARK    1  A    between atoms: N_2  and  C_5 
REMARK    2  A    between atoms: C_5  and  C_6 
ROOT
HETATM    1  C   UNL     1       0.996   0.066  -0.022  1.00  0.00     0.272 C 
HETATM    2  N   UNL     1       2.500   0.139  -0.093  1.00  0.00    -0.069 N 
HETATM    3  C   UNL     1       2.982  -0.220  -1.487  1.00  0.00     0.272 C 
HETATM    4  C   UNL     1       2.982   1.527   0.285  1.00  0.00     0.272 C 
ENDROOT
BRANCH   2   5
HETATM    5  C   UNL     1       3.102  -0.906   0.941  1.00  0.00     0.348 C 
BRANCH   5   6
HETATM    6  C   UNL     1       4.642  -1.052   1.080  1.00  0.00     0.199 C 
HETATM    7  O   UNL     1       5.166  -0.275   1.917  1.00  0.00    -0.647 OA
HETATM    8  O   UNL     1       5.154  -1.890   0.283  1.00  0.00    -0.647 OA
ENDBRANCH   5   6
ENDBRANCH   2   5
TORSDOF 2
