REMARK  18 active torsions:
REMARK  status: ('A' for Active; 'I' for Inactive)
REMARK    1  A    between atoms: C_1  and  C_2 
REMARK    2  A    between atoms: C_1  and  O_34 
REMARK    3  A    between atoms: C_3  and  O_33 
REMARK    4  A    between atoms: C_4  and  O_32 
REMARK    5  A    between atoms: C_5  and  O_31 
REMARK    6  A    between atoms: C_6  and  O_8 
REMARK    7  A    between atoms: O_8  and  C_9 
REMARK    8  A    between atoms: C_10  and  C_29 
REMARK    9  A    between atoms: C_12  and  O_17 
REMARK   10  A    between atoms: C_13  and  O_16 
REMARK   11  A    between atoms: C_14  and  O_15 
REMARK   12  A    between atoms: O_17  and  C_18 
REMARK   13  A    between atoms: C_19  and  C_27 
REMARK   14  A    between atoms: C_21  and  O_26 
REMARK   15  A    between atoms: C_22  and  O_25 
REMARK   16  A    between atoms: C_23  and  O_24 
REMARK   17  A    between atoms: C_27  and  O_28 
REMARK   18  A    between atoms: C_29  and  O_30 
ROOT
HETATM    1  C   UNL     1       2.815  -5.537   0.632  1.00  0.00     0.187 C 
HETATM    2  C   UNL     1       1.932  -5.665   1.910  1.00  0.00     0.180 C 
HETATM    3  O   UNL     1       1.792  -4.407   2.593  1.00  0.00    -0.348 OA
HETATM    4  C   UNL     1       2.993  -3.718   2.937  1.00  0.00     0.292 C 
HETATM    5  C   UNL     1       4.098  -3.743   1.844  1.00  0.00     0.204 C 
HETATM    6  C   UNL     1       4.203  -5.086   1.115  1.00  0.00     0.183 C 
ENDROOT
BRANCH   1   7
HETATM    7  O   UNL     1       2.154  -4.586  -0.236  1.00  0.00    -0.348 OA
BRANCH   7   8
HETATM    8  C   UNL     1       2.542  -4.431  -1.613  1.00  0.00     0.292 C 
HETATM    9  C   UNL     1       2.547  -5.724  -2.458  1.00  0.00     0.204 C 
HETATM   10  C   UNL     1       2.826  -5.363  -3.919  1.00  0.00     0.183 C 
HETATM   11  C   UNL     1       4.135  -4.558  -4.045  1.00  0.00     0.180 C 
HETATM   12  C   UNL     1       4.229  -3.394  -3.042  1.00  0.00     0.179 C 
HETATM   13  O   UNL     1       3.783  -3.730  -1.710  1.00  0.00    -0.348 OA
BRANCH   9  14
HETATM   14  O   UNL     1       3.595  -6.624  -2.038  1.00  0.00    -0.388 OA
HETATM   15  H   UNL     1       3.533  -7.382  -2.656  1.00  0.00     0.210 HD
ENDBRANCH   9  14
BRANCH  10  16
HETATM   16  O   UNL     1       2.921  -6.585  -4.681  1.00  0.00    -0.390 OA
HETATM   17  H   UNL     1       3.725  -6.515  -5.230  1.00  0.00     0.210 HD
ENDBRANCH  10  16
BRANCH  11  18
HETATM   18  O   UNL     1       5.251  -5.449  -3.856  1.00  0.00    -0.390 OA
HETATM   19  H   UNL     1       5.145  -5.851  -2.965  1.00  0.00     0.210 HD
ENDBRANCH  11  18
BRANCH  12  20
HETATM   20  C   UNL     1       3.573  -2.114  -3.584  1.00  0.00     0.198 C 
BRANCH  20  21
HETATM   21  O   UNL     1       2.267  -2.371  -4.097  1.00  0.00    -0.398 OA
HETATM   22  H   UNL     1       2.024  -1.598  -4.637  1.00  0.00     0.209 HD
ENDBRANCH  20  21
ENDBRANCH  12  20
ENDBRANCH   7   8
ENDBRANCH   1   7
BRANCH   2  23
HETATM   23  C   UNL     1       2.368  -6.789   2.871  1.00  0.00     0.198 C 
BRANCH  23  24
HETATM   24  O   UNL     1       2.304  -8.057   2.234  1.00  0.00    -0.398 OA
HETATM   25  H   UNL     1       1.407  -8.411   2.372  1.00  0.00     0.209 HD
ENDBRANCH  23  24
ENDBRANCH   2  23
BRANCH   6  26
HETATM   26  O   UNL     1       5.180  -4.979   0.076  1.00  0.00    -0.390 OA
HETATM   27  H   UNL     1       4.777  -4.429  -0.628  1.00  0.00     0.210 HD
ENDBRANCH   6  26
BRANCH   5  28
HETATM   28  O   UNL     1       5.373  -3.357   2.374  1.00  0.00    -0.388 OA
HETATM   29  H   UNL     1       6.036  -3.914   1.921  1.00  0.00     0.210 HD
ENDBRANCH   5  28
BRANCH   4  30
HETATM   30  O   UNL     1       3.481  -4.083   4.247  1.00  0.00    -0.348 OA
BRANCH  30  31
HETATM   31  C   UNL     1       2.535  -3.825   5.325  1.00  0.00     0.187 C 
HETATM   32  C   UNL     1       2.189  -2.327   5.532  1.00  0.00     0.180 C 
HETATM   33  O   UNL     1       3.182  -1.566   6.238  1.00  0.00    -0.349 OA
HETATM   34  C   UNL     1       3.715  -2.120   7.424  1.00  0.00     0.288 C 
HETATM   35  C   UNL     1       4.171  -3.580   7.284  1.00  0.00     0.204 C 
HETATM   36  C   UNL     1       3.083  -4.442   6.631  1.00  0.00     0.183 C 
BRANCH  32  37
HETATM   37  C   UNL     1       0.783  -2.125   6.115  1.00  0.00     0.198 C 
BRANCH  37  38
HETATM   38  O   UNL     1       0.646  -2.729   7.397  1.00  0.00    -0.398 OA
HETATM   39  H   UNL     1       0.125  -3.547   7.287  1.00  0.00     0.209 HD
ENDBRANCH  37  38
ENDBRANCH  32  37
BRANCH  34  40
HETATM   40  O   UNL     1       2.852  -1.943   8.544  1.00  0.00    -0.369 OA
HETATM   41  H   UNL     1       1.939  -2.093   8.227  1.00  0.00     0.212 HD
ENDBRANCH  34  40
BRANCH  35  42
HETATM   42  O   UNL     1       4.506  -4.105   8.584  1.00  0.00    -0.388 OA
HETATM   43  H   UNL     1       3.900  -3.662   9.213  1.00  0.00     0.210 HD
ENDBRANCH  35  42
BRANCH  36  44
HETATM   44  O   UNL     1       3.564  -5.768   6.356  1.00  0.00    -0.390 OA
HETATM   45  H   UNL     1       4.282  -5.661   5.704  1.00  0.00     0.210 HD
ENDBRANCH  36  44
ENDBRANCH  30  31
ENDBRANCH   4  30
TORSDOF 18
