REMARK  10 active torsions:
REMARK  status: ('A' for Active; 'I' for Inactive)
REMARK    1  A    between atoms: C_3  and  C_10 
REMARK    2  A    between atoms: C_11  and  C_12 
REMARK    3  A    between atoms: C_13  and  C_14 
REMARK    4  A    between atoms: C_15  and  C_16 
REMARK    5  A    between atoms: C_17  and  C_18 
REMARK    6  A    between atoms: C_19  and  C_20 
REMARK    7  A    between atoms: C_21  and  C_23 
REMARK    8  A    between atoms: C_24  and  C_25 
REMARK    9  A    between atoms: C_26  and  C_28 
REMARK   10  A    between atoms: C_29  and  C_30 
ROOT
HETATM    1  C   UNL     1      -2.314  -1.916   1.350  1.00  0.00     0.001 C 
HETATM    2  C   UNL     1      -2.394  -0.640   1.820  1.00  0.00     0.001 C 
ENDROOT
BRANCH   1   3
HETATM    3  C   UNL     1      -3.407  -2.884   1.405  1.00  0.00     0.007 C 
HETATM    4  C   UNL     1      -3.386  -4.242   1.257  1.00  0.00    -0.062 C 
HETATM    5  C   UNL     1      -4.706  -4.984   1.070  1.00  0.00     0.048 C 
BRANCH   4   6
HETATM    6  C   UNL     1      -2.235  -5.105   1.297  1.00  0.00     0.007 C 
HETATM    7  C   UNL     1      -1.274  -5.186   0.375  1.00  0.00     0.001 C 
BRANCH   7   8
HETATM    8  C   UNL     1      -0.102  -6.024   0.527  1.00  0.00     0.007 C 
HETATM    9  C   UNL     1       0.509  -6.724  -0.447  1.00  0.00    -0.062 C 
HETATM   10  C   UNL     1       1.854  -7.354  -0.189  1.00  0.00     0.048 C 
BRANCH   9  11
HETATM   11  C   UNL     1      -0.035  -6.959  -1.779  1.00  0.00     0.007 C 
HETATM   12  C   UNL     1      -1.239  -7.527  -1.964  1.00  0.00     0.009 C 
BRANCH  12  13
HETATM   13  C   UNL     1      -1.862  -7.942  -3.225  1.00  0.00    -0.048 C 
HETATM   14  C   UNL     1      -2.537  -9.132  -3.256  1.00  0.00    -0.077 C 
HETATM   15  C   UNL     1      -2.760 -10.076  -2.090  1.00  0.00     0.044 C 
HETATM   16  C   UNL     1      -3.210  -9.659  -4.505  1.00  0.00     0.034 C 
HETATM   17  C   UNL     1      -2.785  -8.891  -5.739  1.00  0.00     0.005 C 
HETATM   18  C   UNL     1      -2.989  -7.405  -5.455  1.00  0.00     0.014 C 
HETATM   19  C   UNL     1      -1.953  -6.905  -4.404  1.00  0.00    -0.020 C 
HETATM   20  C   UNL     1      -2.472  -5.558  -3.838  1.00  0.00     0.020 C 
HETATM   21  C   UNL     1      -0.663  -6.575  -5.207  1.00  0.00     0.020 C 
ENDBRANCH  12  13
ENDBRANCH   9  11
ENDBRANCH   7   8
ENDBRANCH   4   6
ENDBRANCH   1   3
BRANCH   2  22
HETATM   22  C   UNL     1      -1.473   0.441   1.423  1.00  0.00     0.007 C 
HETATM   23  C   UNL     1      -1.463   1.750   1.780  1.00  0.00    -0.062 C 
HETATM   24  C   UNL     1      -2.334   2.424   2.813  1.00  0.00     0.048 C 
BRANCH  23  25
HETATM   25  C   UNL     1      -0.534   2.736   1.187  1.00  0.00     0.007 C 
HETATM   26  C   UNL     1      -0.853   3.568   0.173  1.00  0.00     0.001 C 
BRANCH  26  27
HETATM   27  C   UNL     1      -0.107   4.788  -0.174  1.00  0.00     0.007 C 
HETATM   28  C   UNL     1      -0.184   5.495  -1.332  1.00  0.00    -0.062 C 
HETATM   29  C   UNL     1      -0.888   4.966  -2.560  1.00  0.00     0.048 C 
BRANCH  28  30
HETATM   30  C   UNL     1       0.395   6.859  -1.438  1.00  0.00     0.007 C 
HETATM   31  C   UNL     1       0.386   7.622  -2.552  1.00  0.00     0.009 C 
BRANCH  31  32
HETATM   32  C   UNL     1       0.769   9.035  -2.695  1.00  0.00    -0.048 C 
HETATM   33  C   UNL     1       2.030   9.496  -2.501  1.00  0.00    -0.077 C 
HETATM   34  C   UNL     1       2.414  10.957  -2.688  1.00  0.00     0.034 C 
HETATM   35  C   UNL     1       3.223   8.646  -2.140  1.00  0.00     0.044 C 
HETATM   36  C   UNL     1       1.243  11.918  -2.825  1.00  0.00     0.005 C 
HETATM   37  C   UNL     1       0.191  11.323  -3.743  1.00  0.00     0.014 C 
HETATM   38  C   UNL     1      -0.366   9.975  -3.207  1.00  0.00    -0.020 C 
HETATM   39  C   UNL     1      -1.176   9.368  -4.380  1.00  0.00     0.020 C 
HETATM   40  C   UNL     1      -1.346  10.264  -2.049  1.00  0.00     0.020 C 
ENDBRANCH  31  32
ENDBRANCH  28  30
ENDBRANCH  26  27
ENDBRANCH  23  25
ENDBRANCH   2  22
TORSDOF 10
