REMARK  0 active torsions:
REMARK  status: ('A' for Active; 'I' for Inactive)
ROOT
HETATM    1  C   UNL     1       0.987   0.544   0.112  1.00  0.00     0.043 C 
HETATM    2  C   UNL     1       2.484   0.363   0.100  1.00  0.00    -0.087 C 
HETATM    3  C   UNL     1       3.273   0.940  -0.831  1.00  0.00    -0.024 C 
HETATM    4  C   UNL     1       4.773   0.827  -0.923  1.00  0.00     0.031 C 
HETATM    5  C   UNL     1       5.308  -0.391  -1.699  1.00  0.00     0.037 C 
HETATM    6  C   UNL     1       5.215  -1.743  -0.998  1.00  0.00    -0.084 C 
HETATM    7  C   UNL     1       6.170  -2.171  -0.159  1.00  0.00     0.014 C 
HETATM    8  C   UNL     1       4.082  -2.624  -1.406  1.00  0.00     0.019 C 
HETATM    9  C   UNL     1       3.938  -4.118  -0.971  1.00  0.00     0.018 C 
HETATM   10  C   UNL     1       2.382  -3.908  -1.090  1.00  0.00    -0.043 C 
HETATM   11  C   UNL     1       2.698  -2.401  -0.716  1.00  0.00     0.002 C 
HETATM   12  C   UNL     1       2.659  -2.055   0.796  1.00  0.00     0.010 C 
HETATM   13  C   UNL     1       3.020  -0.603   1.123  1.00  0.00     0.034 C 
HETATM   14  C   UNL     1       1.443  -4.601  -0.105  1.00  0.00     0.015 C 
HETATM   15  C   UNL     1       1.855  -4.134  -2.521  1.00  0.00     0.015 C 
ENDROOT
TORSDOF 0
