REMARK  4 active torsions:
REMARK  status: ('A' for Active; 'I' for Inactive)
REMARK    1  A    between atoms: C_2  and  C_4 
REMARK    2  A    between atoms: C_7  and  C_31 
REMARK    3  A    between atoms: C_16  and  O_29 
REMARK    4  A    between atoms: C_31  and  O_32 
ROOT
HETATM    1  C   UNL     1       3.952   0.611   1.021  1.00  0.00     0.018 C 
HETATM    2  C   UNL     1       4.795   0.803   2.378  1.00  0.00     0.010 C 
HETATM    3  C   UNL     1       5.313  -0.638   2.813  1.00  0.00     0.012 C 
HETATM    4  C   UNL     1       4.709  -1.587   1.744  1.00  0.00    -0.014 C 
HETATM    5  C   UNL     1       4.712  -0.644   0.527  1.00  0.00     0.009 C 
HETATM    6  C   UNL     1       6.188  -0.260   0.140  1.00  0.00    -0.000 C 
HETATM    7  C   UNL     1       6.306   0.978  -0.733  1.00  0.00     0.006 C 
HETATM    8  C   UNL     1       7.533   1.694  -0.214  1.00  0.00     0.006 C 
HETATM    9  C   UNL     1       8.776   0.812  -0.406  1.00  0.00     0.003 C 
HETATM   10  C   UNL     1      10.095   1.581  -0.024  1.00  0.00    -0.035 C 
HETATM   11  C   UNL     1      10.090   3.037  -0.642  1.00  0.00     0.012 C 
HETATM   12  C   UNL     1      11.458   3.678  -0.855  1.00  0.00     0.033 C 
HETATM   13  C   UNL     1      12.353   2.728  -1.628  1.00  0.00     0.126 C 
HETATM   14  C   UNL     1      12.644   1.428  -0.811  1.00  0.00    -0.017 C 
HETATM   15  C   UNL     1      11.244   0.735  -0.736  1.00  0.00     0.004 C 
HETATM   16  C   UNL     1      11.242  -0.781  -0.458  1.00  0.00     0.007 C 
HETATM   17  C   UNL     1       9.866  -1.413  -0.804  1.00  0.00     0.011 C 
HETATM   18  C   UNL     1       8.714  -0.763   0.036  1.00  0.00    -0.032 C 
HETATM   19  C   UNL     1       7.186  -1.392  -0.236  1.00  0.00    -0.032 C 
HETATM   20  C   UNL     1       6.850  -2.648   0.671  1.00  0.00     0.011 C 
HETATM   21  C   UNL     1       5.418  -2.841   1.189  1.00  0.00     0.013 C 
HETATM   22  C   UNL     1       7.001  -1.797  -1.717  1.00  0.00     0.016 C 
HETATM   23  C   UNL     1       9.123  -1.154   1.484  1.00  0.00     0.016 C 
HETATM   24  C   UNL     1      13.690   0.611  -1.596  1.00  0.00     0.018 C 
HETATM   25  C   UNL     1      13.271   1.654   0.583  1.00  0.00     0.018 C 
HETATM   26  C   UNL     1      10.099   1.851   1.510  1.00  0.00     0.016 C 
ENDROOT
BRANCH   1  27
HETATM   27  C   UNL     1       2.675   0.555   0.109  1.00  0.00    -0.089 C 
HETATM   28  C   UNL     1       2.829   0.707  -1.393  1.00  0.00     0.043 C 
HETATM   29  C   UNL     1       1.448   0.186   0.547  1.00  0.00     0.014 C 
ENDBRANCH   1  27
BRANCH   4  30
HETATM   30  C   UNL     1       3.319  -1.998   2.313  1.00  0.00     0.173 C 
BRANCH  30  31
HETATM   31  O   UNL     1       3.462  -2.814   3.484  1.00  0.00    -0.400 OA
HETATM   32  H   UNL     1       3.762  -3.687   3.191  1.00  0.00     0.209 HD
ENDBRANCH  30  31
ENDBRANCH   4  30
BRANCH  13  33
HETATM   33  O   UNL     1      13.505   3.399  -2.116  1.00  0.00    -0.395 OA
HETATM   34  H   UNL     1      13.312   3.644  -3.025  1.00  0.00     0.210 HD
ENDBRANCH  13  33
TORSDOF 4
