REMARK  6 active torsions:
REMARK  status: ('A' for Active; 'I' for Inactive)
REMARK    1  A    between atoms: C_4  and  C_6 
REMARK    2  A    between atoms: C_6  and  C_7 
REMARK    3  A    between atoms: C_7  and  C_8 
REMARK    4  A    between atoms: C_8  and  C_9 
REMARK    5  A    between atoms: C_9  and  C_10 
REMARK    6  A    between atoms: C_10  and  O_12 
ROOT
HETATM    1  C   UNL     1      -0.934   1.495   0.182  1.00  0.00     0.101 C 
HETATM    2  C   UNL     1       0.142   0.796  -0.656  1.00  0.00     0.119 C 
HETATM    3  C   UNL     1      -0.064  -0.734  -0.622  1.00  0.00     0.123 C 
HETATM    4  C   UNL     1      -1.461  -1.083  -0.101  1.00  0.00     0.072 C 
HETATM    5  S   UNL     1      -1.777   0.211   1.142  1.00  0.00    -0.160 SA
HETATM    6  N   UNL     1       1.001  -1.194   0.248  1.00  0.00    -0.335 N 
HETATM    7  C   UNL     1       1.911  -0.197   0.509  1.00  0.00     0.316 C 
HETATM    8  O   UNL     1       2.935  -0.316   1.154  1.00  0.00    -0.247 OA
HETATM    9  N   UNL     1       1.467   0.957  -0.095  1.00  0.00    -0.336 N 
HETATM   10  H   UNL     1       1.177  -2.144   0.550  1.00  0.00     0.164 HD
HETATM   11  H   UNL     1       1.957   1.829   0.059  1.00  0.00     0.164 HD
ENDROOT
BRANCH   4  12
HETATM   12  C   UNL     1      -2.568  -1.031  -1.167  1.00  0.00     0.017 C 
BRANCH  12  13
HETATM   13  C   UNL     1      -2.378  -2.072  -2.274  1.00  0.00     0.002 C 
BRANCH  13  14
HETATM   14  C   UNL     1      -3.516  -2.017  -3.293  1.00  0.00     0.010 C 
BRANCH  14  15
HETATM   15  C   UNL     1      -3.280  -3.015  -4.426  1.00  0.00     0.110 C 
BRANCH  15  16
HETATM   16  C   UNL     1      -4.375  -2.966  -5.463  1.00  0.00     0.139 C 
HETATM   17  O   UNL     1      -5.339  -2.217  -5.436  1.00  0.00    -0.650 OA
BRANCH  16  18
HETATM   18  O   UNL     1      -4.175  -3.855  -6.462  1.00  0.00    -0.776 OA
HETATM   19  H   UNL     1      -3.364  -4.389  -6.360  1.00  0.00     0.167 HD
ENDBRANCH  16  18
ENDBRANCH  15  16
ENDBRANCH  14  15
ENDBRANCH  13  14
ENDBRANCH  12  13
ENDBRANCH   4  12
TORSDOF 6
