REMARK  5 active torsions:
REMARK  status: ('A' for Active; 'I' for Inactive)
REMARK    1  A    between atoms: C_5  and  C_8 
REMARK    2  A    between atoms: C_8  and  C_10 
REMARK    3  A    between atoms: C_8  and  O_16 
REMARK    4  A    between atoms: C_10  and  C_11 
REMARK    5  A    between atoms: C_11  and  C_12 
ROOT
HETATM    1  C   UNL     1      -3.250  -0.122  -0.087  1.00  0.00     0.058 C 
HETATM    2  C   UNL     1      -3.548  -0.051  -1.595  1.00  0.00     0.046 C 
ENDROOT
BRANCH   1   3
HETATM    3  C   UNL     1      -1.718  -0.059   0.233  1.00  0.00     0.023 C 
HETATM    4  C   UNL     1      -1.052   1.272  -0.192  1.00  0.00     0.035 C 
HETATM    5  C   UNL     1       0.450   1.264  -0.127  1.00  0.00    -0.024 C 
HETATM    6  C   UNL     1       1.187   0.150   0.033  1.00  0.00    -0.087 C 
HETATM    7  C   UNL     1       2.686   0.188   0.108  1.00  0.00     0.043 C 
HETATM    8  C   UNL     1       0.549  -1.210   0.143  1.00  0.00     0.034 C 
HETATM    9  C   UNL     1      -0.906  -1.238  -0.343  1.00  0.00     0.012 C 
ENDBRANCH   1   3
BRANCH   1  10
HETATM   10  C   UNL     1      -3.963  -1.373   0.509  1.00  0.00     0.041 C 
BRANCH  10  11
HETATM   11  C   UNL     1      -3.939  -1.404   2.043  1.00  0.00     0.030 C 
BRANCH  11  12
HETATM   12  C   UNL     1      -4.562  -2.616   2.684  1.00  0.00    -0.025 C 
HETATM   13  C   UNL     1      -3.941  -3.779   2.960  1.00  0.00    -0.091 C 
HETATM   14  C   UNL     1      -2.564  -4.142   2.478  1.00  0.00     0.042 C 
HETATM   15  C   UNL     1      -4.587  -4.820   3.836  1.00  0.00     0.042 C 
ENDBRANCH  11  12
ENDBRANCH  10  11
ENDBRANCH   1  10
BRANCH   1  16
HETATM   16  O   UNL     1      -3.886   1.018   0.522  1.00  0.00    -0.390 OA
HETATM   17  H   UNL     1      -3.652   1.813   0.015  1.00  0.00     0.210 HD
ENDBRANCH   1  16
TORSDOF 5
