REMARK  6 active torsions:
REMARK  status: ('A' for Active; 'I' for Inactive)
REMARK    1  A    between atoms: C_2  and  C_5 
REMARK    2  A    between atoms: C_8  and  C_11 
REMARK    3  A    between atoms: C_11  and  C_13 
REMARK    4  A    between atoms: C_13  and  C_14 
REMARK    5  A    between atoms: C_14  and  C_16 
REMARK    6  A    between atoms: C_19  and  O_22 
ROOT
HETATM    1  C   UNL     1       3.816   4.924   2.894  1.00  0.00     0.166 C 
HETATM    2  O   UNL     1       3.214   5.961   2.608  1.00  0.00    -0.292 OA
ENDROOT
BRANCH   1   3
HETATM    3  C   UNL     1       3.527   3.670   2.143  1.00  0.00     0.010 A 
HETATM    4  C   UNL     1       3.031   3.765   0.845  1.00  0.00     0.015 A 
HETATM    5  C   UNL     1       2.750   2.601   0.118  1.00  0.00     0.009 A 
HETATM    6  C   UNL     1       2.961   1.321   0.667  1.00  0.00    -0.051 A 
HETATM    7  C   UNL     1       3.462   1.256   1.977  1.00  0.00     0.009 A 
HETATM    8  C   UNL     1       3.746   2.416   2.708  1.00  0.00     0.015 A 
BRANCH   6   9
HETATM    9  C   UNL     1       2.593   0.040  -0.106  1.00  0.00    -0.024 C 
HETATM   10  C   UNL     1       2.681   0.242  -1.637  1.00  0.00     0.019 C 
HETATM   11  C   UNL     1       1.146  -0.349   0.254  1.00  0.00     0.019 C 
HETATM   12  C   UNL     1       3.513  -1.153   0.240  1.00  0.00     0.019 C 
ENDBRANCH   6   9
ENDBRANCH   1   3
BRANCH   1  13
HETATM   13  C   UNL     1       4.871   4.901   3.962  1.00  0.00     0.167 C 
BRANCH  13  14
HETATM   14  C   UNL     1       6.231   4.525   3.432  1.00  0.00     0.166 C 
HETATM   15  O   UNL     1       6.793   3.496   3.807  1.00  0.00    -0.292 OA
BRANCH  14  16
HETATM   16  C   UNL     1       6.893   5.400   2.424  1.00  0.00     0.010 A 
HETATM   17  C   UNL     1       6.581   6.758   2.302  1.00  0.00     0.018 A 
HETATM   18  C   UNL     1       7.267   7.560   1.382  1.00  0.00     0.037 A 
HETATM   19  C   UNL     1       8.258   7.010   0.567  1.00  0.00     0.068 A 
HETATM   20  C   UNL     1       8.555   5.650   0.678  1.00  0.00     0.037 A 
HETATM   21  C   UNL     1       7.880   4.847   1.600  1.00  0.00     0.018 A 
BRANCH  19  22
HETATM   22  O   UNL     1       8.996   7.686  -0.363  1.00  0.00    -0.356 OA
HETATM   23  C   UNL     1       8.739   9.080  -0.494  1.00  0.00     0.210 C 
ENDBRANCH  19  22
ENDBRANCH  14  16
ENDBRANCH  13  14
ENDBRANCH   1  13
TORSDOF 6
