REMARK  0 active torsions:
REMARK  status: ('A' for Active; 'I' for Inactive)
ROOT
HETATM    1  C   UNL     1      -3.245  -1.135   0.032  1.00  0.00     0.157 C 
HETATM    2  N   UNL     1      -2.266  -0.079   0.004  1.00  0.00    -0.340 N 
HETATM    3  C   UNL     1      -2.522   1.266  -0.007  1.00  0.00     0.184 A 
HETATM    4  N   UNL     1      -1.409   1.973  -0.009  1.00  0.00    -0.336 N 
ATOM      5  HN  UNL     1      -1.314   2.989  -0.014  1.00  0.00     0.168 HD
HETATM    6  C   UNL     1      -0.415   1.041  -0.003  1.00  0.00     0.145 A 
HETATM    7  C   UNL     1      -0.909  -0.227  -0.001  1.00  0.00     0.149 A 
HETATM    8  C   UNL     1      -0.085  -1.386   0.004  1.00  0.00     0.282 A 
HETATM    9  O   UNL     1      -0.542  -2.525   0.004  1.00  0.00    -0.265 OA
HETATM   10  N   UNL     1       1.278  -1.079   0.009  1.00  0.00    -0.269 N 
HETATM   11  C   UNL     1       1.829   0.219   0.006  1.00  0.00     0.332 A 
HETATM   12  O   UNL     1       3.053   0.387   0.007  1.00  0.00    -0.246 OA
HETATM   13  N   UNL     1       0.937   1.292   0.003  1.00  0.00    -0.287 N 
HETATM   14  C   UNL     1       1.428   2.658   0.010  1.00  0.00     0.163 C 
HETATM   15  C   UNL     1       2.224  -2.177   0.022  1.00  0.00     0.164 C 
ENDROOT
TORSDOF 0
