REMARK  7 active torsions:
REMARK  status: ('A' for Active; 'I' for Inactive)
REMARK    1  A    between atoms: C_2  and  C_3 
REMARK    2  A    between atoms: C_3  and  C_4 
REMARK    3  A    between atoms: C_4  and  C_5 
REMARK    4  A    between atoms: C_5  and  C_6 
REMARK    5  A    between atoms: C_6  and  C_7 
REMARK    6  A    between atoms: C_7  and  C_8 
REMARK    7  A    between atoms: C_8  and  O_10 
ROOT
HETATM    1  C   UNL     1       6.543  -2.204  -1.801  1.00  0.00     0.010 C 
ENDROOT
BRANCH   1   2
HETATM    2  C   UNL     1       5.015  -2.202  -1.799  1.00  0.00     0.001 C 
BRANCH   2   3
HETATM    3  C   UNL     1       4.477  -1.113  -0.869  1.00  0.00     0.000 C 
BRANCH   3   4
HETATM    4  C   UNL     1       2.950  -1.095  -0.853  1.00  0.00    -0.000 C 
BRANCH   4   5
HETATM    5  C   UNL     1       2.418  -0.004   0.077  1.00  0.00    -0.005 C 
HETATM    6  C   UNL     1       0.899   0.013   0.094  1.00  0.00     0.005 C 
ENDBRANCH   4   5
ENDBRANCH   3   4
ENDBRANCH   2   3
ENDBRANCH   1   2
BRANCH   1   7
HETATM    7  C   UNL     1       7.116  -3.280  -2.720  1.00  0.00     0.110 C 
BRANCH   7   8
HETATM    8  C   UNL     1       8.628  -3.265  -2.707  1.00  0.00     0.139 C 
HETATM    9  O   UNL     1       9.323  -2.501  -2.055  1.00  0.00    -0.650 OA
BRANCH   8  10
HETATM   10  O   UNL     1       9.159  -4.210  -3.515  1.00  0.00    -0.776 OA
HETATM   11  H   UNL     1       8.492  -4.751  -3.978  1.00  0.00     0.167 HD
ENDBRANCH   8  10
ENDBRANCH   7   8
ENDBRANCH   1   7
TORSDOF 7
