REMARK  9 active torsions:
REMARK  status: ('A' for Active; 'I' for Inactive)
REMARK    1  A    between atoms: C_2  and  C_3 
REMARK    2  A    between atoms: C_3  and  C_4 
REMARK    3  A    between atoms: C_4  and  C_5 
REMARK    4  A    between atoms: C_5  and  C_6 
REMARK    5  A    between atoms: C_6  and  C_7 
REMARK    6  A    between atoms: C_7  and  C_8 
REMARK    7  A    between atoms: C_8  and  C_9 
REMARK    8  A    between atoms: C_9  and  C_10 
REMARK    9  A    between atoms: C_10  and  O_12 
ROOT
HETATM    1  C   UNL     1       7.035   3.844  -1.893  1.00  0.00     0.001 C 
ENDROOT
BRANCH   1   2
HETATM    2  C   UNL     1       6.518   2.546  -1.280  1.00  0.00     0.000 C 
BRANCH   2   3
HETATM    3  C   UNL     1       4.996   2.530  -1.273  1.00  0.00     0.000 C 
BRANCH   3   4
HETATM    4  C   UNL     1       4.481   1.235  -0.661  1.00  0.00     0.000 C 
BRANCH   4   5
HETATM    5  C   UNL     1       2.959   1.223  -0.658  1.00  0.00    -0.000 C 
BRANCH   5   6
HETATM    6  C   UNL     1       2.433  -0.069  -0.046  1.00  0.00    -0.005 C 
HETATM    7  C   UNL     1       0.916  -0.074  -0.048  1.00  0.00     0.005 C 
ENDBRANCH   5   6
ENDBRANCH   4   5
ENDBRANCH   3   4
ENDBRANCH   2   3
ENDBRANCH   1   2
BRANCH   1   8
HETATM    8  C   UNL     1       8.558   3.859  -1.900  1.00  0.00     0.010 C 
BRANCH   8   9
HETATM    9  C   UNL     1       9.126   5.145  -2.507  1.00  0.00     0.110 C 
BRANCH   9  10
HETATM   10  C   UNL     1      10.634   5.106  -2.489  1.00  0.00     0.139 C 
HETATM   11  O   UNL     1      11.305   4.178  -2.051  1.00  0.00    -0.650 OA
BRANCH  10  12
HETATM   12  O   UNL     1      11.220   6.211  -3.011  1.00  0.00    -0.776 OA
HETATM   13  H   UNL     1      10.602   6.891  -3.332  1.00  0.00     0.167 HD
ENDBRANCH  10  12
ENDBRANCH   9  10
ENDBRANCH   8   9
ENDBRANCH   1   8
TORSDOF 9
