REMARK  10 active torsions:
REMARK  status: ('A' for Active; 'I' for Inactive)
REMARK    1  A    between atoms: C_2  and  C_3 
REMARK    2  A    between atoms: C_3  and  C_4 
REMARK    3  A    between atoms: C_4  and  C_5 
REMARK    4  A    between atoms: C_5  and  C_6 
REMARK    5  A    between atoms: C_6  and  C_7 
REMARK    6  A    between atoms: C_7  and  C_8 
REMARK    7  A    between atoms: C_8  and  C_10 
REMARK    8  A    between atoms: C_12  and  C_17 
REMARK    9  A    between atoms: C_13  and  O_16 
REMARK   10  A    between atoms: C_17  and  O_19 
ROOT
HETATM    1  C   UNL     1       9.441   5.301   1.939  1.00  0.00     0.011 A 
HETATM    2  C   UNL     1       8.728   6.441   2.328  1.00  0.00     0.036 A 
HETATM    3  C   UNL     1       9.408   7.605   2.710  1.00  0.00     0.071 A 
HETATM    4  C   UNL     1      10.806   7.622   2.696  1.00  0.00     0.082 A 
HETATM    5  C   UNL     1      11.527   6.491   2.316  1.00  0.00     0.038 A 
HETATM    6  C   UNL     1      10.842   5.333   1.941  1.00  0.00     0.018 A 
ENDROOT
BRANCH   1   7
HETATM    7  C   UNL     1       8.752   4.046   1.513  1.00  0.00     0.159 C 
HETATM    8  O   UNL     1       9.433   3.079   1.175  1.00  0.00    -0.292 OA
BRANCH   7   9
HETATM    9  C   UNL     1       7.232   4.018   1.515  1.00  0.00     0.084 C 
BRANCH   9  10
HETATM   10  C   UNL     1       6.689   2.684   1.010  1.00  0.00     0.008 C 
BRANCH  10  11
HETATM   11  C   UNL     1       5.163   2.666   1.017  1.00  0.00     0.000 C 
BRANCH  11  12
HETATM   12  C   UNL     1       4.632   1.327   0.506  1.00  0.00     0.000 C 
BRANCH  12  13
HETATM   13  C   UNL     1       3.105   1.304   0.505  1.00  0.00    -0.000 C 
BRANCH  13  14
HETATM   14  C   UNL     1       2.570  -0.034  -0.004  1.00  0.00    -0.005 C 
HETATM   15  C   UNL     1       1.051  -0.054  -0.003  1.00  0.00     0.005 C 
ENDBRANCH  13  14
ENDBRANCH  12  13
ENDBRANCH  11  12
ENDBRANCH  10  11
ENDBRANCH   9  10
ENDBRANCH   7   9
ENDBRANCH   1   7
BRANCH   3  16
HETATM   16  C   UNL     1       8.583   8.760   3.156  1.00  0.00     0.179 C 
HETATM   17  O   UNL     1       7.494   8.604   3.678  1.00  0.00    -0.646 OA
BRANCH  16  18
HETATM   18  O   UNL     1       9.124   9.964   2.901  1.00  0.00    -0.773 OA
HETATM   19  H   UNL     1       9.983   9.925   2.423  1.00  0.00     0.167 HD
ENDBRANCH  16  18
ENDBRANCH   3  16
BRANCH   4  20
HETATM   20  O   UNL     1      11.510   8.738   3.047  1.00  0.00    -0.360 OA
HETATM   21  H   UNL     1      11.480   8.795   4.026  1.00  0.00     0.217 HD
ENDBRANCH   4  20
TORSDOF 10
