REMARK  7 active torsions:
REMARK  status: ('A' for Active; 'I' for Inactive)
REMARK    1  A    between atoms: C_2  and  C_3 
REMARK    2  A    between atoms: C_3  and  C_4 
REMARK    3  A    between atoms: C_4  and  C_5 
REMARK    4  A    between atoms: C_5  and  C_6 
REMARK    5  A    between atoms: C_6  and  C_7 
REMARK    6  A    between atoms: C_7  and  C_8 
REMARK       I    between atoms: C_8  and  N_10 
REMARK    7  A    between atoms: N_10  and  O_11 
ROOT
HETATM    1  C   UNL     1       7.204   4.099  -1.482  1.00  0.00     0.105 C 
ENDROOT
BRANCH   1   2
HETATM    2  C   UNL     1       6.640   2.774  -0.975  1.00  0.00     0.009 C 
BRANCH   2   3
HETATM    3  C   UNL     1       5.116   2.766  -0.972  1.00  0.00     0.000 C 
BRANCH   3   4
HETATM    4  C   UNL     1       4.592   1.425  -0.462  1.00  0.00     0.000 C 
BRANCH   4   5
HETATM    5  C   UNL     1       3.068   1.405  -0.456  1.00  0.00    -0.000 C 
BRANCH   5   6
HETATM    6  C   UNL     1       2.540   0.068   0.055  1.00  0.00    -0.005 C 
HETATM    7  C   UNL     1       1.022   0.056   0.055  1.00  0.00     0.005 C 
ENDBRANCH   5   6
ENDBRANCH   4   5
ENDBRANCH   3   4
ENDBRANCH   2   3
ENDBRANCH   1   2
BRANCH   1   8
HETATM    8  C   UNL     1       8.717   4.084  -1.476  1.00  0.00     0.240 C 
HETATM    9  O   UNL     1       9.397   3.131  -1.113  1.00  0.00    -0.271 OA
HETATM   10  N   UNL     1       9.290   5.245  -1.919  1.00  0.00    -0.237 N 
HETATM   11  H   UNL     1       8.796   6.070  -2.234  1.00  0.00     0.197 HD
BRANCH  10  12
HETATM   12  O   UNL     1      10.703   5.282  -1.933  1.00  0.00    -0.287 OA
HETATM   13  H   UNL     1      10.937   4.390  -1.590  1.00  0.00     0.244 HD
ENDBRANCH  10  12
ENDBRANCH   1   8
TORSDOF 7
