REMARK  0 active torsions:
REMARK  status: ('A' for Active; 'I' for Inactive)
ROOT
HETATM    1  C   UNL     1      -0.359   0.976  -0.263  1.00  0.00     0.078 C 
HETATM    2  C   UNL     1      -1.459   0.295   0.600  1.00  0.00    -0.042 C 
HETATM    3  C   UNL     1      -2.834   0.533   0.632  1.00  0.00     0.021 C 
HETATM    4  C   UNL     1      -3.650  -0.581   0.728  1.00  0.00    -0.010 C 
HETATM    5  C   UNL     1      -3.036  -1.825   0.528  1.00  0.00     0.027 C 
HETATM    6  C   UNL     1      -1.697  -2.073   0.800  1.00  0.00     0.029 C 
HETATM    7  C   UNL     1      -0.920  -0.943   1.022  1.00  0.00    -0.018 C 
HETATM    8  C   UNL     1       0.507  -0.854   0.895  1.00  0.00    -0.021 C 
HETATM    9  C   UNL     1       1.558  -1.353   1.626  1.00  0.00     0.003 C 
HETATM   10  C   UNL     1       2.787  -1.274   0.996  1.00  0.00     0.118 C 
HETATM   11  C   UNL     1       2.715  -1.356  -0.395  1.00  0.00    -0.031 C 
HETATM   12  C   UNL     1       1.825  -0.468  -1.013  1.00  0.00     0.017 C 
HETATM   13  C   UNL     1       0.765  -0.059  -0.218  1.00  0.00    -0.043 C 
HETATM   14  C   UNL     1       3.089  -2.789  -0.640  1.00  0.00    -0.015 A 
HETATM   15  C   UNL     1       2.342  -3.795  -1.256  1.00  0.00     0.013 A 
HETATM   16  C   UNL     1       2.450  -5.130  -0.779  1.00  0.00     0.001 A 
HETATM   17  C   UNL     1       3.316  -5.487   0.274  1.00  0.00     0.001 A 
HETATM   18  C   UNL     1       4.089  -4.517   0.885  1.00  0.00     0.016 A 
HETATM   19  C   UNL     1       3.916  -3.215   0.436  1.00  0.00     0.021 A 
HETATM   20  C   UNL     1       3.904  -2.125   1.415  1.00  0.00     0.172 C 
HETATM   21  O   UNL     1       4.602  -1.982   2.394  1.00  0.00    -0.291 OA
HETATM   22  C   UNL     1      -3.901  -2.515  -0.476  1.00  0.00     0.194 C 
HETATM   23  O   UNL     1      -3.619  -3.514  -1.102  1.00  0.00    -0.287 OA
HETATM   24  C   UNL     1      -5.127  -1.704  -0.629  1.00  0.00     0.026 C 
HETATM   25  C   UNL     1      -6.226  -1.861  -1.443  1.00  0.00     0.016 C 
HETATM   26  C   UNL     1      -7.371  -1.155  -1.077  1.00  0.00     0.001 C 
HETATM   27  C   UNL     1      -7.388  -0.401   0.112  1.00  0.00     0.001 C 
HETATM   28  C   UNL     1      -6.203  -0.148   0.817  1.00  0.00     0.013 C 
HETATM   29  C   UNL     1      -5.040  -0.704   0.333  1.00  0.00    -0.011 C 
ENDROOT
TORSDOF 0
