REMARK  12 active torsions:
REMARK  status: ('A' for Active; 'I' for Inactive)
REMARK    1  A    between atoms: C_1  and  C_2 
REMARK    2  A    between atoms: C_1  and  O_23 
REMARK    3  A    between atoms: C_3  and  O_22 
REMARK    4  A    between atoms: C_4  and  O_21 
REMARK    5  A    between atoms: C_5  and  O_20 
REMARK    6  A    between atoms: C_6  and  O_8 
REMARK    7  A    between atoms: O_8  and  C_9 
REMARK    8  A    between atoms: C_10  and  C_18 
REMARK    9  A    between atoms: C_12  and  O_17 
REMARK   10  A    between atoms: C_13  and  O_16 
REMARK   11  A    between atoms: C_14  and  O_15 
REMARK   12  A    between atoms: C_18  and  O_19 
ROOT
HETATM    1  O   UNL     1       1.719   3.937  -1.469  1.00  0.00    -0.348 OA
ENDROOT
BRANCH   1   2
HETATM    2  C   UNL     1       0.913   2.821  -1.048  1.00  0.00     0.292 C 
HETATM    3  C   UNL     1       0.540   3.019   0.437  1.00  0.00     0.204 C 
HETATM    4  C   UNL     1      -0.292   1.813   0.896  1.00  0.00     0.183 C 
HETATM    5  C   UNL     1       0.476   0.495   0.672  1.00  0.00     0.180 C 
HETATM    6  C   UNL     1       0.975   0.406  -0.782  1.00  0.00     0.179 C 
HETATM    7  O   UNL     1       1.655   1.615  -1.171  1.00  0.00    -0.348 OA
BRANCH   3   8
HETATM    8  O   UNL     1       1.738   3.092   1.244  1.00  0.00    -0.388 OA
HETATM    9  H   UNL     1       2.386   3.590   0.703  1.00  0.00     0.210 HD
ENDBRANCH   3   8
BRANCH   4  10
HETATM   10  O   UNL     1      -0.645   1.956   2.273  1.00  0.00    -0.390 OA
HETATM   11  H   UNL     1       0.204   1.984   2.759  1.00  0.00     0.210 HD
ENDBRANCH   4  10
BRANCH   5  12
HETATM   12  O   UNL     1       1.596   0.426   1.570  1.00  0.00    -0.390 OA
HETATM   13  H   UNL     1       2.084   1.274   1.489  1.00  0.00     0.210 HD
ENDBRANCH   5  12
BRANCH   6  14
HETATM   14  C   UNL     1      -0.152   0.053  -1.767  1.00  0.00     0.198 C 
BRANCH  14  15
HETATM   15  O   UNL     1       0.345   0.092  -3.104  1.00  0.00    -0.398 OA
HETATM   16  H   UNL     1      -0.350   0.470  -3.669  1.00  0.00     0.209 HD
ENDBRANCH  14  15
ENDBRANCH   6  14
ENDBRANCH   1   2
BRANCH   1  17
HETATM   17  C   UNL     1       1.903   4.002  -2.916  1.00  0.00     0.187 C 
HETATM   18  C   UNL     1       3.032   3.057  -3.389  1.00  0.00     0.180 C 
HETATM   19  O   UNL     1       4.317   3.464  -2.897  1.00  0.00    -0.349 OA
HETATM   20  C   UNL     1       4.692   4.812  -3.097  1.00  0.00     0.288 C 
HETATM   21  C   UNL     1       3.618   5.864  -2.746  1.00  0.00     0.204 C 
HETATM   22  C   UNL     1       2.235   5.459  -3.277  1.00  0.00     0.183 C 
BRANCH  18  23
HETATM   23  C   UNL     1       3.017   2.809  -4.910  1.00  0.00     0.198 C 
BRANCH  23  24
HETATM   24  O   UNL     1       3.139   4.017  -5.657  1.00  0.00    -0.398 OA
HETATM   25  H   UNL     1       2.358   4.084  -6.239  1.00  0.00     0.209 HD
ENDBRANCH  23  24
ENDBRANCH  18  23
BRANCH  20  26
HETATM   26  O   UNL     1       5.212   5.026  -4.404  1.00  0.00    -0.369 OA
HETATM   27  H   UNL     1       4.496   4.792  -5.030  1.00  0.00     0.212 HD
ENDBRANCH  20  26
BRANCH  21  28
HETATM   28  O   UNL     1       4.006   7.145  -3.257  1.00  0.00    -0.388 OA
HETATM   29  H   UNL     1       4.691   6.980  -3.940  1.00  0.00     0.210 HD
ENDBRANCH  21  28
BRANCH  22  30
HETATM   30  O   UNL     1       1.190   6.307  -2.767  1.00  0.00    -0.390 OA
HETATM   31  H   UNL     1       1.249   6.266  -1.798  1.00  0.00     0.210 HD
ENDBRANCH  22  30
ENDBRANCH   1  17
TORSDOF 12
