REMARK  8 active torsions:
REMARK  status: ('A' for Active; 'I' for Inactive)
REMARK    1  A    between atoms: C_2  and  O_4 
REMARK    2  A    between atoms: O_4  and  C_5 
REMARK    3  A    between atoms: C_5  and  C_6 
REMARK    4  A    between atoms: C_7  and  O_18 
REMARK    5  A    between atoms: C_8  and  O_17 
REMARK    6  A    between atoms: C_9  and  O_13 
REMARK    7  A    between atoms: C_10  and  O_12 
REMARK    8  A    between atoms: O_13  and  C_14 
ROOT
HETATM    1  C   UNL     1       5.234   1.842   1.603  1.00  0.00     0.180 C 
HETATM    2  C   UNL     1       4.862   3.241   1.070  1.00  0.00     0.180 C 
HETATM    3  C   UNL     1       5.498   3.462  -0.314  1.00  0.00     0.183 C 
HETATM    4  C   UNL     1       7.027   3.263  -0.260  1.00  0.00     0.218 C 
HETATM    5  C   UNL     1       7.277   1.849   0.306  1.00  0.00     0.289 C 
HETATM    6  O   UNL     1       6.666   1.673   1.585  1.00  0.00    -0.349 OA
ENDROOT
BRANCH   1   7
HETATM    7  C   UNL     1       4.515   0.689   0.879  1.00  0.00     0.213 C 
BRANCH   7   8
HETATM    8  O   UNL     1       3.089   0.800   0.970  1.00  0.00    -0.319 OA
BRANCH   8   9
HETATM    9  C   UNL     1       2.540   0.285   2.105  1.00  0.00     0.254 C 
HETATM   10  C   UNL     1       1.049   0.381   2.052  1.00  0.00     0.126 C 
HETATM   11  O   UNL     1       3.171  -0.195   3.038  1.00  0.00    -0.266 OA
ENDBRANCH   8   9
ENDBRANCH   7   8
ENDBRANCH   1   7
BRANCH   2  12
HETATM   12  O   UNL     1       5.343   4.243   1.987  1.00  0.00    -0.390 OA
HETATM   13  H   UNL     1       6.223   3.948   2.296  1.00  0.00     0.210 HD
ENDBRANCH   2  12
BRANCH   3  14
HETATM   14  O   UNL     1       5.100   4.716  -0.860  1.00  0.00    -0.390 OA
HETATM   15  H   UNL     1       5.567   5.426  -0.384  1.00  0.00     0.210 HD
ENDBRANCH   3  14
BRANCH   5  16
HETATM   16  O   UNL     1       8.666   1.607   0.459  1.00  0.00    -0.368 OA
HETATM   17  H   UNL     1       8.995   2.344   1.001  1.00  0.00     0.212 HD
ENDBRANCH   5  16
BRANCH   4  18
HETATM   18  O   UNL     1       7.680   4.196   0.653  1.00  0.00    -0.309 OA
BRANCH  18  19
HETATM   19  C   UNL     1       7.966   5.431   0.167  1.00  0.00     0.255 C 
HETATM   20  O   UNL     1       7.704   5.818  -0.960  1.00  0.00    -0.266 OA
HETATM   21  C   UNL     1       8.563   6.300   1.231  1.00  0.00     0.126 C 
ENDBRANCH  18  19
ENDBRANCH   4  18
TORSDOF 8
