REMARK  21 active torsions:
REMARK  status: ('A' for Active; 'I' for Inactive)
REMARK    1  A    between atoms: C_2  and  C_3 
REMARK    2  A    between atoms: C_3  and  C_4 
REMARK    3  A    between atoms: C_4  and  C_5 
REMARK    4  A    between atoms: C_5  and  C_6 
REMARK    5  A    between atoms: C_6  and  C_7 
REMARK    6  A    between atoms: C_7  and  C_8 
REMARK    7  A    between atoms: C_8  and  C_9 
REMARK    8  A    between atoms: C_9  and  C_10 
REMARK    9  A    between atoms: C_10  and  C_11 
REMARK   10  A    between atoms: C_11  and  C_12 
REMARK   11  A    between atoms: C_12  and  C_13 
REMARK   12  A    between atoms: C_13  and  C_14 
REMARK   13  A    between atoms: C_14  and  C_15 
REMARK   14  A    between atoms: C_15  and  C_16 
REMARK   15  A    between atoms: C_16  and  O_17 
REMARK   16  A    between atoms: O_17  and  C_18 
REMARK   17  A    between atoms: C_18  and  C_20 
REMARK   18  A    between atoms: C_20  and  C_21 
REMARK   19  A    between atoms: C_20  and  C_23 
REMARK   20  A    between atoms: C_23  and  C_24 
REMARK   21  A    between atoms: C_24  and  C_25 
ROOT
HETATM    1  C   UNL     1      13.111   6.914  -5.219  1.00  0.00     0.000 C 
ENDROOT
BRANCH   1   2
HETATM    2  C   UNL     1      12.589   5.771  -4.361  1.00  0.00     0.000 C 
BRANCH   2   3
HETATM    3  C   UNL     1      11.075   5.762  -4.359  1.00  0.00     0.000 C 
BRANCH   3   4
HETATM    4  C   UNL     1      10.566   4.614  -3.508  1.00  0.00     0.000 C 
BRANCH   4   5
HETATM    5  C   UNL     1       9.049   4.608  -3.504  1.00  0.00     0.000 C 
BRANCH   5   6
HETATM    6  C   UNL     1       8.539   3.462  -2.652  1.00  0.00     0.000 C 
BRANCH   6   7
HETATM    7  C   UNL     1       7.022   3.458  -2.649  1.00  0.00     0.000 C 
BRANCH   7   8
HETATM    8  C   UNL     1       6.511   2.311  -1.797  1.00  0.00     0.000 C 
BRANCH   8   9
HETATM    9  C   UNL     1       4.993   2.306  -1.794  1.00  0.00     0.000 C 
BRANCH   9  10
HETATM   10  C   UNL     1       4.483   1.157  -0.943  1.00  0.00     0.000 C 
BRANCH  10  11
HETATM   11  C   UNL     1       2.963   1.151  -0.938  1.00  0.00    -0.000 C 
BRANCH  11  12
HETATM   12  C   UNL     1       2.441   0.003  -0.088  1.00  0.00    -0.005 C 
HETATM   13  C   UNL     1       0.926   0.001  -0.089  1.00  0.00     0.005 C 
ENDBRANCH  11  12
ENDBRANCH  10  11
ENDBRANCH   9  10
ENDBRANCH   8   9
ENDBRANCH   7   8
ENDBRANCH   6   7
ENDBRANCH   5   6
ENDBRANCH   4   5
ENDBRANCH   3   4
ENDBRANCH   2   3
ENDBRANCH   1   2
BRANCH   1  14
HETATM   14  C   UNL     1      14.632   6.926  -5.225  1.00  0.00     0.002 C 
BRANCH  14  15
HETATM   15  C   UNL     1      15.189   5.622  -5.792  1.00  0.00     0.027 C 
BRANCH  15  16
HETATM   16  C   UNL     1      16.710   5.641  -5.807  1.00  0.00     0.178 C 
BRANCH  16  17
HETATM   17  O   UNL     1      17.191   6.739  -6.609  1.00  0.00    -0.321 OA
BRANCH  17  18
HETATM   18  C   UNL     1      17.181   6.497  -7.949  1.00  0.00     0.263 C 
HETATM   19  O   UNL     1      16.803   5.427  -8.454  1.00  0.00    -0.265 OA
BRANCH  18  20
HETATM   20  C   UNL     1      17.670   7.684  -8.772  1.00  0.00     0.085 C 
BRANCH  20  21
HETATM   21  C   UNL     1      19.191   7.631  -9.006  1.00  0.00     0.010 C 
HETATM   22  C   UNL     1      19.984   7.637  -7.714  1.00  0.00     0.006 C 
ENDBRANCH  20  21
BRANCH  20  23
HETATM   23  C   UNL     1      16.956   7.695 -10.140  1.00  0.00     0.014 C 
BRANCH  23  24
HETATM   24  C   UNL     1      15.438   7.824 -10.008  1.00  0.00     0.000 C 
BRANCH  24  25
HETATM   25  C   UNL     1      14.762   7.825 -11.374  1.00  0.00    -0.005 C 
HETATM   26  C   UNL     1      13.258   7.951 -11.203  1.00  0.00     0.005 C 
ENDBRANCH  24  25
ENDBRANCH  23  24
ENDBRANCH  20  23
ENDBRANCH  18  20
ENDBRANCH  17  18
ENDBRANCH  16  17
ENDBRANCH  15  16
ENDBRANCH  14  15
ENDBRANCH   1  14
TORSDOF 21
