REMARK  18 active torsions:
REMARK  status: ('A' for Active; 'I' for Inactive)
REMARK    1  A    between atoms: C_2  and  C_3 
REMARK    2  A    between atoms: C_3  and  C_4 
REMARK    3  A    between atoms: C_4  and  C_5 
REMARK    4  A    between atoms: C_5  and  C_6 
REMARK    5  A    between atoms: C_6  and  C_7 
REMARK    6  A    between atoms: C_7  and  C_8 
REMARK    7  A    between atoms: C_8  and  C_9 
REMARK    8  A    between atoms: C_9  and  C_10 
REMARK    9  A    between atoms: C_10  and  C_11 
REMARK   10  A    between atoms: C_11  and  C_12 
REMARK   11  A    between atoms: C_12  and  C_13 
REMARK   12  A    between atoms: C_13  and  C_14 
REMARK   13  A    between atoms: C_14  and  C_15 
REMARK   14  A    between atoms: C_15  and  C_16 
REMARK   15  A    between atoms: C_16  and  O_17 
REMARK   16  A    between atoms: O_17  and  C_18 
REMARK   17  A    between atoms: C_18  and  C_20 
REMARK   18  A    between atoms: C_20  and  O_22 
ROOT
HETATM    1  C   UNL     1      12.756   5.433   4.719  1.00  0.00     0.000 C 
ENDROOT
BRANCH   1   2
HETATM    2  C   UNL     1      11.236   5.423   4.703  1.00  0.00     0.000 C 
BRANCH   2   3
HETATM    3  C   UNL     1      10.719   4.349   3.755  1.00  0.00     0.000 C 
BRANCH   3   4
HETATM    4  C   UNL     1       9.196   4.339   3.745  1.00  0.00     0.000 C 
BRANCH   4   5
HETATM    5  C   UNL     1       8.676   3.265   2.800  1.00  0.00     0.000 C 
BRANCH   5   6
HETATM    6  C   UNL     1       7.154   3.256   2.788  1.00  0.00     0.000 C 
BRANCH   6   7
HETATM    7  C   UNL     1       6.635   2.180   1.845  1.00  0.00     0.000 C 
BRANCH   7   8
HETATM    8  C   UNL     1       5.113   2.169   1.833  1.00  0.00     0.000 C 
BRANCH   8   9
HETATM    9  C   UNL     1       4.590   1.094   0.888  1.00  0.00     0.000 C 
BRANCH   9  10
HETATM   10  C   UNL     1       3.066   1.084   0.876  1.00  0.00    -0.000 C 
BRANCH  10  11
HETATM   11  C   UNL     1       2.535   0.010  -0.066  1.00  0.00    -0.005 C 
HETATM   12  C   UNL     1       1.016   0.002  -0.080  1.00  0.00     0.005 C 
ENDBRANCH  10  11
ENDBRANCH   9  10
ENDBRANCH   8   9
ENDBRANCH   7   8
ENDBRANCH   6   7
ENDBRANCH   5   6
ENDBRANCH   4   5
ENDBRANCH   3   4
ENDBRANCH   2   3
ENDBRANCH   1   2
BRANCH   1  13
HETATM   13  C   UNL     1      13.283   6.510   5.662  1.00  0.00     0.000 C 
BRANCH  13  14
HETATM   14  C   UNL     1      14.808   6.524   5.679  1.00  0.00     0.002 C 
BRANCH  14  15
HETATM   15  C   UNL     1      15.377   6.810   4.295  1.00  0.00     0.027 C 
BRANCH  15  16
HETATM   16  C   UNL     1      16.895   6.823   4.323  1.00  0.00     0.178 C 
BRANCH  16  17
HETATM   17  O   UNL     1      17.395   7.096   3.008  1.00  0.00    -0.319 OA
BRANCH  17  18
HETATM   18  C   UNL     1      17.362   8.410   2.665  1.00  0.00     0.287 C 
HETATM   19  O   UNL     1      16.959   9.322   3.391  1.00  0.00    -0.262 OA
BRANCH  18  20
HETATM   20  C   UNL     1      17.870   8.631   1.244  1.00  0.00     0.213 C 
HETATM   21  C   UNL     1      17.019   7.878   0.237  1.00  0.00     0.050 C 
BRANCH  20  22
HETATM   22  O   UNL     1      17.857  10.013   0.885  1.00  0.00    -0.386 OA
HETATM   23  H   UNL     1      17.031  10.388   1.247  1.00  0.00     0.210 HD
ENDBRANCH  20  22
ENDBRANCH  18  20
ENDBRANCH  17  18
ENDBRANCH  16  17
ENDBRANCH  15  16
ENDBRANCH  14  15
ENDBRANCH  13  14
ENDBRANCH   1  13
TORSDOF 18
