REMARK  17 active torsions:
REMARK  status: ('A' for Active; 'I' for Inactive)
REMARK    1  A    between atoms: C_2  and  C_3 
REMARK    2  A    between atoms: C_3  and  C_4 
REMARK    3  A    between atoms: C_4  and  C_5 
REMARK    4  A    between atoms: C_5  and  C_6 
REMARK    5  A    between atoms: C_6  and  C_7 
REMARK    6  A    between atoms: C_7  and  C_8 
REMARK    7  A    between atoms: C_8  and  C_9 
REMARK    8  A    between atoms: C_9  and  C_10 
REMARK    9  A    between atoms: C_10  and  C_11 
REMARK   10  A    between atoms: C_11  and  C_12 
REMARK   11  A    between atoms: C_12  and  C_13 
REMARK   12  A    between atoms: C_13  and  C_14 
REMARK   13  A    between atoms: C_14  and  C_15 
REMARK   14  A    between atoms: C_15  and  C_16 
REMARK   15  A    between atoms: C_16  and  N_17 
REMARK   16  A    between atoms: N_17  and  C_20 
REMARK   17  A    between atoms: C_20  and  C_21 
ROOT
HETATM    1  C   UNL     1      12.614   2.860   6.547  1.00  0.00     0.000 C 
ENDROOT
BRANCH   1   2
HETATM    2  C   UNL     1      11.094   2.855   6.542  1.00  0.00     0.000 C 
BRANCH   2   3
HETATM    3  C   UNL     1      10.597   2.286   5.221  1.00  0.00     0.000 C 
BRANCH   3   4
HETATM    4  C   UNL     1       9.078   2.286   5.183  1.00  0.00     0.000 C 
BRANCH   4   5
HETATM    5  C   UNL     1       8.583   1.692   3.873  1.00  0.00     0.000 C 
BRANCH   5   6
HETATM    6  C   UNL     1       7.064   1.684   3.852  1.00  0.00     0.000 C 
BRANCH   6   7
HETATM    7  C   UNL     1       6.552   1.086   2.552  1.00  0.00     0.000 C 
BRANCH   7   8
HETATM    8  C   UNL     1       5.030   1.080   2.542  1.00  0.00     0.000 C 
BRANCH   8   9
HETATM    9  C   UNL     1       4.506   0.480   1.245  1.00  0.00     0.000 C 
BRANCH   9  10
HETATM   10  C   UNL     1       2.982   0.475   1.235  1.00  0.00    -0.000 C 
BRANCH  10  11
HETATM   11  C   UNL     1       2.448  -0.126  -0.059  1.00  0.00    -0.005 C 
HETATM   12  C   UNL     1       0.930  -0.128  -0.071  1.00  0.00     0.005 C 
ENDBRANCH  10  11
ENDBRANCH   9  10
ENDBRANCH   8   9
ENDBRANCH   7   8
ENDBRANCH   6   7
ENDBRANCH   5   6
ENDBRANCH   4   5
ENDBRANCH   3   4
ENDBRANCH   2   3
ENDBRANCH   1   2
BRANCH   1  13
HETATM   13  C   UNL     1      13.165   3.423   7.851  1.00  0.00     0.000 C 
BRANCH  13  14
HETATM   14  C   UNL     1      14.690   3.524   7.832  1.00  0.00     0.002 C 
BRANCH  14  15
HETATM   15  C   UNL     1      15.265   4.354   6.677  1.00  0.00     0.028 C 
BRANCH  15  16
HETATM   16  C   UNL     1      14.723   5.788   6.634  1.00  0.00     0.237 C 
BRANCH  16  17
HETATM   17  N   UNL     1      15.230   6.564   5.407  1.00  0.00    -0.065 N 
HETATM   18  C   UNL     1      16.727   6.574   5.293  1.00  0.00     0.272 C 
HETATM   19  C   UNL     1      14.571   6.048   4.131  1.00  0.00     0.272 C 
BRANCH  17  20
HETATM   20  C   UNL     1      14.738   8.075   5.586  1.00  0.00     0.349 C 
BRANCH  20  21
HETATM   21  C   UNL     1      13.205   8.307   5.649  1.00  0.00     0.199 C 
HETATM   22  O   UNL     1      12.717   8.233   6.812  1.00  0.00    -0.647 OA
HETATM   23  O   UNL     1      12.649   8.400   4.520  1.00  0.00    -0.647 OA
ENDBRANCH  20  21
ENDBRANCH  17  20
ENDBRANCH  16  17
ENDBRANCH  15  16
ENDBRANCH  14  15
ENDBRANCH  13  14
ENDBRANCH   1  13
TORSDOF 17
