REMARK  26 active torsions:
REMARK  status: ('A' for Active; 'I' for Inactive)
REMARK    1  A    between atoms: C_2  and  C_3 
REMARK    2  A    between atoms: C_3  and  C_4 
REMARK    3  A    between atoms: C_4  and  C_5 
REMARK    4  A    between atoms: C_5  and  C_6 
REMARK    5  A    between atoms: C_6  and  C_7 
REMARK    6  A    between atoms: C_7  and  C_8 
REMARK    7  A    between atoms: C_8  and  C_9 
REMARK    8  A    between atoms: C_9  and  C_10 
REMARK    9  A    between atoms: C_10  and  C_11 
REMARK   10  A    between atoms: C_11  and  C_12 
REMARK   11  A    between atoms: C_12  and  C_13 
REMARK   12  A    between atoms: C_13  and  C_14 
REMARK   13  A    between atoms: C_14  and  C_15 
REMARK   14  A    between atoms: C_15  and  C_16 
REMARK   15  A    between atoms: C_16  and  O_17 
REMARK   16  A    between atoms: O_17  and  C_18 
REMARK   17  A    between atoms: C_18  and  C_20 
REMARK   18  A    between atoms: C_20  and  C_21 
REMARK   19  A    between atoms: C_21  and  C_22 
REMARK   20  A    between atoms: C_22  and  C_23 
REMARK   21  A    between atoms: C_23  and  C_24 
REMARK   22  A    between atoms: C_24  and  C_25 
REMARK   23  A    between atoms: C_25  and  C_26 
REMARK   24  A    between atoms: C_26  and  C_27 
REMARK   25  A    between atoms: C_27  and  C_28 
REMARK   26  A    between atoms: C_28  and  C_29 
ROOT
HETATM    1  C   UNL     1      15.159   4.171   9.117  1.00  0.00     0.027 C 
ENDROOT
BRANCH   1   2
HETATM    2  C   UNL     1      14.638   3.570   7.820  1.00  0.00     0.002 C 
BRANCH   2   3
HETATM    3  C   UNL     1      13.115   3.562   7.808  1.00  0.00     0.000 C 
BRANCH   3   4
HETATM    4  C   UNL     1      12.597   2.954   6.512  1.00  0.00     0.000 C 
BRANCH   4   5
HETATM    5  C   UNL     1      11.077   2.950   6.503  1.00  0.00     0.000 C 
BRANCH   5   6
HETATM    6  C   UNL     1      10.563   2.344   5.208  1.00  0.00     0.000 C 
BRANCH   6   7
HETATM    7  C   UNL     1       9.044   2.341   5.201  1.00  0.00     0.000 C 
BRANCH   7   8
HETATM    8  C   UNL     1       8.531   1.735   3.907  1.00  0.00     0.000 C 
BRANCH   8   9
HETATM    9  C   UNL     1       7.013   1.733   3.899  1.00  0.00     0.000 C 
BRANCH   9  10
HETATM   10  C   UNL     1       6.499   1.128   2.604  1.00  0.00     0.000 C 
BRANCH  10  11
HETATM   11  C   UNL     1       4.980   1.122   2.596  1.00  0.00     0.000 C 
BRANCH  11  12
HETATM   12  C   UNL     1       4.465   0.515   1.300  1.00  0.00     0.000 C 
BRANCH  12  13
HETATM   13  C   UNL     1       2.944   0.508   1.291  1.00  0.00    -0.000 C 
BRANCH  13  14
HETATM   14  C   UNL     1       2.416  -0.098  -0.003  1.00  0.00    -0.005 C 
HETATM   15  C   UNL     1       0.903  -0.102  -0.011  1.00  0.00     0.005 C 
ENDBRANCH  13  14
ENDBRANCH  12  13
ENDBRANCH  11  12
ENDBRANCH  10  11
ENDBRANCH   9  10
ENDBRANCH   8   9
ENDBRANCH   7   8
ENDBRANCH   6   7
ENDBRANCH   5   6
ENDBRANCH   4   5
ENDBRANCH   3   4
ENDBRANCH   2   3
ENDBRANCH   1   2
BRANCH   1  16
HETATM   16  C   UNL     1      16.684   4.160   9.151  1.00  0.00     0.178 C 
BRANCH  16  17
HETATM   17  O   UNL     1      17.158   4.712  10.390  1.00  0.00    -0.321 OA
BRANCH  17  18
HETATM   18  C   UNL     1      17.159   3.850  11.439  1.00  0.00     0.258 C 
HETATM   19  O   UNL     1      16.830   2.670  11.389  1.00  0.00    -0.265 OA
BRANCH  18  20
HETATM   20  C   UNL     1      17.623   4.527  12.700  1.00  0.00     0.111 C 
BRANCH  20  21
HETATM   21  C   UNL     1      16.761   5.724  13.080  1.00  0.00     0.010 C 
BRANCH  21  22
HETATM   22  C   UNL     1      15.301   5.336  13.306  1.00  0.00     0.000 C 
BRANCH  22  23
HETATM   23  C   UNL     1      14.472   6.558  13.679  1.00  0.00     0.000 C 
BRANCH  23  24
HETATM   24  C   UNL     1      13.014   6.170  13.881  1.00  0.00     0.000 C 
BRANCH  24  25
HETATM   25  C   UNL     1      12.187   7.392  14.247  1.00  0.00     0.000 C 
BRANCH  25  26
HETATM   26  C   UNL     1      10.731   7.004  14.451  1.00  0.00     0.000 C 
BRANCH  26  27
HETATM   27  C   UNL     1       9.903   8.226  14.818  1.00  0.00     0.000 C 
BRANCH  27  28
HETATM   28  C   UNL     1       8.446   7.837  15.024  1.00  0.00    -0.000 C 
BRANCH  28  29
HETATM   29  C   UNL     1       7.608   9.054  15.391  1.00  0.00    -0.005 C 
HETATM   30  C   UNL     1       6.156   8.663  15.596  1.00  0.00     0.005 C 
ENDBRANCH  28  29
ENDBRANCH  27  28
ENDBRANCH  26  27
ENDBRANCH  25  26
ENDBRANCH  24  25
ENDBRANCH  23  24
ENDBRANCH  22  23
ENDBRANCH  21  22
ENDBRANCH  20  21
ENDBRANCH  18  20
ENDBRANCH  17  18
ENDBRANCH  16  17
ENDBRANCH   1  16
TORSDOF 26
