REMARK  18 active torsions:
REMARK  status: ('A' for Active; 'I' for Inactive)
REMARK    1  A    between atoms: C_2  and  C_3 
REMARK    2  A    between atoms: C_3  and  C_4 
REMARK    3  A    between atoms: C_4  and  C_5 
REMARK    4  A    between atoms: C_5  and  C_6 
REMARK    5  A    between atoms: C_6  and  C_7 
REMARK    6  A    between atoms: C_7  and  C_8 
REMARK    7  A    between atoms: C_8  and  C_9 
REMARK    8  A    between atoms: C_9  and  C_10 
REMARK    9  A    between atoms: C_10  and  C_11 
REMARK   10  A    between atoms: C_11  and  C_12 
REMARK   11  A    between atoms: C_12  and  C_13 
REMARK   12  A    between atoms: C_13  and  C_14 
REMARK   13  A    between atoms: C_14  and  C_15 
REMARK   14  A    between atoms: C_15  and  C_16 
REMARK   15  A    between atoms: C_16  and  SI_17 
REMARK   16  A    between atoms: SI_17  and  O_19 
REMARK   17  A    between atoms: SI_17  and  O_21 
REMARK   18  A    between atoms: O_21  and  SI_22 
ROOT
HETATM    1  C   UNL     1      13.311   2.597  -7.992  1.00  0.00     0.000 C 
ENDROOT
BRANCH   1   2
HETATM    2  C   UNL     1      12.741   2.186  -6.648  1.00  0.00     0.000 C 
BRANCH   2   3
HETATM    3  C   UNL     1      11.218   2.213  -6.699  1.00  0.00     0.000 C 
BRANCH   3   4
HETATM    4  C   UNL     1      10.647   1.807  -5.350  1.00  0.00     0.000 C 
BRANCH   4   5
HETATM    5  C   UNL     1       9.126   1.824  -5.372  1.00  0.00     0.000 C 
BRANCH   5   6
HETATM    6  C   UNL     1       8.588   1.414  -4.011  1.00  0.00     0.000 C 
BRANCH   6   7
HETATM    7  C   UNL     1       7.067   1.426  -4.000  1.00  0.00     0.000 C 
BRANCH   7   8
HETATM    8  C   UNL     1       6.549   1.015  -2.628  1.00  0.00     0.000 C 
BRANCH   8   9
HETATM    9  C   UNL     1       5.026   1.021  -2.606  1.00  0.00     0.000 C 
BRANCH   9  10
HETATM   10  C   UNL     1       4.506   0.611  -1.233  1.00  0.00     0.000 C 
BRANCH  10  11
HETATM   11  C   UNL     1       2.981   0.616  -1.214  1.00  0.00    -0.000 C 
BRANCH  11  12
HETATM   12  C   UNL     1       2.446   0.207   0.154  1.00  0.00    -0.005 C 
HETATM   13  C   UNL     1       0.929   0.216   0.171  1.00  0.00     0.005 C 
ENDBRANCH  11  12
ENDBRANCH  10  11
ENDBRANCH   9  10
ENDBRANCH   8   9
ENDBRANCH   7   8
ENDBRANCH   6   7
ENDBRANCH   5   6
ENDBRANCH   4   5
ENDBRANCH   3   4
ENDBRANCH   2   3
ENDBRANCH   1   2
BRANCH   1  14
HETATM   14  C   UNL     1      14.838   2.587  -7.991  1.00  0.00     0.000 C 
BRANCH  14  15
HETATM   15  C   UNL     1      15.307   3.004  -9.374  1.00  0.00     0.000 C 
BRANCH  15  16
HETATM   16  C   UNL     1      16.828   3.009  -9.552  1.00  0.00     0.000 C 
BRANCH  16  17
HETATM   17 SI   UNL     1      17.261   3.574 -11.346  1.00  0.00     0.000 Si
HETATM   18  C   UNL     1      16.456   2.296 -12.485  1.00  0.00     0.000 C 
BRANCH  17  19
HETATM   19  O   UNL     1      16.582   5.093 -11.591  1.00  0.00    -0.247 OA
HETATM   20  C   UNL     1      17.006   6.186 -10.786  1.00  0.00     0.247 C 
ENDBRANCH  17  19
BRANCH  17  21
HETATM   21  O   UNL     1      18.907   3.638 -11.660  1.00  0.00     0.000 OA
BRANCH  21  22
HETATM   22 SI   UNL     1      19.874   4.046 -12.978  1.00  0.00     0.000 Si
HETATM   23  C   UNL     1      19.509   5.817 -13.505  1.00  0.00     0.000 C 
HETATM   24  C   UNL     1      21.689   3.893 -12.555  1.00  0.00     0.000 C 
HETATM   25  C   UNL     1      19.502   2.933 -14.450  1.00  0.00     0.000 C 
ENDBRANCH  21  22
ENDBRANCH  17  21
ENDBRANCH  16  17
ENDBRANCH  15  16
ENDBRANCH  14  15
ENDBRANCH   1  14
TORSDOF 18
