REMARK  6 active torsions:
REMARK  status: ('A' for Active; 'I' for Inactive)
REMARK    1  A    between atoms: C_6  and  O_7 
REMARK    2  A    between atoms: O_7  and  C_8 
REMARK    3  A    between atoms: C_8  and  C_9 
REMARK    4  A    between atoms: C_9  and  C_10 
REMARK    5  A    between atoms: C_9  and  O_12 
REMARK    6  A    between atoms: C_10  and  O_11 
ROOT
HETATM    1  O   UNL     1       3.789  -0.007   0.148  1.00  0.00    -0.349 OA
ENDROOT
BRANCH   1   2
HETATM    2  C   UNL     1       2.426   0.101   0.114  1.00  0.00     0.069 A 
HETATM    3  C   UNL     1       1.714   1.083  -0.578  1.00  0.00     0.038 A 
HETATM    4  C   UNL     1       0.314   1.075  -0.564  1.00  0.00     0.026 A 
HETATM    5  C   UNL     1      -0.370   0.084   0.138  1.00  0.00     0.034 A 
HETATM    6  C   UNL     1       0.333  -0.907   0.817  1.00  0.00     0.026 A 
HETATM    7 CL   UNL     1      -2.089   0.082   0.155  1.00  0.00    -0.084 Cl
HETATM    8  C   UNL     1       1.730  -0.902   0.795  1.00  0.00     0.038 A 
ENDBRANCH   1   2
BRANCH   1   9
HETATM    9  C   UNL     1       4.513   1.227   0.042  1.00  0.00     0.209 C 
BRANCH   9  10
HETATM   10  C   UNL     1       6.009   0.938   0.199  1.00  0.00     0.166 C 
BRANCH  10  11
HETATM   11  C   UNL     1       6.359   0.257   1.524  1.00  0.00     0.198 C 
BRANCH  11  12
HETATM   12  O   UNL     1       7.772   0.059   1.588  1.00  0.00    -0.398 OA
HETATM   13  H   UNL     1       8.041  -0.225   0.691  1.00  0.00     0.209 HD
ENDBRANCH  11  12
ENDBRANCH  10  11
BRANCH  10  14
HETATM   14  O   UNL     1       6.458   0.078  -0.866  1.00  0.00    -0.391 OA
HETATM   15  H   UNL     1       5.822  -0.664  -0.905  1.00  0.00     0.210 HD
ENDBRANCH  10  14
ENDBRANCH   9  10
ENDBRANCH   1   9
TORSDOF 6
