REMARK  11 active torsions:
REMARK  status: ('A' for Active; 'I' for Inactive)
REMARK    1  A    between atoms: C_2  and  C_4 
REMARK    2  A    between atoms: C_4  and  C_5 
REMARK    3  A    between atoms: C_5  and  C_6 
REMARK    4  A    between atoms: C_6  and  C_7 
REMARK    5  A    between atoms: C_7  and  C_9 
REMARK    6  A    between atoms: C_24  and  O_26 
REMARK    7  A    between atoms: O_26  and  C_27 
REMARK    8  A    between atoms: C_27  and  C_29 
REMARK    9  A    between atoms: C_29  and  C_30 
REMARK   10  A    between atoms: C_30  and  C_31 
REMARK   11  A    between atoms: C_31  and  O_33 
ROOT
HETATM    1  C   UNL     1       4.957   6.974   4.899  1.00  0.00    -0.002 C 
HETATM    2  C   UNL     1       5.152   5.729   6.039  1.00  0.00     0.006 C 
HETATM    3  C   UNL     1       3.681   5.395   6.511  1.00  0.00     0.006 C 
HETATM    4  C   UNL     1       2.836   6.226   5.526  1.00  0.00    -0.001 C 
HETATM    5  C   UNL     1       3.602   7.567   5.527  1.00  0.00    -0.036 C 
HETATM    6  C   UNL     1       2.699   8.557   4.806  1.00  0.00     0.010 C 
HETATM    7  C   UNL     1       3.235   8.739   3.443  1.00  0.00     0.007 C 
HETATM    8  C   UNL     1       3.205   7.341   2.796  1.00  0.00     0.003 C 
HETATM    9  C   UNL     1       3.070   5.760   4.024  1.00  0.00    -0.001 C 
HETATM   10  C   UNL     1       4.066   4.159   3.385  1.00  0.00     0.033 C 
HETATM   11  C   UNL     1       5.215   4.382   1.869  1.00  0.00    -0.023 C 
HETATM   12  C   UNL     1       5.281   5.551   0.946  1.00  0.00    -0.072 C 
HETATM   13  C   UNL     1       4.341   7.239   1.155  1.00  0.00    -0.017 C 
HETATM   14  C   UNL     1       3.628   7.348  -0.306  1.00  0.00     0.016 C 
HETATM   15  C   UNL     1       4.637   7.042  -1.442  1.00  0.00     0.034 C 
HETATM   16  C   UNL     1       4.976   5.560  -1.525  1.00  0.00     0.136 C 
HETATM   17  C   UNL     1       5.958   5.238  -0.404  1.00  0.00     0.067 C 
HETATM   18  C   UNL     1       4.940   8.742   1.062  1.00  0.00     0.020 C 
HETATM   19  C   UNL     1       3.962   8.247   6.866  1.00  0.00     0.016 C 
ENDROOT
BRANCH  16  20
HETATM   20  O   UNL     1       5.358   5.211  -2.858  1.00  0.00    -0.316 OA
BRANCH  20  21
HETATM   21  C   UNL     1       4.240   5.077  -3.661  1.00  0.00     0.259 C 
HETATM   22  O   UNL     1       3.064   5.122  -3.307  1.00  0.00    -0.265 OA
BRANCH  21  23
HETATM   23  C   UNL     1       4.621   4.985  -5.107  1.00  0.00     0.121 C 
BRANCH  23  24
HETATM   24  C   UNL     1       3.606   5.745  -5.948  1.00  0.00     0.119 C 
BRANCH  24  25
HETATM   25  C   UNL     1       3.543   7.199  -5.545  1.00  0.00     0.139 C 
HETATM   26  O   UNL     1       4.259   8.060  -6.032  1.00  0.00    -0.650 OA
BRANCH  25  27
HETATM   27  O   UNL     1       2.659   7.465  -4.558  1.00  0.00    -0.776 OA
HETATM   28  H   UNL     1       2.253   6.665  -4.149  1.00  0.00     0.167 HD
ENDBRANCH  25  27
ENDBRANCH  24  25
ENDBRANCH  23  24
ENDBRANCH  21  23
ENDBRANCH  20  21
ENDBRANCH  16  20
BRANCH   1  29
HETATM   29  C   UNL     1       4.970   6.257   3.119  1.00  0.00    -0.014 C 
HETATM   30  C   UNL     1       6.432   7.015   2.688  1.00  0.00     0.010 C 
BRANCH  29  31
HETATM   31  C   UNL     1       3.319   5.486   1.974  1.00  0.00     0.005 C 
BRANCH  31  32
HETATM   32  C   UNL     1       2.856   4.320   0.833  1.00  0.00     0.001 C 
BRANCH  32  33
HETATM   33  C   UNL     1       3.123   2.821   0.858  1.00  0.00     0.004 C 
BRANCH  33  34
HETATM   34  C   UNL     1       2.639   2.096  -0.402  1.00  0.00    -0.023 C 
HETATM   35  C   UNL     1       3.045   0.631  -0.255  1.00  0.00     0.009 C 
HETATM   36  C   UNL     1       1.132   2.233  -0.598  1.00  0.00     0.009 C 
ENDBRANCH  33  34
ENDBRANCH  32  33
ENDBRANCH  31  32
ENDBRANCH  29  31
ENDBRANCH   1  29
TORSDOF 11
