REMARK  3 active torsions:
REMARK  status: ('A' for Active; 'I' for Inactive)
REMARK    1  A    between atoms: C_4  and  C_7 
REMARK    2  A    between atoms: C_12  and  O_19 
REMARK    3  A    between atoms: C_14  and  O_18 
ROOT
HETATM    1  C   UNL     1      -2.843   0.254  -0.914  1.00  0.00     0.090 A 
HETATM    2  C   UNL     1      -3.191   1.078  -1.915  1.00  0.00     0.094 A 
HETATM    3  C   UNL     1      -4.614   1.336  -2.168  1.00  0.00     0.190 A 
HETATM    4  O   UNL     1      -4.978   2.094  -3.061  1.00  0.00    -0.287 OA
HETATM    5  C   UNL     1      -5.578   0.689  -1.277  1.00  0.00     0.081 A 
HETATM    6  C   UNL     1      -6.947   0.967  -1.356  1.00  0.00     0.085 A 
HETATM    7  C   UNL     1      -7.841   0.331  -0.501  1.00  0.00     0.074 A 
HETATM    8  C   UNL     1      -7.355  -0.594   0.420  1.00  0.00     0.071 A 
HETATM    9  C   UNL     1      -5.993  -0.873   0.512  1.00  0.00     0.075 A 
HETATM   10  C   UNL     1      -5.098  -0.212  -0.328  1.00  0.00     0.095 A 
HETATM   11  O   UNL     1      -3.759  -0.466  -0.155  1.00  0.00    -0.309 OA
ENDROOT
BRANCH   1  12
HETATM   12  C   UNL     1      -1.428   0.071  -0.514  1.00  0.00    -0.002 A 
HETATM   13  C   UNL     1      -0.495   1.116  -0.645  1.00  0.00     0.014 A 
HETATM   14  C   UNL     1       0.825   0.968  -0.211  1.00  0.00     0.001 A 
HETATM   15  C   UNL     1       1.234  -0.224   0.376  1.00  0.00     0.000 A 
HETATM   16  C   UNL     1       0.325  -1.270   0.522  1.00  0.00     0.001 A 
HETATM   17  C   UNL     1      -0.995  -1.124   0.081  1.00  0.00     0.014 A 
ENDBRANCH   1  12
BRANCH   6  18
HETATM   18  O   UNL     1      -7.473   1.870  -2.241  1.00  0.00    -0.360 OA
HETATM   19  H   UNL     1      -6.737   2.226  -2.790  1.00  0.00     0.217 HD
ENDBRANCH   6  18
BRANCH   8  20
HETATM   20  O   UNL     1      -8.195  -1.246   1.274  1.00  0.00    -0.361 OA
HETATM   21  H   UNL     1      -9.102  -0.925   1.127  1.00  0.00     0.217 HD
ENDBRANCH   8  20
TORSDOF 3
