REMARK  1 active torsions:
REMARK  status: ('A' for Active; 'I' for Inactive)
REMARK    1  A    between atoms: C_9  and  C_12 
ROOT
HETATM    1  C   UNL     1       2.457  -0.662  -0.009  1.00  0.00     0.001 A 
HETATM    2  C   UNL     1       2.411   0.727  -0.025  1.00  0.00     0.002 A 
HETATM    3  C   UNL     1       1.176   1.385  -0.060  1.00  0.00     0.030 A 
HETATM    4  C   UNL     1      -0.027   0.689  -0.074  1.00  0.00     0.042 A 
HETATM    5  C   UNL     1       0.030  -0.720  -0.062  1.00  0.00    -0.009 A 
HETATM    6  C   UNL     1       1.268  -1.387  -0.031  1.00  0.00     0.013 A 
HETATM    7  C   UNL     1      -1.176  -1.425  -0.068  1.00  0.00     0.015 A 
HETATM    8  C   UNL     1      -2.380  -0.731  -0.061  1.00  0.00     0.027 A 
HETATM    9  C   UNL     1      -2.355   0.660  -0.049  1.00  0.00     0.029 A 
HETATM   10  N   UNL     1      -1.194   1.365  -0.078  1.00  0.00    -0.358 N 
ATOM     11  HN  UNL     1      -1.205   2.385  -0.102  1.00  0.00     0.166 HD
ENDROOT
BRANCH   9  12
HETATM   12  C   UNL     1      -3.641   1.423   0.086  1.00  0.00     0.185 A 
HETATM   13  C   UNL     1      -3.955   2.343  -1.074  1.00  0.00     0.177 A 
HETATM   14  O   UNL     1      -4.079   2.051  -2.249  1.00  0.00    -0.291 OA
HETATM   15  C   UNL     1      -4.207   3.686  -0.542  1.00  0.00     0.025 A 
HETATM   16  C   UNL     1      -4.649   4.814  -1.210  1.00  0.00     0.016 A 
HETATM   17  C   UNL     1      -4.001   3.692   0.831  1.00  0.00     0.025 A 
HETATM   18  C   UNL     1      -4.868   5.971  -0.453  1.00  0.00     0.001 A 
HETATM   19  C   UNL     1      -4.637   5.980   0.936  1.00  0.00     0.001 A 
HETATM   20  C   UNL     1      -4.198   4.828   1.595  1.00  0.00     0.016 A 
HETATM   21  C   UNL     1      -3.640   2.350   1.284  1.00  0.00     0.177 A 
HETATM   22  O   UNL     1      -3.459   2.063   2.455  1.00  0.00    -0.291 OA
ENDBRANCH   9  12
TORSDOF 1
