REMARK  4 active torsions:
REMARK  status: ('A' for Active; 'I' for Inactive)
REMARK    1  A    between atoms: C_5  and  N_8 
REMARK    2  A    between atoms: N_8  and  C_9 
REMARK    3  A    between atoms: C_12  and  N_15 
REMARK    4  A    between atoms: N_15  and  C_16 
ROOT
HETATM    1  C   UNL     1      -4.260   1.115  -0.489  1.00  0.00     0.048 C 
HETATM    2  C   UNL     1      -4.118   2.072  -1.500  1.00  0.00     0.058 C 
HETATM    3  C   UNL     1      -4.506   3.388  -1.283  1.00  0.00     0.053 C 
HETATM    4  C   UNL     1      -5.429   3.683  -0.269  1.00  0.00     0.028 C 
HETATM    5  C   UNL     1      -5.595   2.738   0.747  1.00  0.00     0.027 C 
HETATM    6  C   UNL     1      -4.950   1.502   0.673  1.00  0.00     0.032 C 
HETATM    7  C   UNL     1      -3.699   4.429  -1.974  1.00  0.00     0.196 C 
HETATM    8  O   UNL     1      -3.561   5.549  -1.494  1.00  0.00    -0.287 OA
HETATM    9  C   UNL     1      -2.922   4.045  -3.173  1.00  0.00     0.029 A 
HETATM   10  C   UNL     1      -2.075   4.966  -3.795  1.00  0.00     0.016 A 
HETATM   11  C   UNL     1      -1.381   4.597  -4.950  1.00  0.00     0.001 A 
HETATM   12  C   UNL     1      -1.565   3.331  -5.509  1.00  0.00     0.001 A 
HETATM   13  C   UNL     1      -2.380   2.400  -4.870  1.00  0.00     0.016 A 
HETATM   14  C   UNL     1      -3.006   2.748  -3.669  1.00  0.00     0.029 A 
HETATM   15  C   UNL     1      -3.632   1.706  -2.844  1.00  0.00     0.196 C 
HETATM   16  O   UNL     1      -3.742   0.555  -3.252  1.00  0.00    -0.286 OA
ENDROOT
BRANCH   1  17
HETATM   17  N   UNL     1      -3.503  -0.086  -0.551  1.00  0.00    -0.355 N 
HETATM   18  H   UNL     1      -3.336  -0.352  -1.531  1.00  0.00     0.166 HD
BRANCH  17  19
HETATM   19  C   UNL     1      -3.717  -1.247   0.216  1.00  0.00     0.032 A 
HETATM   20  C   UNL     1      -4.992  -1.807   0.332  1.00  0.00     0.030 A 
HETATM   21  C   UNL     1      -5.183  -2.975   1.064  1.00  0.00     0.009 A 
HETATM   22  C   UNL     1      -4.096  -3.615   1.671  1.00  0.00    -0.062 A 
HETATM   23  C   UNL     1      -4.303  -4.848   2.497  1.00  0.00     0.048 C 
HETATM   24  C   UNL     1      -2.811  -3.091   1.501  1.00  0.00     0.009 A 
HETATM   25  C   UNL     1      -2.621  -1.924   0.758  1.00  0.00     0.030 A 
ENDBRANCH  17  19
ENDBRANCH   1  17
BRANCH   4  26
HETATM   26  N   UNL     1      -6.183   4.887  -0.218  1.00  0.00    -0.259 NA
HETATM   27  H   UNL     1      -5.729   5.540   0.419  1.00  0.00     0.134 HD
BRANCH  26  28
HETATM   28  C   UNL     1      -6.611   5.566  -1.396  1.00  0.00     0.012 C 
HETATM   29  C   UNL     1      -7.066   4.855  -2.516  1.00  0.00     0.024 C 
HETATM   30  C   UNL     1      -7.281   5.502  -3.734  1.00  0.00     0.008 C 
HETATM   31  C   UNL     1      -7.095   6.883  -3.836  1.00  0.00    -0.062 C 
HETATM   32  C   UNL     1      -6.783   7.613  -2.683  1.00  0.00     0.008 C 
HETATM   33  C   UNL     1      -7.181   7.573  -5.164  1.00  0.00     0.048 C 
HETATM   34  C   UNL     1      -6.556   6.960  -1.467  1.00  0.00     0.024 C 
ENDBRANCH  26  28
ENDBRANCH   4  26
TORSDOF 4
