REMARK  12 active torsions:
REMARK  status: ('A' for Active; 'I' for Inactive)
REMARK    1  A    between atoms: C_6  and  O_11 
REMARK    2  A    between atoms: C_7  and  C_8 
REMARK    3  A    between atoms: C_8  and  O_10 
REMARK    4  A    between atoms: C_18  and  O_35 
REMARK    5  A    between atoms: C_19  and  C_24 
REMARK    6  A    between atoms: C_20  and  O_23 
REMARK    7  A    between atoms: C_21  and  O_22 
REMARK    8  A    between atoms: C_25  and  O_34 
REMARK    9  A    between atoms: C_26  and  O_33 
REMARK   10  A    between atoms: C_27  and  O_32 
REMARK   11  A    between atoms: C_28  and  C_30 
REMARK   12  A    between atoms: C_30  and  O_31 
ROOT
HETATM    1  C   UNL     1       0.937  -0.028  -0.004  1.00  0.00     0.050 C 
HETATM    2  C   UNL     1       2.456  -0.005  -0.004  1.00  0.00    -0.027 A 
HETATM    3  C   UNL     1       3.220   1.210  -0.008  1.00  0.00     0.036 A 
HETATM    4  C   UNL     1       4.618   1.170  -0.007  1.00  0.00     0.032 A 
HETATM    5  C   UNL     1       5.281  -0.061  -0.006  1.00  0.00     0.054 A 
HETATM    6  C   UNL     1       4.559  -1.250  -0.001  1.00  0.00     0.084 A 
HETATM    7  C   UNL     1       3.150  -1.260   0.002  1.00  0.00     0.077 A 
HETATM    8  C   UNL     1       5.458   2.397  -0.002  1.00  0.00     0.197 A 
HETATM    9  O   UNL     1       6.677   2.263   0.027  1.00  0.00    -0.286 OA
HETATM   10  C   UNL     1       4.819   3.732  -0.038  1.00  0.00     0.068 A 
HETATM   11  C   UNL     1       3.433   3.777  -0.089  1.00  0.00     0.066 A 
HETATM   12  C   UNL     1       2.613   2.556   0.004  1.00  0.00     0.197 A 
HETATM   13  O   UNL     1       1.405   2.723   0.122  1.00  0.00    -0.286 OA
HETATM   14  C   UNL     1       2.795   5.021  -0.163  1.00  0.00     0.092 A 
HETATM   15  C   UNL     1       3.475   6.266  -0.105  1.00  0.00     0.043 A 
HETATM   16  C   UNL     1       4.859   6.209  -0.043  1.00  0.00     0.111 A 
HETATM   17  C   UNL     1       5.524   4.959  -0.024  1.00  0.00     0.115 A 
ENDROOT
BRANCH  15  18
HETATM   18  C   UNL     1       2.528   7.448  -0.036  1.00  0.00     0.192 C 
HETATM   19  C   UNL     1       1.771   7.442   1.319  1.00  0.00     0.183 C 
HETATM   20  C   UNL     1       0.385   8.011   1.013  1.00  0.00     0.181 C 
HETATM   21  C   UNL     1       0.491   9.414   0.394  1.00  0.00     0.180 C 
HETATM   22  C   UNL     1       1.526   9.440  -0.769  1.00  0.00     0.177 C 
HETATM   23  O   UNL     1       2.828   8.831  -0.369  1.00  0.00    -0.368 OA
BRANCH  19  24
HETATM   24  O   UNL     1       2.446   8.227   2.318  1.00  0.00    -0.390 OA
HETATM   25  H   UNL     1       3.025   8.860   1.862  1.00  0.00     0.210 HD
ENDBRANCH  19  24
BRANCH  20  26
HETATM   26  O   UNL     1      -0.427   8.012   2.183  1.00  0.00    -0.390 OA
HETATM   27  H   UNL     1       0.047   8.571   2.829  1.00  0.00     0.210 HD
ENDBRANCH  20  26
BRANCH  21  28
HETATM   28  O   UNL     1       0.815  10.382   1.403  1.00  0.00    -0.390 OA
HETATM   29  H   UNL     1       1.779  10.444   1.489  1.00  0.00     0.210 HD
ENDBRANCH  21  28
BRANCH  22  30
HETATM   30  C   UNL     1       1.670  10.861  -1.321  1.00  0.00     0.198 C 
BRANCH  30  31
HETATM   31  O   UNL     1       2.546  10.875  -2.441  1.00  0.00    -0.398 OA
HETATM   32  H   UNL     1       3.415  10.577  -2.120  1.00  0.00     0.209 HD
ENDBRANCH  30  31
ENDBRANCH  22  30
ENDBRANCH  15  18
BRANCH  14  33
HETATM   33  O   UNL     1       1.419   5.093  -0.281  1.00  0.00    -0.359 OA
HETATM   34  H   UNL     1       1.025   4.194  -0.134  1.00  0.00     0.217 HD
ENDBRANCH  14  33
BRANCH  16  35
HETATM   35  O   UNL     1       5.648   7.326   0.008  1.00  0.00    -0.357 OA
HETATM   36  H   UNL     1       5.085   8.114  -0.102  1.00  0.00     0.217 HD
ENDBRANCH  16  35
BRANCH  17  37
HETATM   37  O   UNL     1       6.893   4.972   0.028  1.00  0.00    -0.357 OA
HETATM   38  H   UNL     1       7.164   5.910   0.045  1.00  0.00     0.217 HD
ENDBRANCH  17  37
BRANCH   7  39
HETATM   39  C   UNL     1       2.391  -2.579   0.013  1.00  0.00     0.179 C 
HETATM   40  O   UNL     1       1.174  -2.672   0.021  1.00  0.00    -0.646 OA
BRANCH  39  41
HETATM   41  O   UNL     1       3.150  -3.694   0.013  1.00  0.00    -0.773 OA
HETATM   42  H   UNL     1       4.114  -3.510   0.009  1.00  0.00     0.167 HD
ENDBRANCH  39  41
ENDBRANCH   7  39
BRANCH   6  43
HETATM   43  O   UNL     1       5.272  -2.422  -0.002  1.00  0.00    -0.360 OA
HETATM   44  H   UNL     1       6.228  -2.222  -0.002  1.00  0.00     0.217 HD
ENDBRANCH   6  43
TORSDOF 12
