REMARK  5 active torsions:
REMARK  status: ('A' for Active; 'I' for Inactive)
REMARK    1  A    between atoms: C_2  and  C_3 
REMARK    2  A    between atoms: C_2  and  C_9 
REMARK    3  A    between atoms: C_3  and  C_4 
REMARK    4  A    between atoms: C_4  and  C_5 
REMARK    5  A    between atoms: C_9  and  C_10 
ROOT
HETATM    1  C   UNL     1       2.905   1.300   0.587  1.00  0.00     0.008 C 
ENDROOT
BRANCH   1   2
HETATM    2  C   UNL     1       2.440  -0.082   0.074  1.00  0.00    -0.012 C 
HETATM    3  C   UNL     1       2.904  -1.171   1.052  1.00  0.00     0.010 C 
BRANCH   2   4
HETATM    4  C   UNL     1       2.962  -0.373  -1.341  1.00  0.00     0.073 C 
BRANCH   4   5
HETATM    5  C   UNL     1       2.411  -1.667  -1.887  1.00  0.00     0.231 C 
HETATM    6  O   UNL     1       3.119  -2.571  -2.314  1.00  0.00    -0.307 OA
ENDBRANCH   4   5
ENDBRANCH   2   4
ENDBRANCH   1   2
BRANCH   1   7
HETATM    7  C   UNL     1       2.420   2.463  -0.283  1.00  0.00     0.027 C 
BRANCH   7   8
HETATM    8  C   UNL     1       2.935   3.792   0.190  1.00  0.00    -0.025 C 
HETATM    9  C   UNL     1       4.090   4.374  -0.191  1.00  0.00    -0.091 C 
HETATM   10  C   UNL     1       5.109   3.741  -1.100  1.00  0.00     0.042 C 
HETATM   11  C   UNL     1       4.460   5.752   0.291  1.00  0.00     0.042 C 
ENDBRANCH   7   8
ENDBRANCH   1   7
TORSDOF 5
