REMARK  9 active torsions:
REMARK  status: ('A' for Active; 'I' for Inactive)
REMARK    1  A    between atoms: C_1  and  C_2 
REMARK    2  A    between atoms: C_1  and  C_5 
REMARK    3  A    between atoms: C_2  and  O_4 
REMARK    4  A    between atoms: C_5  and  C_6 
REMARK    5  A    between atoms: C_5  and  C_10 
REMARK    6  A    between atoms: C_5  and  O_13 
REMARK    7  A    between atoms: C_6  and  C_7 
REMARK    8  A    between atoms: C_7  and  O_9 
REMARK    9  A    between atoms: C_10  and  O_12 
ROOT
HETATM    1  C   UNL     1       2.516  -0.053   0.026  1.00  0.00     0.161 C 
ENDROOT
BRANCH   1   2
HETATM    2  C   UNL     1       0.997  -0.251   0.149  1.00  0.00     0.159 C 
BRANCH   2   3
HETATM    3  C   UNL     1       0.311   0.042  -1.153  1.00  0.00     0.142 C 
HETATM    4  O   UNL     1       0.817  -0.231  -2.235  1.00  0.00    -0.650 OA
BRANCH   3   5
HETATM    5  O   UNL     1      -0.916   0.580  -1.035  1.00  0.00    -0.776 OA
HETATM    6  H   UNL     1      -1.182   0.802  -0.120  1.00  0.00     0.167 HD
ENDBRANCH   3   5
ENDBRANCH   2   3
ENDBRANCH   1   2
BRANCH   1   7
HETATM    7  C   UNL     1       3.012   1.320  -0.437  1.00  0.00     0.159 C 
BRANCH   7   8
HETATM    8  C   UNL     1       2.565   2.435   0.471  1.00  0.00     0.142 C 
HETATM    9  O   UNL     1       1.385   2.699   0.659  1.00  0.00    -0.650 OA
BRANCH   8  10
HETATM   10  O   UNL     1       3.570   3.128   1.036  1.00  0.00    -0.776 OA
HETATM   11  H   UNL     1       4.477   2.820   0.844  1.00  0.00     0.167 HD
ENDBRANCH   8  10
ENDBRANCH   7   8
ENDBRANCH   1   7
BRANCH   1  12
HETATM   12  C   UNL     1       3.159  -0.361   1.384  1.00  0.00     0.176 C 
HETATM   13  O   UNL     1       2.750   0.032   2.462  1.00  0.00    -0.648 OA
BRANCH  12  14
HETATM   14  O   UNL     1       4.300  -1.084   1.243  1.00  0.00    -0.774 OA
HETATM   15  H   UNL     1       4.355  -1.366   0.296  1.00  0.00     0.167 HD
ENDBRANCH  12  14
ENDBRANCH   1  12
BRANCH   1  16
HETATM   16  O   UNL     1       3.084  -1.036  -0.885  1.00  0.00    -0.378 OA
HETATM   17  H   UNL     1       2.540  -1.009  -1.707  1.00  0.00     0.211 HD
ENDBRANCH   1  16
TORSDOF 9
