REMARK  7 active torsions:
REMARK  status: ('A' for Active; 'I' for Inactive)
REMARK    1  A    between atoms: C_1  and  C_2 
REMARK    2  A    between atoms: C_1  and  C_8 
REMARK    3  A    between atoms: C_2  and  CA_3 
REMARK    4  A    between atoms: CA_3  and  C_4 
REMARK    5  A    between atoms: CA_3  and  N_7 
REMARK    6  A    between atoms: C_4  and  OXT_6 
REMARK    7  A    between atoms: C_8  and  N_9 
REMARK       I    between atoms: N_9  and  C_10 
REMARK       I    between atoms: C_10  and  N_12 
ROOT
HETATM    1  C   UNL     1       1.159   0.045  -0.027  1.00  0.00     0.022 C 
ENDROOT
BRANCH   1   2
HETATM    2  C   UNL     1       0.554   0.687  -1.283  1.00  0.00     0.048 C 
BRANCH   2   3
HETATM    3  CA  UNL     1      -0.981   0.741  -1.234  1.00  0.00     0.314 C 
BRANCH   3   4
HETATM    4  C   UNL     1      -1.575   1.416  -2.490  1.00  0.00     0.173 C 
HETATM    5  O   UNL     1      -2.335   0.858  -3.270  1.00  0.00    -0.648 OA
BRANCH   4   6
HETATM    6  OXT UNL     1      -1.223   2.714  -2.644  1.00  0.00    -0.775 OA
HETATM    7  HXT UNL     1      -0.657   3.071  -1.935  1.00  0.00     0.167 HD
ENDBRANCH   4   6
ENDBRANCH   3   4
BRANCH   3   8
HETATM    8  N   UNL     1      -1.519  -0.635  -1.121  1.00  0.00     0.093 N 
HETATM    9  H1  UNL     1      -1.275  -1.137  -1.980  1.00  0.00     0.314 HD
HETATM   10  H2  UNL     1      -2.541  -0.576  -1.173  1.00  0.00     0.314 HD
ENDBRANCH   3   8
ENDBRANCH   2   3
ENDBRANCH   1   2
BRANCH   1  11
HETATM   11  C   UNL     1       2.683  -0.015  -0.091  1.00  0.00     0.124 C 
BRANCH  11  12
HETATM   12  N   UNL     1       3.234  -0.637   1.096  1.00  0.00    -0.343 N 
HETATM   13  C   UNL     1       3.521   0.090   2.211  1.00  0.00     0.313 C 
HETATM   14  O   UNL     1       3.408   1.304   2.310  1.00  0.00    -0.248 OA
HETATM   15  N   UNL     1       3.992  -0.664   3.230  1.00  0.00    -0.352 N 
HETATM   16  H   UNL     1       4.023  -1.670   3.207  1.00  0.00     0.160 HD
HETATM   17  H   UNL     1       4.220  -0.186   4.090  1.00  0.00     0.160 HD
HETATM   18  H   UNL     1       3.122  -1.633   1.205  1.00  0.00     0.164 HD
ENDBRANCH  11  12
ENDBRANCH   1  11
TORSDOF 7
