REMARK  5 active torsions:
REMARK  status: ('A' for Active; 'I' for Inactive)
REMARK    1  A    between atoms: C_2  and  C_5 
REMARK    2  A    between atoms: C_5  and  C_7 
REMARK    3  A    between atoms: C_7  and  N_8 
REMARK    4  A    between atoms: C_7  and  O_14 
REMARK    5  A    between atoms: O_14  and  C_15 
ROOT
HETATM    1  C   UNL     1       4.543   0.850  -1.503  1.00  0.00     0.306 C 
ENDROOT
BRANCH   1   2
HETATM    2  C   UNL     1       3.040   0.739  -1.212  1.00  0.00     0.183 C 
HETATM    3  O   UNL     1       2.666  -0.020  -0.306  1.00  0.00    -0.292 OA
BRANCH   2   4
HETATM    4  C   UNL     1       2.008   1.600  -1.980  1.00  0.00     0.014 C 
HETATM    5  C   UNL     1       1.876   2.960  -1.279  1.00  0.00     0.023 C 
HETATM    6  C   UNL     1       0.639   0.890  -1.914  1.00  0.00     0.023 C 
HETATM    7  C   UNL     1       2.350   1.798  -3.462  1.00  0.00     0.023 C 
ENDBRANCH   2   4
ENDBRANCH   1   2
BRANCH   1   8
HETATM    8  N   UNL     1       5.011  -0.233  -2.381  1.00  0.00    -0.318 N 
HETATM    9  C   UNL     1       5.597  -0.116  -3.615  1.00  0.00     0.112 A 
HETATM   10  C   UNL     1       6.223  -1.322  -3.829  1.00  0.00     0.106 A 
HETATM   11  N   UNL     1       5.939  -2.201  -2.818  1.00  0.00    -0.361 N 
HETATM   12  C   UNL     1       5.189  -1.530  -1.973  1.00  0.00     0.185 A 
ATOM     13  HN  UNL     1       6.245  -3.171  -2.738  1.00  0.00     0.166 HD
ENDBRANCH   1   8
BRANCH   1  14
HETATM   14  O   UNL     1       4.973   2.086  -2.048  1.00  0.00    -0.318 OA
BRANCH  14  15
HETATM   15  C   UNL     1       5.702   2.947  -1.283  1.00  0.00     0.072 A 
HETATM   16  C   UNL     1       6.383   3.926  -2.014  1.00  0.00     0.038 A 
HETATM   17  C   UNL     1       7.125   4.915  -1.363  1.00  0.00     0.026 A 
HETATM   18  C   UNL     1       7.182   4.923   0.027  1.00  0.00     0.034 A 
HETATM   19  C   UNL     1       6.516   3.946   0.763  1.00  0.00     0.026 A 
HETATM   20 CL   UNL     1       8.061   6.156   0.837  1.00  0.00    -0.084 Cl
HETATM   21  C   UNL     1       5.767   2.960   0.110  1.00  0.00     0.038 A 
ENDBRANCH  14  15
ENDBRANCH   1  14
TORSDOF 5
