REMARK  16 active torsions:
REMARK  status: ('A' for Active; 'I' for Inactive)
REMARK    1  A    between atoms: C_2  and  C_3 
REMARK    2  A    between atoms: C_3  and  C_4 
REMARK    3  A    between atoms: C_4  and  C_5 
REMARK    4  A    between atoms: C_5  and  C_6 
REMARK    5  A    between atoms: C_6  and  C_7 
REMARK    6  A    between atoms: C_7  and  C_8 
REMARK    7  A    between atoms: C_8  and  C_9 
REMARK    8  A    between atoms: C_9  and  C_10 
REMARK    9  A    between atoms: C_10  and  C_11 
REMARK   10  A    between atoms: C_11  and  C_12 
REMARK       I    between atoms: C_12  and  N_14 
REMARK   11  A    between atoms: N_14  and  C_15 
REMARK   12  A    between atoms: C_15  and  C_16 
REMARK   13  A    between atoms: C_16  and  C_17 
REMARK   14  A    between atoms: C_17  and  N_18 
REMARK   15  A    between atoms: N_18  and  C_21 
REMARK   16  A    between atoms: C_21  and  C_22 
ROOT
HETATM    1  C   UNL     1      12.693  -5.180  -4.999  1.00  0.00     0.217 C 
HETATM    2  O   UNL     1      13.310  -4.389  -4.290  1.00  0.00    -0.274 OA
HETATM    3  N   UNL     1      13.321  -6.092  -5.811  1.00  0.00    -0.361 N 
HETATM    4  H   UNL     1      12.762  -6.731  -6.370  1.00  0.00     0.162 HD
ENDROOT
BRANCH   1   5
HETATM    5  C   UNL     1      11.187  -5.266  -5.026  1.00  0.00     0.103 C 
BRANCH   5   6
HETATM    6  C   UNL     1      10.615  -4.248  -4.048  1.00  0.00     0.009 C 
BRANCH   6   7
HETATM    7  C   UNL     1       9.098  -4.251  -4.044  1.00  0.00     0.000 C 
BRANCH   7   8
HETATM    8  C   UNL     1       8.585  -3.210  -3.053  1.00  0.00     0.000 C 
BRANCH   8   9
HETATM    9  C   UNL     1       7.065  -3.195  -3.043  1.00  0.00     0.000 C 
BRANCH   9  10
HETATM   10  C   UNL     1       6.551  -2.146  -2.056  1.00  0.00     0.000 C 
BRANCH  10  11
HETATM   11  C   UNL     1       5.031  -2.135  -2.043  1.00  0.00     0.000 C 
BRANCH  11  12
HETATM   12  C   UNL     1       4.512  -1.091  -1.062  1.00  0.00     0.000 C 
BRANCH  12  13
HETATM   13  C   UNL     1       2.989  -1.082  -1.051  1.00  0.00    -0.000 C 
BRANCH  13  14
HETATM   14  C   UNL     1       2.458  -0.043  -0.071  1.00  0.00    -0.005 C 
HETATM   15  C   UNL     1       0.940  -0.035  -0.063  1.00  0.00     0.005 C 
ENDBRANCH  13  14
ENDBRANCH  12  13
ENDBRANCH  11  12
ENDBRANCH  10  11
ENDBRANCH   9  10
ENDBRANCH   8   9
ENDBRANCH   7   8
ENDBRANCH   6   7
ENDBRANCH   5   6
ENDBRANCH   1   5
BRANCH   3  16
HETATM   16  C   UNL     1      14.760  -6.150  -5.867  1.00  0.00     0.124 C 
BRANCH  16  17
HETATM   17  C   UNL     1      15.388  -6.492  -4.525  1.00  0.00     0.048 C 
BRANCH  17  18
HETATM   18  C   UNL     1      14.919  -7.845  -3.978  1.00  0.00     0.238 C 
BRANCH  18  19
HETATM   19  N   UNL     1      15.543  -8.140  -2.602  1.00  0.00    -0.065 N 
HETATM   20  C   UNL     1      17.045  -8.144  -2.657  1.00  0.00     0.272 C 
HETATM   21  C   UNL     1      15.003  -7.164  -1.556  1.00  0.00     0.272 C 
BRANCH  19  22
HETATM   22  C   UNL     1      15.086  -9.598  -2.144  1.00  0.00     0.349 C 
BRANCH  22  23
HETATM   23  C   UNL     1      13.567  -9.871  -1.985  1.00  0.00     0.199 C 
HETATM   24  O   UNL     1      13.107  -9.598  -0.843  1.00  0.00    -0.647 OA
HETATM   25  O   UNL     1      12.992 -10.228  -3.050  1.00  0.00    -0.647 OA
ENDBRANCH  22  23
ENDBRANCH  19  22
ENDBRANCH  18  19
ENDBRANCH  17  18
ENDBRANCH  16  17
ENDBRANCH   3  16
TORSDOF 16
