REMARK  17 active torsions:
REMARK  status: ('A' for Active; 'I' for Inactive)
REMARK    1  A    between atoms: C_2  and  C_3 
REMARK    2  A    between atoms: C_3  and  C_4 
REMARK    3  A    between atoms: C_4  and  C_5 
REMARK    4  A    between atoms: C_5  and  C_6 
REMARK    5  A    between atoms: C_6  and  C_7 
REMARK    6  A    between atoms: C_7  and  C_8 
REMARK    7  A    between atoms: C_8  and  C_9 
REMARK    8  A    between atoms: C_9  and  C_10 
REMARK    9  A    between atoms: C_10  and  C_11 
REMARK   10  A    between atoms: C_11  and  C_12 
REMARK   11  A    between atoms: C_12  and  O_13 
REMARK   12  A    between atoms: O_13  and  C_14 
REMARK   13  A    between atoms: C_15  and  O_24 
REMARK   14  A    between atoms: C_16  and  O_23 
REMARK   15  A    between atoms: C_17  and  O_22 
REMARK   16  A    between atoms: C_18  and  C_20 
REMARK   17  A    between atoms: C_20  and  O_21 
ROOT
HETATM    1  C   UNL     1       9.993  -7.119   5.449  1.00  0.00     0.291 C 
HETATM    2  C   UNL     1      10.435  -8.044   4.290  1.00  0.00     0.204 C 
HETATM    3  C   UNL     1       9.708  -7.689   2.979  1.00  0.00     0.183 C 
HETATM    4  C   UNL     1       8.191  -7.523   3.176  1.00  0.00     0.180 C 
HETATM    5  C   UNL     1       7.947  -6.555   4.337  1.00  0.00     0.179 C 
HETATM    6  O   UNL     1       8.553  -7.095   5.536  1.00  0.00    -0.348 OA
ENDROOT
BRANCH   1   7
HETATM    7  O   UNL     1      10.540  -5.804   5.342  1.00  0.00    -0.359 OA
BRANCH   7   8
HETATM    8  C   UNL     1      10.316  -5.055   6.543  1.00  0.00     0.171 C 
BRANCH   8   9
HETATM    9  C   UNL     1      10.893  -3.642   6.436  1.00  0.00     0.026 C 
BRANCH   9  10
HETATM   10  C   UNL     1      10.468  -2.876   5.181  1.00  0.00     0.002 C 
BRANCH  10  11
HETATM   11  C   UNL     1       8.955  -2.736   5.081  1.00  0.00     0.000 C 
BRANCH  11  12
HETATM   12  C   UNL     1       8.521  -2.100   3.767  1.00  0.00     0.000 C 
BRANCH  12  13
HETATM   13  C   UNL     1       6.999  -2.113   3.685  1.00  0.00     0.000 C 
BRANCH  13  14
HETATM   14  C   UNL     1       6.502  -1.476   2.396  1.00  0.00     0.000 C 
BRANCH  14  15
HETATM   15  C   UNL     1       4.977  -1.498   2.362  1.00  0.00     0.000 C 
BRANCH  15  16
HETATM   16  C   UNL     1       4.449  -0.854   1.088  1.00  0.00     0.000 C 
BRANCH  16  17
HETATM   17  C   UNL     1       2.924  -0.874   1.073  1.00  0.00    -0.000 C 
BRANCH  17  18
HETATM   18  C   UNL     1       2.380  -0.227  -0.196  1.00  0.00    -0.005 C 
HETATM   19  C   UNL     1       0.862  -0.246  -0.209  1.00  0.00     0.005 C 
ENDBRANCH  17  18
ENDBRANCH  16  17
ENDBRANCH  15  16
ENDBRANCH  14  15
ENDBRANCH  13  14
ENDBRANCH  12  13
ENDBRANCH  11  12
ENDBRANCH  10  11
ENDBRANCH   9  10
ENDBRANCH   8   9
ENDBRANCH   7   8
ENDBRANCH   1   7
BRANCH   2  20
HETATM   20  O   UNL     1      10.164  -9.417   4.643  1.00  0.00    -0.388 OA
HETATM   21  H   UNL     1       9.275  -9.450   5.033  1.00  0.00     0.210 HD
ENDBRANCH   2  20
BRANCH   3  22
HETATM   22  O   UNL     1       9.946  -8.701   1.990  1.00  0.00    -0.390 OA
HETATM   23  H   UNL     1       9.531  -9.510   2.352  1.00  0.00     0.210 HD
ENDBRANCH   3  22
BRANCH   5  24
HETATM   24  C   UNL     1       6.459  -6.346   4.633  1.00  0.00     0.198 C 
BRANCH  24  25
HETATM   25  O   UNL     1       6.305  -5.439   5.729  1.00  0.00    -0.398 OA
HETATM   26  H   UNL     1       6.839  -5.811   6.458  1.00  0.00     0.209 HD
ENDBRANCH  24  25
ENDBRANCH   5  24
BRANCH   4  27
HETATM   27  O   UNL     1       7.602  -8.811   3.429  1.00  0.00    -0.390 OA
HETATM   28  H   UNL     1       7.361  -8.866   4.369  1.00  0.00     0.210 HD
ENDBRANCH   4  27
TORSDOF 17
