REMARK  17 active torsions:
REMARK  status: ('A' for Active; 'I' for Inactive)
REMARK    1  A    between atoms: C_2  and  C_3 
REMARK    2  A    between atoms: C_3  and  C_4 
REMARK    3  A    between atoms: C_4  and  N_5 
REMARK       I    between atoms: N_5  and  C_6 
REMARK    4  A    between atoms: C_6  and  C_8 
REMARK    5  A    between atoms: C_8  and  C_10 
REMARK    6  A    between atoms: C_10  and  C_11 
REMARK    7  A    between atoms: C_11  and  C_12 
REMARK    8  A    between atoms: C_11  and  O_34 
REMARK    9  A    between atoms: C_12  and  C_13 
REMARK   10  A    between atoms: C_12  and  N_17 
REMARK   11  A    between atoms: C_13  and  C_14 
REMARK       I    between atoms: N_17  and  C_18 
REMARK   12  A    between atoms: C_18  and  C_20 
REMARK   13  A    between atoms: C_20  and  N_22 
REMARK       I    between atoms: N_22  and  C_23 
REMARK   14  A    between atoms: C_23  and  C_25 
REMARK   15  A    between atoms: C_25  and  C_26 
REMARK   16  A    between atoms: C_25  and  N_30 
REMARK   17  A    between atoms: C_26  and  C_27 
REMARK       I    between atoms: N_30  and  C_31 
ROOT
HETATM    1  N   UNL     1       6.833  -7.006   1.577  1.00  0.00    -0.352 N 
HETATM    2  C   UNL     1       6.081  -7.138   2.739  1.00  0.00     0.240 C 
HETATM    3  O   UNL     1       6.576  -7.131   3.856  1.00  0.00    -0.271 OA
HETATM    4  H   UNL     1       6.326  -6.959   0.697  1.00  0.00     0.163 HD
ENDROOT
BRANCH   1   5
HETATM    5  C   UNL     1       8.319  -6.847   1.525  1.00  0.00     0.113 C 
BRANCH   5   6
HETATM    6  C   UNL     1       8.787  -5.458   2.139  1.00  0.00     0.141 C 
BRANCH   6   7
HETATM    7  C   UNL     1      10.276  -5.046   2.054  1.00  0.00     0.047 C 
BRANCH   7   8
HETATM    8  C   UNL     1      10.897  -4.784   0.681  1.00  0.00     0.076 C 
HETATM    9  C   UNL     1      12.339  -4.264   0.837  1.00  0.00     0.020 C 
BRANCH   8  10
HETATM   10  C   UNL     1      10.094  -3.776  -0.129  1.00  0.00     0.221 C 
HETATM   11  N   UNL     1       9.987  -2.531   0.445  1.00  0.00    -0.361 N 
HETATM   12  H   UNL     1      10.239  -2.410   1.413  1.00  0.00     0.162 HD
HETATM   13  O   UNL     1       9.592  -4.078  -1.208  1.00  0.00    -0.273 OA
BRANCH  11  14
HETATM   14  C   UNL     1       9.256  -1.473  -0.209  1.00  0.00     0.122 C 
BRANCH  14  15
HETATM   15  C   UNL     1       9.336  -0.174   0.585  1.00  0.00     0.019 C 
BRANCH  15  16
HETATM   16  C   UNL     1       8.510   0.910  -0.100  1.00  0.00    -0.003 C 
HETATM   17  C   UNL     1       8.532   2.211   0.681  1.00  0.00     0.005 C 
ENDBRANCH  15  16
ENDBRANCH  14  15
ENDBRANCH  11  14
ENDBRANCH   8  10
ENDBRANCH   7   8
ENDBRANCH   6   7
BRANCH   6  18
HETATM   18  O   UNL     1       8.535  -5.367   3.551  1.00  0.00    -0.393 OA
HETATM   19  H   UNL     1       8.856  -6.180   3.979  1.00  0.00     0.210 HD
ENDBRANCH   6  18
ENDBRANCH   5   6
BRANCH   5  20
HETATM   20  C   UNL     1       9.071  -8.055   2.149  1.00  0.00     0.031 C 
BRANCH  20  21
HETATM   21  C   UNL     1       8.754  -9.497   1.670  1.00  0.00    -0.021 C 
HETATM   22  C   UNL     1       8.972  -9.762   0.180  1.00  0.00     0.009 C 
HETATM   23  C   UNL     1       9.644 -10.473   2.462  1.00  0.00     0.009 C 
ENDBRANCH  20  21
ENDBRANCH   5  20
ENDBRANCH   1   5
BRANCH   2  24
HETATM   24  C   UNL     1       4.529  -7.272   2.540  1.00  0.00     0.172 C 
HETATM   25  C   UNL     1       3.885  -7.974   3.740  1.00  0.00     0.042 C 
BRANCH  24  26
HETATM   26  N   UNL     1       3.879  -5.974   2.367  1.00  0.00    -0.346 N 
HETATM   27  C   UNL     1       3.597  -5.469   1.121  1.00  0.00     0.241 C 
HETATM   28  O   UNL     1       3.834  -6.106   0.093  1.00  0.00    -0.271 OA
HETATM   29  H   UNL     1       3.698  -5.413   3.189  1.00  0.00     0.163 HD
BRANCH  27  30
HETATM   30  C   UNL     1       2.826  -4.124   1.106  1.00  0.00     0.177 C 
BRANCH  30  31
HETATM   31  C   UNL     1       3.236  -3.346  -0.164  1.00  0.00     0.038 C 
BRANCH  31  32
HETATM   32  C   UNL     1       2.661  -1.930  -0.339  1.00  0.00    -0.020 C 
HETATM   33  C   UNL     1       3.017  -0.963   0.794  1.00  0.00     0.009 C 
HETATM   34  C   UNL     1       3.144  -1.328  -1.665  1.00  0.00     0.009 C 
ENDBRANCH  31  32
ENDBRANCH  30  31
BRANCH  30  35
HETATM   35  N   UNL     1       1.390  -4.431   1.120  1.00  0.00    -0.348 N 
HETATM   36  C   UNL     1       0.466  -3.594   1.682  1.00  0.00     0.214 C 
HETATM   37  O   UNL     1       0.758  -2.564   2.301  1.00  0.00    -0.274 OA
HETATM   38  C   UNL     1      -0.975  -3.997   1.480  1.00  0.00     0.117 C 
HETATM   39  H   UNL     1       1.082  -5.206   0.549  1.00  0.00     0.163 HD
ENDBRANCH  30  35
ENDBRANCH  27  30
ENDBRANCH  24  26
ENDBRANCH   2  24
TORSDOF 17
