REMARK  24 active torsions:
REMARK  status: ('A' for Active; 'I' for Inactive)
REMARK    1  A    between atoms: C_1  and  C_2 
REMARK    2  A    between atoms: C_1  and  O_66 
REMARK    3  A    between atoms: C_4  and  O_65 
REMARK    4  A    between atoms: C_5  and  O_64 
REMARK    5  A    between atoms: C_10  and  C_62 
REMARK    6  A    between atoms: C_13  and  O_16 
REMARK    7  A    between atoms: C_14  and  O_15 
REMARK    8  A    between atoms: C_19  and  C_60 
REMARK    9  A    between atoms: C_22  and  O_25 
REMARK   10  A    between atoms: C_23  and  O_24 
REMARK   11  A    between atoms: C_28  and  C_58 
REMARK   12  A    between atoms: C_31  and  O_34 
REMARK   13  A    between atoms: C_32  and  O_33 
REMARK   14  A    between atoms: C_37  and  C_56 
REMARK   15  A    between atoms: C_40  and  O_43 
REMARK   16  A    between atoms: C_41  and  O_42 
REMARK   17  A    between atoms: C_46  and  C_54 
REMARK   18  A    between atoms: C_50  and  O_53 
REMARK   19  A    between atoms: C_51  and  O_52 
REMARK   20  A    between atoms: C_54  and  O_55 
REMARK   21  A    between atoms: C_56  and  O_57 
REMARK   22  A    between atoms: C_58  and  O_59 
REMARK   23  A    between atoms: C_60  and  O_61 
REMARK   24  A    between atoms: C_62  and  O_63 
ROOT
HETATM    1  C   UNL     1       1.671   2.789   1.105  1.00  0.00     0.180 C 
HETATM    2  C   UNL     1       0.382   3.642   0.770  1.00  0.00     0.187 C 
HETATM    3  C   UNL     1      -0.261   2.675  -0.232  1.00  0.00     0.183 C 
HETATM    4  C   UNL     1       0.522   2.879  -1.465  1.00  0.00     0.204 C 
HETATM    5  C   UNL     1       2.096   2.884  -1.265  1.00  0.00     0.292 C 
HETATM    6  O   UNL     1       2.583   3.112   0.075  1.00  0.00    -0.348 OA
HETATM    7  O   UNL     1       2.874   3.814  -2.003  1.00  0.00    -0.348 OA
HETATM    8  C   UNL     1       2.814   4.047  -3.409  1.00  0.00     0.187 C 
HETATM    9  C   UNL     1       1.486   4.520  -3.938  1.00  0.00     0.180 C 
HETATM   10  O   UNL     1       0.535   3.517  -4.061  1.00  0.00    -0.348 OA
HETATM   11  C   UNL     1       0.784   2.270  -4.595  1.00  0.00     0.292 C 
HETATM   12  C   UNL     1       2.239   1.757  -4.372  1.00  0.00     0.204 C 
HETATM   13  C   UNL     1       3.322   2.838  -4.157  1.00  0.00     0.183 C 
HETATM   14  O   UNL     1       0.163   2.286  -5.863  1.00  0.00    -0.348 OA
HETATM   15  C   UNL     1      -1.315   2.441  -5.823  1.00  0.00     0.187 C 
HETATM   16  C   UNL     1      -2.006   3.526  -4.932  1.00  0.00     0.180 C 
HETATM   17  O   UNL     1      -2.239   3.135  -3.564  1.00  0.00    -0.348 OA
HETATM   18  C   UNL     1      -2.975   1.953  -3.283  1.00  0.00     0.292 C 
HETATM   19  C   UNL     1      -2.400   0.771  -4.121  1.00  0.00     0.204 C 
HETATM   20  C   UNL     1      -2.034   1.097  -5.594  1.00  0.00     0.183 C 
HETATM   21  O   UNL     1      -4.393   2.134  -3.350  1.00  0.00    -0.348 OA
HETATM   22  C   UNL     1      -5.086   3.000  -2.376  1.00  0.00     0.187 C 
HETATM   23  C   UNL     1      -4.447   4.373  -2.110  1.00  0.00     0.180 C 
HETATM   24  O   UNL     1      -3.416   4.297  -1.128  1.00  0.00    -0.348 OA
HETATM   25  C   UNL     1      -3.797   3.916   0.195  1.00  0.00     0.292 C 
HETATM   26  C   UNL     1      -4.580   2.580   0.175  1.00  0.00     0.204 C 
HETATM   27  C   UNL     1      -5.543   2.398  -1.010  1.00  0.00     0.183 C 
HETATM   28  O   UNL     1      -4.130   5.063   1.028  1.00  0.00    -0.348 OA
HETATM   29  C   UNL     1      -2.905   5.847   1.205  1.00  0.00     0.187 C 
HETATM   30  C   UNL     1      -2.682   6.799   0.047  1.00  0.00     0.180 C 
HETATM   31  O   UNL     1      -1.287   6.924   0.054  1.00  0.00    -0.348 OA
HETATM   32  C   UNL     1      -0.642   7.656   1.044  1.00  0.00     0.292 C 
HETATM   33  C   UNL     1      -1.152   7.284   2.445  1.00  0.00     0.204 C 
HETATM   34  C   UNL     1      -2.586   6.601   2.527  1.00  0.00     0.183 C 
HETATM   35  O   UNL     1      -0.382   8.953   0.546  1.00  0.00    -0.348 OA
HETATM   36  C   UNL     1       0.284   8.930  -0.768  1.00  0.00     0.187 C 
HETATM   37  C   UNL     1      -0.260   7.970  -1.871  1.00  0.00     0.180 C 
HETATM   38  O   UNL     1       0.217   6.570  -1.790  1.00  0.00    -0.348 OA
HETATM   39  C   UNL     1       1.131   6.036  -0.726  1.00  0.00     0.292 C 
HETATM   40  O   UNL     1       0.542   5.179   0.454  1.00  0.00    -0.348 OA
HETATM   41  C   UNL     1       2.204   7.150  -0.438  1.00  0.00     0.204 C 
HETATM   42  C   UNL     1       1.781   8.631  -0.696  1.00  0.00     0.183 C 
ENDROOT
BRANCH   1  43
HETATM   43  C   UNL     1       1.554   1.175   1.138  1.00  0.00     0.198 C 
BRANCH  43  44
HETATM   44  O   UNL     1       2.730   0.548   1.637  1.00  0.00    -0.398 OA
HETATM   45  H   UNL     1       3.353   0.471   0.892  1.00  0.00     0.209 HD
ENDBRANCH  43  44
ENDBRANCH   1  43
BRANCH   3  46
HETATM   46  O   UNL     1      -1.617   2.801  -0.537  1.00  0.00    -0.390 OA
HETATM   47  H   UNL     1      -1.704   3.322  -1.374  1.00  0.00     0.210 HD
ENDBRANCH   3  46
BRANCH   4  48
HETATM   48  O   UNL     1      -0.168   4.038  -1.951  1.00  0.00    -0.388 OA
HETATM   49  H   UNL     1      -0.426   4.661  -1.241  1.00  0.00     0.210 HD
ENDBRANCH   4  48
BRANCH  41  50
HETATM   50  O   UNL     1       3.287   6.934  -1.402  1.00  0.00    -0.388 OA
HETATM   51  H   UNL     1       3.877   7.711  -1.360  1.00  0.00     0.210 HD
ENDBRANCH  41  50
BRANCH  37  52
HETATM   52  C   UNL     1      -0.119   8.583  -3.295  1.00  0.00     0.198 C 
BRANCH  52  53
HETATM   53  O   UNL     1      -0.863   9.807  -3.401  1.00  0.00    -0.398 OA
HETATM   54  H   UNL     1      -1.775   9.608  -3.637  1.00  0.00     0.209 HD
ENDBRANCH  52  53
ENDBRANCH  37  52
BRANCH  42  55
HETATM   55  O   UNL     1       2.466   9.492   0.217  1.00  0.00    -0.390 OA
HETATM   56  H   UNL     1       1.791   9.954   0.741  1.00  0.00     0.210 HD
ENDBRANCH  42  55
BRANCH   9  57
HETATM   57  C   UNL     1       1.493   5.501  -5.092  1.00  0.00     0.198 C 
BRANCH  57  58
HETATM   58  O   UNL     1       2.143   6.716  -4.701  1.00  0.00    -0.398 OA
HETATM   59  H   UNL     1       2.010   6.850  -3.751  1.00  0.00     0.209 HD
ENDBRANCH  57  58
ENDBRANCH   9  57
BRANCH  13  60
HETATM   60  O   UNL     1       4.437   2.292  -3.431  1.00  0.00    -0.390 OA
HETATM   61  H   UNL     1       4.543   2.868  -2.611  1.00  0.00     0.210 HD
ENDBRANCH  13  60
BRANCH  12  62
HETATM   62  O   UNL     1       2.603   0.777  -5.341  1.00  0.00    -0.388 OA
HETATM   63  H   UNL     1       3.477   1.014  -5.694  1.00  0.00     0.210 HD
ENDBRANCH  12  62
BRANCH  33  64
HETATM   64  O   UNL     1      -0.901   8.282   3.434  1.00  0.00    -0.388 OA
HETATM   65  H   UNL     1      -0.161   8.827   3.110  1.00  0.00     0.210 HD
ENDBRANCH  33  64
BRANCH  30  66
HETATM   66  C   UNL     1      -3.502   8.086  -0.028  1.00  0.00     0.198 C 
BRANCH  66  67
HETATM   67  O   UNL     1      -3.281   8.950   1.063  1.00  0.00    -0.398 OA
HETATM   68  H   UNL     1      -4.076   9.508   1.164  1.00  0.00     0.209 HD
ENDBRANCH  66  67
ENDBRANCH  30  66
BRANCH  34  69
HETATM   69  O   UNL     1      -2.610   5.632   3.611  1.00  0.00    -0.390 OA
HETATM   70  H   UNL     1      -1.719   5.281   3.729  1.00  0.00     0.210 HD
ENDBRANCH  34  69
BRANCH  16  71
HETATM   71  C   UNL     1      -3.292   4.055  -5.598  1.00  0.00     0.198 C 
BRANCH  71  72
HETATM   72  O   UNL     1      -2.989   4.737  -6.810  1.00  0.00    -0.398 OA
HETATM   73  H   UNL     1      -2.534   5.567  -6.578  1.00  0.00     0.209 HD
ENDBRANCH  71  72
ENDBRANCH  16  71
BRANCH  20  74
HETATM   74  O   UNL     1      -1.240   0.040  -6.158  1.00  0.00    -0.390 OA
HETATM   75  H   UNL     1      -0.321   0.375  -6.255  1.00  0.00     0.210 HD
ENDBRANCH  20  74
BRANCH  19  76
HETATM   76  O   UNL     1      -3.244  -0.382  -4.024  1.00  0.00    -0.388 OA
HETATM   77  H   UNL     1      -4.022  -0.223  -4.586  1.00  0.00     0.210 HD
ENDBRANCH  19  76
BRANCH  26  78
HETATM   78  O   UNL     1      -5.173   2.307   1.449  1.00  0.00    -0.388 OA
HETATM   79  H   UNL     1      -4.563   2.634   2.136  1.00  0.00     0.210 HD
ENDBRANCH  26  78
BRANCH  23  80
HETATM   80  C   UNL     1      -5.448   5.488  -1.807  1.00  0.00     0.198 C 
BRANCH  80  81
HETATM   81  O   UNL     1      -6.397   5.650  -2.853  1.00  0.00    -0.398 OA
HETATM   82  H   UNL     1      -5.952   6.090  -3.599  1.00  0.00     0.209 HD
ENDBRANCH  80  81
ENDBRANCH  23  80
BRANCH  27  83
HETATM   83  O   UNL     1      -5.933   1.026  -1.168  1.00  0.00    -0.390 OA
HETATM   84  H   UNL     1      -5.155   0.523  -1.466  1.00  0.00     0.210 HD
ENDBRANCH  27  83
TORSDOF 24
