REMARK WARNING: 32 MAX_TORS EXCEEDED!!!
REMARK  34 active torsions:
REMARK  status: ('A' for Active; 'I' for Inactive)
REMARK    1  A    between atoms: C_2  and  C_3 
REMARK    2  A    between atoms: C_3  and  C_4 
REMARK    3  A    between atoms: C_4  and  C_5 
REMARK    4  A    between atoms: C_5  and  C_6 
REMARK    5  A    between atoms: C_6  and  C_7 
REMARK    6  A    between atoms: C_7  and  C_8 
REMARK    7  A    between atoms: C_8  and  C_9 
REMARK    8  A    between atoms: C_9  and  C_10 
REMARK    9  A    between atoms: C_10  and  C_11 
REMARK   10  A    between atoms: C_11  and  C_12 
REMARK   11  A    between atoms: C_12  and  C_13 
REMARK   12  A    between atoms: C_13  and  C_14 
REMARK   13  A    between atoms: C_14  and  C_15 
REMARK   14  A    between atoms: C_15  and  C_16 
REMARK       I    between atoms: C_16  and  N_18 
REMARK   15  A    between atoms: N_18  and  C_19 
REMARK   16  A    between atoms: N_18  and  C_22 
REMARK   17  A    between atoms: C_19  and  C_20 
REMARK   18  A    between atoms: C_20  and  O_21 
REMARK   19  A    between atoms: C_22  and  C_23 
REMARK   20  A    between atoms: C_23  and  C_24 
REMARK   21  A    between atoms: C_23  and  O_43 
REMARK   22  A    between atoms: C_24  and  C_26 
REMARK   23  A    between atoms: C_24  and  O_42 
REMARK   24  A    between atoms: C_26  and  C_27 
REMARK   25  A    between atoms: C_27  and  C_28 
REMARK   26  A    between atoms: C_28  and  C_29 
REMARK   27  A    between atoms: C_29  and  C_31 
REMARK   28  A    between atoms: C_31  and  C_32 
REMARK   29  A    between atoms: C_32  and  C_33 
REMARK   30  A    between atoms: C_33  and  C_34 
REMARK   31  A    between atoms: C_34  and  C_36 
REMARK   32  A    between atoms: C_36  and  C_37 
REMARK   33  A    between atoms: C_37  and  C_38 
REMARK   34  A    between atoms: C_38  and  C_39 
ROOT
HETATM    1  C   UNL     1      18.788  -8.709  -7.156  1.00  0.00     0.160 C 
ENDROOT
BRANCH   1   2
HETATM    2  N   UNL     1      17.310  -8.613  -7.081  1.00  0.00    -0.348 N 
HETATM    3  C   UNL     1      16.691  -7.407  -6.640  1.00  0.00     0.219 C 
HETATM    4  O   UNL     1      15.537  -7.275  -6.244  1.00  0.00    -0.273 OA
BRANCH   3   5
HETATM    5  C   UNL     1      17.625  -6.228  -6.741  1.00  0.00     0.103 C 
BRANCH   5   6
HETATM    6  C   UNL     1      17.109  -4.884  -6.286  1.00  0.00     0.009 C 
BRANCH   6   7
HETATM    7  C   UNL     1      18.249  -3.894  -6.511  1.00  0.00     0.000 C 
BRANCH   7   8
HETATM    8  C   UNL     1      17.878  -2.522  -6.003  1.00  0.00     0.000 C 
BRANCH   8   9
HETATM    9  C   UNL     1      19.023  -1.550  -6.238  1.00  0.00     0.000 C 
BRANCH   9  10
HETATM   10  C   UNL     1      18.613  -0.187  -5.718  1.00  0.00     0.000 C 
BRANCH  10  11
HETATM   11  C   UNL     1      19.711   0.836  -5.933  1.00  0.00     0.000 C 
BRANCH  11  12
HETATM   12  C   UNL     1      19.245   2.181  -5.399  1.00  0.00     0.000 C 
BRANCH  12  13
HETATM   13  C   UNL     1      20.320   3.235  -5.594  1.00  0.00     0.000 C 
BRANCH  13  14
HETATM   14  C   UNL     1      19.839   4.574  -5.055  1.00  0.00     0.000 C 
BRANCH  14  15
HETATM   15  C   UNL     1      20.913   5.635  -5.246  1.00  0.00     0.000 C 
BRANCH  15  16
HETATM   16  C   UNL     1      20.441   6.980  -4.710  1.00  0.00     0.000 C 
BRANCH  16  17
HETATM   17  C   UNL     1      21.522   8.038  -4.905  1.00  0.00    -0.000 C 
BRANCH  17  18
HETATM   18  C   UNL     1      21.068   9.393  -4.372  1.00  0.00    -0.005 C 
HETATM   19  C   UNL     1      22.148  10.442  -4.566  1.00  0.00     0.005 C 
ENDBRANCH  17  18
ENDBRANCH  16  17
ENDBRANCH  15  16
ENDBRANCH  14  15
ENDBRANCH  13  14
ENDBRANCH  12  13
ENDBRANCH  11  12
ENDBRANCH  10  11
ENDBRANCH   9  10
ENDBRANCH   8   9
ENDBRANCH   7   8
ENDBRANCH   6   7
ENDBRANCH   5   6
ENDBRANCH   3   5
BRANCH   2  20
HETATM   20  C   UNL     1      16.564  -9.883  -7.027  1.00  0.00     0.151 C 
BRANCH  20  21
HETATM   21  C   UNL     1      15.045  -9.761  -7.177  1.00  0.00     0.183 C 
BRANCH  21  22
HETATM   22  O   UNL     1      14.757  -8.839  -8.220  1.00  0.00    -0.399 OA
HETATM   23  H   UNL     1      13.847  -8.509  -8.085  1.00  0.00     0.209 HD
ENDBRANCH  21  22
ENDBRANCH  20  21
ENDBRANCH   2  20
ENDBRANCH   1   2
BRANCH   1  24
HETATM   24  C   UNL     1      19.408  -9.582  -8.243  1.00  0.00     0.170 C 
BRANCH  24  25
HETATM   25  C   UNL     1      19.067  -9.186  -9.707  1.00  0.00     0.081 C 
HETATM   26  C   UNL     1      19.540  -7.788 -10.120  1.00  0.00     0.049 C 
BRANCH  25  27
HETATM   27  C   UNL     1      19.631 -10.238 -10.682  1.00  0.00     0.040 C 
BRANCH  27  28
HETATM   28  C   UNL     1      19.002 -11.600 -10.403  1.00  0.00     0.003 C 
BRANCH  28  29
HETATM   29  C   UNL     1      19.554 -12.711 -11.265  1.00  0.00     0.004 C 
BRANCH  29  30
HETATM   30  C   UNL     1      18.981 -14.066 -10.799  1.00  0.00    -0.019 C 
HETATM   31  C   UNL     1      17.462 -14.141 -10.975  1.00  0.00     0.010 C 
BRANCH  30  32
HETATM   32  C   UNL     1      19.661 -15.218 -11.539  1.00  0.00     0.004 C 
BRANCH  32  33
HETATM   33  C   UNL     1      21.137 -15.300 -11.161  1.00  0.00     0.001 C 
BRANCH  33  34
HETATM   34  C   UNL     1      21.832 -16.420 -11.906  1.00  0.00     0.004 C 
BRANCH  34  35
HETATM   35  C   UNL     1      23.353 -16.412 -11.668  1.00  0.00    -0.019 C 
HETATM   36  C   UNL     1      23.695 -16.642 -10.193  1.00  0.00     0.010 C 
BRANCH  35  37
HETATM   37  C   UNL     1      24.039 -17.467 -12.553  1.00  0.00     0.004 C 
BRANCH  37  38
HETATM   38  C   UNL     1      23.875 -17.134 -14.038  1.00  0.00     0.001 C 
BRANCH  38  39
HETATM   39  C   UNL     1      24.527 -18.163 -14.952  1.00  0.00     0.004 C 
BRANCH  39  40
HETATM   40  C   UNL     1      24.262 -17.847 -16.436  1.00  0.00    -0.023 C 
HETATM   41  C   UNL     1      24.832 -16.490 -16.854  1.00  0.00     0.009 C 
HETATM   42  C   UNL     1      24.844 -18.955 -17.312  1.00  0.00     0.009 C 
ENDBRANCH  39  40
ENDBRANCH  38  39
ENDBRANCH  37  38
ENDBRANCH  35  37
ENDBRANCH  34  35
ENDBRANCH  33  34
ENDBRANCH  32  33
ENDBRANCH  30  32
ENDBRANCH  29  30
ENDBRANCH  28  29
ENDBRANCH  27  28
ENDBRANCH  25  27
BRANCH  25  43
HETATM   43  O   UNL     1      17.646  -9.177  -9.827  1.00  0.00    -0.388 OA
HETATM   44  H   UNL     1      17.393  -8.760 -10.674  1.00  0.00     0.210 HD
ENDBRANCH  25  43
ENDBRANCH  24  25
BRANCH  24  45
HETATM   45  O   UNL     1      20.821  -9.631  -8.048  1.00  0.00    -0.391 OA
HETATM   46  H   UNL     1      21.251  -8.843  -8.425  1.00  0.00     0.210 HD
ENDBRANCH  24  45
ENDBRANCH   1  24
TORSDOF 34
