REMARK  18 active torsions:
REMARK  status: ('A' for Active; 'I' for Inactive)
REMARK    1  A    between atoms: C_1  and  C_2 
REMARK    2  A    between atoms: C_1  and  O_34 
REMARK    3  A    between atoms: C_3  and  O_33 
REMARK    4  A    between atoms: C_4  and  O_32 
REMARK    5  A    between atoms: C_5  and  O_31 
REMARK    6  A    between atoms: C_6  and  O_8 
REMARK    7  A    between atoms: O_8  and  C_9 
REMARK    8  A    between atoms: C_10  and  C_29 
REMARK    9  A    between atoms: C_12  and  O_17 
REMARK   10  A    between atoms: C_13  and  O_16 
REMARK   11  A    between atoms: C_14  and  O_15 
REMARK   12  A    between atoms: O_17  and  C_18 
REMARK   13  A    between atoms: C_19  and  C_27 
REMARK   14  A    between atoms: C_21  and  O_26 
REMARK   15  A    between atoms: C_22  and  O_25 
REMARK   16  A    between atoms: C_23  and  O_24 
REMARK   17  A    between atoms: C_27  and  O_28 
REMARK   18  A    between atoms: C_29  and  O_30 
ROOT
HETATM    1  C   UNL     1       4.458  -4.180  -0.806  1.00  0.00     0.187 C 
HETATM    2  C   UNL     1       3.756  -5.170   0.158  1.00  0.00     0.180 C 
HETATM    3  O   UNL     1       2.956  -4.480   1.133  1.00  0.00    -0.348 OA
HETATM    4  C   UNL     1       3.560  -3.445   1.899  1.00  0.00     0.292 C 
HETATM    5  C   UNL     1       4.587  -2.558   1.133  1.00  0.00     0.204 C 
HETATM    6  C   UNL     1       5.384  -3.307   0.055  1.00  0.00     0.183 C 
ENDROOT
BRANCH   1   7
HETATM    7  O   UNL     1       3.420  -3.456  -1.496  1.00  0.00    -0.348 OA
BRANCH   7   8
HETATM    8  C   UNL     1       3.718  -2.552  -2.574  1.00  0.00     0.292 C 
HETATM    9  C   UNL     1       4.572  -3.123  -3.742  1.00  0.00     0.204 C 
HETATM   10  C   UNL     1       4.801  -2.045  -4.819  1.00  0.00     0.183 C 
HETATM   11  C   UNL     1       5.286  -0.725  -4.198  1.00  0.00     0.180 C 
HETATM   12  C   UNL     1       4.410  -0.267  -3.032  1.00  0.00     0.179 C 
HETATM   13  O   UNL     1       4.230  -1.321  -2.055  1.00  0.00    -0.348 OA
BRANCH   9  14
HETATM   14  O   UNL     1       5.862  -3.614  -3.338  1.00  0.00    -0.388 OA
HETATM   15  H   UNL     1       6.270  -2.914  -2.778  1.00  0.00     0.210 HD
ENDBRANCH   9  14
BRANCH  10  16
HETATM   16  O   UNL     1       5.788  -2.465  -5.784  1.00  0.00    -0.390 OA
HETATM   17  H   UNL     1       5.948  -3.415  -5.627  1.00  0.00     0.210 HD
ENDBRANCH  10  16
BRANCH  11  18
HETATM   18  O   UNL     1       6.630  -0.917  -3.720  1.00  0.00    -0.390 OA
HETATM   19  H   UNL     1       7.108  -1.333  -4.468  1.00  0.00     0.210 HD
ENDBRANCH  11  18
BRANCH  12  20
HETATM   20  C   UNL     1       3.096   0.387  -3.481  1.00  0.00     0.198 C 
BRANCH  20  21
HETATM   21  O   UNL     1       2.387  -0.420  -4.415  1.00  0.00    -0.398 OA
HETATM   22  H   UNL     1       1.729   0.152  -4.852  1.00  0.00     0.209 HD
ENDBRANCH  20  21
ENDBRANCH  12  20
ENDBRANCH   7   8
ENDBRANCH   1   7
BRANCH   2  23
HETATM   23  C   UNL     1       4.739  -6.177   0.793  1.00  0.00     0.198 C 
BRANCH  23  24
HETATM   24  O   UNL     1       4.053  -7.146   1.580  1.00  0.00    -0.398 OA
HETATM   25  H   UNL     1       4.066  -6.827   2.501  1.00  0.00     0.209 HD
ENDBRANCH  23  24
ENDBRANCH   2  23
BRANCH   6  26
HETATM   26  O   UNL     1       6.166  -2.419  -0.753  1.00  0.00    -0.390 OA
HETATM   27  H   UNL     1       5.576  -1.677  -1.007  1.00  0.00     0.210 HD
ENDBRANCH   6  26
BRANCH   5  28
HETATM   28  O   UNL     1       5.462  -1.859   2.030  1.00  0.00    -0.388 OA
HETATM   29  H   UNL     1       6.080  -2.514   2.401  1.00  0.00     0.210 HD
ENDBRANCH   5  28
BRANCH   4  30
HETATM   30  O   UNL     1       4.037  -3.937   3.176  1.00  0.00    -0.348 OA
BRANCH  30  31
HETATM   31  C   UNL     1       2.985  -4.598   3.956  1.00  0.00     0.187 C 
HETATM   32  C   UNL     1       1.796  -3.701   4.380  1.00  0.00     0.180 C 
HETATM   33  O   UNL     1       2.163  -2.769   5.408  1.00  0.00    -0.349 OA
HETATM   34  C   UNL     1       2.684  -3.320   6.601  1.00  0.00     0.288 C 
HETATM   35  C   UNL     1       3.890  -4.246   6.354  1.00  0.00     0.204 C 
HETATM   36  C   UNL     1       3.616  -5.241   5.210  1.00  0.00     0.183 C 
BRANCH  32  37
HETATM   37  C   UNL     1       0.550  -4.535   4.745  1.00  0.00     0.198 C 
BRANCH  37  38
HETATM   38  O   UNL     1      -0.515  -3.685   5.160  1.00  0.00    -0.398 OA
HETATM   39  H   UNL     1      -0.171  -3.186   5.928  1.00  0.00     0.209 HD
ENDBRANCH  37  38
ENDBRANCH  32  37
BRANCH  34  40
HETATM   40  O   UNL     1       1.661  -3.962   7.355  1.00  0.00    -0.369 OA
HETATM   41  H   UNL     1       1.947  -4.881   7.516  1.00  0.00     0.212 HD
ENDBRANCH  34  40
BRANCH  35  42
HETATM   42  O   UNL     1       4.160  -4.984   7.565  1.00  0.00    -0.388 OA
HETATM   43  H   UNL     1       4.116  -4.368   8.319  1.00  0.00     0.210 HD
ENDBRANCH  35  42
BRANCH  36  44
HETATM   44  O   UNL     1       4.814  -5.935   4.824  1.00  0.00    -0.390 OA
HETATM   45  H   UNL     1       5.405  -5.260   4.442  1.00  0.00     0.210 HD
ENDBRANCH  36  44
ENDBRANCH  30  31
ENDBRANCH   4  30
TORSDOF 18
