REMARK  20 active torsions:
REMARK  status: ('A' for Active; 'I' for Inactive)
REMARK    1  A    between atoms: C_2  and  C_3 
REMARK    2  A    between atoms: C_3  and  C_4 
REMARK    3  A    between atoms: C_4  and  C_5 
REMARK    4  A    between atoms: C_5  and  C_6 
REMARK    5  A    between atoms: C_5  and  C_8 
REMARK    6  A    between atoms: C_8  and  O_9 
REMARK    7  A    between atoms: O_9  and  C_10 
REMARK    8  A    between atoms: C_10  and  C_12 
REMARK    9  A    between atoms: C_12  and  C_25 
REMARK   10  A    between atoms: C_13  and  C_14 
REMARK   11  A    between atoms: C_16  and  O_23 
REMARK   12  A    between atoms: C_17  and  O_22 
REMARK   13  A    between atoms: C_18  and  O_20 
REMARK   14  A    between atoms: C_25  and  O_27 
REMARK   15  A    between atoms: O_27  and  C_28 
REMARK   16  A    between atoms: C_28  and  C_29 
REMARK   17  A    between atoms: C_29  and  C_30 
REMARK   18  A    between atoms: C_29  and  C_32 
REMARK   19  A    between atoms: C_32  and  C_33 
REMARK   20  A    between atoms: C_33  and  C_34 
ROOT
HETATM    1  C   UNL     1       8.722  -3.499  -4.516  1.00  0.00     0.115 C 
HETATM    2  C   UNL     1       7.814  -4.059  -5.351  1.00  0.00     0.035 C 
ENDROOT
BRANCH   1   3
HETATM    3  C   UNL     1       8.325  -2.536  -3.440  1.00  0.00     0.299 C 
HETATM    4  O   UNL     1       7.304  -1.865  -3.469  1.00  0.00    -0.259 OA
BRANCH   3   5
HETATM    5  O   UNL     1       9.295  -2.425  -2.488  1.00  0.00    -0.317 OA
BRANCH   5   6
HETATM    6  C   UNL     1       9.390  -1.140  -1.835  1.00  0.00     0.183 C 
BRANCH   6   7
HETATM    7  C   UNL     1       9.147  -1.186  -0.311  1.00  0.00     0.010 C 
BRANCH   7   8
HETATM    8  C   UNL     1      10.149  -2.109   0.431  1.00  0.00     0.007 C 
BRANCH   8   9
HETATM    9  C   UNL     1       9.896  -2.159   1.948  1.00  0.00     0.000 C 
BRANCH   9  10
HETATM   10  C   UNL     1      10.895  -3.039   2.700  1.00  0.00    -0.005 C 
HETATM   11  C   UNL     1      10.577  -3.061   4.191  1.00  0.00     0.005 C 
ENDBRANCH   9  10
ENDBRANCH   8   9
ENDBRANCH   7   8
BRANCH   7  12
HETATM   12  C   UNL     1       9.123   0.259   0.257  1.00  0.00     0.002 C 
HETATM   13  C   UNL     1      10.445   1.017   0.159  1.00  0.00     0.005 C 
ENDBRANCH   7  12
ENDBRANCH   6   7
ENDBRANCH   5   6
ENDBRANCH   3   5
ENDBRANCH   1   3
BRANCH   1  14
HETATM   14  C   UNL     1      10.175  -3.667  -4.844  1.00  0.00     0.299 C 
HETATM   15  O   UNL     1      11.033  -2.845  -4.553  1.00  0.00    -0.259 OA
BRANCH  14  16
HETATM   16  O   UNL     1      10.408  -4.748  -5.651  1.00  0.00    -0.317 OA
BRANCH  16  17
HETATM   17  C   UNL     1      11.299  -4.472  -6.747  1.00  0.00     0.183 C 
BRANCH  17  18
HETATM   18  C   UNL     1      12.661  -5.192  -6.691  1.00  0.00     0.010 C 
BRANCH  18  19
HETATM   19  C   UNL     1      12.538  -6.726  -6.531  1.00  0.00     0.002 C 
HETATM   20  C   UNL     1      11.823  -7.449  -7.666  1.00  0.00     0.005 C 
ENDBRANCH  18  19
BRANCH  18  21
HETATM   21  C   UNL     1      13.519  -4.839  -7.937  1.00  0.00     0.007 C 
BRANCH  21  22
HETATM   22  C   UNL     1      13.842  -3.343  -8.062  1.00  0.00     0.000 C 
BRANCH  22  23
HETATM   23  C   UNL     1      14.662  -3.024  -9.313  1.00  0.00    -0.005 C 
HETATM   24  C   UNL     1      14.910  -1.526  -9.430  1.00  0.00     0.005 C 
ENDBRANCH  22  23
ENDBRANCH  21  22
ENDBRANCH  18  21
ENDBRANCH  17  18
ENDBRANCH  16  17
ENDBRANCH  14  16
ENDBRANCH   1  14
BRANCH   2  25
HETATM   25  C   UNL     1       6.342  -3.972  -5.327  1.00  0.00    -0.029 A 
HETATM   26  C   UNL     1       5.645  -2.987  -6.044  1.00  0.00     0.051 A 
HETATM   27  C   UNL     1       4.241  -2.939  -6.019  1.00  0.00     0.104 A 
HETATM   28  C   UNL     1       3.540  -3.880  -5.251  1.00  0.00     0.133 A 
HETATM   29  C   UNL     1       4.221  -4.922  -4.611  1.00  0.00     0.104 A 
HETATM   30  C   UNL     1       5.617  -4.950  -4.639  1.00  0.00     0.051 A 
BRANCH  27  31
HETATM   31  O   UNL     1       3.670  -1.884  -6.687  1.00  0.00    -0.353 OA
HETATM   32  C   UNL     1       2.460  -2.164  -7.395  1.00  0.00     0.210 C 
ENDBRANCH  27  31
BRANCH  28  33
HETATM   33  O   UNL     1       2.211  -3.697  -4.988  1.00  0.00    -0.356 OA
HETATM   34  H   UNL     1       2.174  -2.837  -4.526  1.00  0.00     0.218 HD
ENDBRANCH  28  33
BRANCH  29  35
HETATM   35  O   UNL     1       3.643  -5.925  -3.873  1.00  0.00    -0.353 OA
HETATM   36  C   UNL     1       2.345  -6.343  -4.298  1.00  0.00     0.210 C 
ENDBRANCH  29  35
ENDBRANCH   2  25
TORSDOF 20
