REMARK  4 active torsions:
REMARK  status: ('A' for Active; 'I' for Inactive)
REMARK    1  A    between atoms: C_1  and  C_2 
REMARK    2  A    between atoms: C_1  and  O_6 
REMARK    3  A    between atoms: C_2  and  C_4 
REMARK    4  A    between atoms: C_4  and  O_5 
ROOT
HETATM    1  C   UNL     1       0.433   1.509   0.020  1.00  0.00     0.173 C 
HETATM    2  O   UNL     1       1.235   2.446   0.016  1.00  0.00    -0.293 OA
ENDROOT
BRANCH   1   3
HETATM    3  C   UNL     1       0.887   0.054  -0.036  1.00  0.00     0.244 C 
BRANCH   3   4
HETATM    4  O   UNL     1       2.296  -0.089  -0.046  1.00  0.00    -0.394 OA
HETATM    5  H   UNL     1       2.656   0.696  -0.502  1.00  0.00     0.209 HD
ENDBRANCH   3   4
ENDBRANCH   1   3
BRANCH   1   6
HETATM    6  C   UNL     1      -1.074   1.731   0.082  1.00  0.00     0.244 C 
BRANCH   6   7
HETATM    7  O   UNL     1      -1.435   3.101   0.087  1.00  0.00    -0.394 OA
HETATM    8  H   UNL     1      -0.713   3.581   0.537  1.00  0.00     0.209 HD
ENDBRANCH   6   7
ENDBRANCH   1   6
TORSDOF 4
