REMARK  9 active torsions:
REMARK  status: ('A' for Active; 'I' for Inactive)
REMARK    1  A    between atoms: C_2  and  O_4 
REMARK    2  A    between atoms: O_4  and  C_5 
REMARK    3  A    between atoms: C_5  and  C_7 
REMARK    4  A    between atoms: C_7  and  C_8 
REMARK    5  A    between atoms: C_8  and  C_9 
REMARK    6  A    between atoms: C_9  and  C_10 
REMARK    7  A    between atoms: C_10  and  C_11 
REMARK    8  A    between atoms: C_11  and  O_13 
REMARK    9  A    between atoms: O_13  and  C_14 
ROOT
HETATM    1  C   UNL     1       6.514   1.781   2.500  1.00  0.00     0.010 C 
ENDROOT
BRANCH   1   2
HETATM    2  C   UNL     1       4.981   1.717   2.433  1.00  0.00     0.111 C 
BRANCH   2   3
HETATM    3  C   UNL     1       4.532   0.857   1.272  1.00  0.00     0.259 C 
HETATM    4  O   UNL     1       5.294   0.300   0.495  1.00  0.00    -0.265 OA
BRANCH   3   5
HETATM    5  O   UNL     1       3.172   0.783   1.213  1.00  0.00    -0.317 OA
BRANCH   5   6
HETATM    6  C   UNL     1       2.660  -0.060   0.159  1.00  0.00     0.123 C 
HETATM    7  C   UNL     1       2.728  -1.521   0.595  1.00  0.00     0.040 C 
HETATM    8  C   UNL     1       1.216   0.334  -0.130  1.00  0.00     0.040 C 
ENDBRANCH   5   6
ENDBRANCH   3   5
ENDBRANCH   2   3
ENDBRANCH   1   2
BRANCH   1   9
HETATM    9  C   UNL     1       7.003   2.649   3.658  1.00  0.00     0.010 C 
BRANCH   9  10
HETATM   10  C   UNL     1       8.534   2.724   3.725  1.00  0.00     0.111 C 
BRANCH  10  11
HETATM   11  C   UNL     1       8.975   3.603   4.875  1.00  0.00     0.259 C 
HETATM   12  O   UNL     1       8.214   4.176   5.643  1.00  0.00    -0.265 OA
BRANCH  11  13
HETATM   13  O   UNL     1      10.338   3.669   4.935  1.00  0.00    -0.317 OA
BRANCH  13  14
HETATM   14  C   UNL     1      10.863   4.498   5.992  1.00  0.00     0.123 C 
HETATM   15  C   UNL     1      10.860   3.729   7.310  1.00  0.00     0.040 C 
HETATM   16  C   UNL     1      12.286   4.901   5.622  1.00  0.00     0.040 C 
ENDBRANCH  13  14
ENDBRANCH  11  13
ENDBRANCH  10  11
ENDBRANCH   9  10
ENDBRANCH   1   9
TORSDOF 9
