REMARK  19 active torsions:
REMARK  status: ('A' for Active; 'I' for Inactive)
REMARK    1  A    between atoms: C_2  and  C_4 
REMARK    2  A    between atoms: C_4  and  C_5 
REMARK    3  A    between atoms: C_5  and  C_6 
REMARK    4  A    between atoms: C_6  and  C_7 
REMARK    5  A    between atoms: C_7  and  C_8 
REMARK    6  A    between atoms: C_8  and  O_9 
REMARK    7  A    between atoms: O_9  and  C_10 
REMARK    8  A    between atoms: C_10  and  C_12 
REMARK    9  A    between atoms: C_12  and  C_13 
REMARK   10  A    between atoms: C_13  and  C_14 
REMARK   11  A    between atoms: C_14  and  C_15 
REMARK   12  A    between atoms: C_15  and  C_16 
REMARK   13  A    between atoms: C_16  and  O_18 
REMARK   14  A    between atoms: O_18  and  C_19 
REMARK   15  A    between atoms: C_19  and  C_20 
REMARK   16  A    between atoms: C_20  and  C_21 
REMARK   17  A    between atoms: C_21  and  C_22 
REMARK   18  A    between atoms: C_22  and  C_23 
REMARK   19  A    between atoms: C_23  and  C_24 
ROOT
HETATM    1  C   UNL     1      11.166  -6.945  -0.363  1.00  0.00     0.010 C 
ENDROOT
BRANCH   1   2
HETATM    2  C   UNL     1      10.582  -5.542  -0.245  1.00  0.00     0.111 C 
BRANCH   2   3
HETATM    3  C   UNL     1       9.085  -5.522  -0.429  1.00  0.00     0.258 C 
HETATM    4  O   UNL     1       8.375  -6.494  -0.654  1.00  0.00    -0.265 OA
BRANCH   3   5
HETATM    5  O   UNL     1       8.672  -4.223  -0.464  1.00  0.00    -0.321 OA
BRANCH   5   6
HETATM    6  C   UNL     1       7.711  -3.953  -1.485  1.00  0.00     0.178 C 
BRANCH   6   7
HETATM    7  C   UNL     1       6.325  -3.674  -0.921  1.00  0.00     0.027 C 
BRANCH   7   8
HETATM    8  C   UNL     1       5.384  -3.301  -2.065  1.00  0.00     0.002 C 
BRANCH   8   9
HETATM    9  C   UNL     1       3.963  -3.020  -1.582  1.00  0.00     0.000 C 
BRANCH   9  10
HETATM   10  C   UNL     1       3.040  -2.674  -2.758  1.00  0.00     0.004 C 
BRANCH  10  11
HETATM   11  C   UNL     1       1.599  -2.346  -2.330  1.00  0.00    -0.023 C 
HETATM   12  C   UNL     1       0.763  -1.966  -3.555  1.00  0.00     0.009 C 
HETATM   13  C   UNL     1       0.930  -3.507  -1.592  1.00  0.00     0.009 C 
ENDBRANCH  10  11
ENDBRANCH   9  10
ENDBRANCH   8   9
ENDBRANCH   7   8
ENDBRANCH   6   7
ENDBRANCH   5   6
ENDBRANCH   3   5
ENDBRANCH   2   3
ENDBRANCH   1   2
BRANCH   1  14
HETATM   14  C   UNL     1      12.694  -6.902  -0.358  1.00  0.00     0.010 C 
BRANCH  14  15
HETATM   15  C   UNL     1      13.283  -8.308  -0.443  1.00  0.00     0.111 C 
BRANCH  15  16
HETATM   16  C   UNL     1      14.781  -8.286  -0.620  1.00  0.00     0.258 C 
HETATM   17  O   UNL     1      15.476  -7.283  -0.686  1.00  0.00    -0.265 OA
BRANCH  16  18
HETATM   18  O   UNL     1      15.206  -9.560  -0.849  1.00  0.00    -0.321 OA
BRANCH  18  19
HETATM   19  C   UNL     1      16.181  -9.668  -1.887  1.00  0.00     0.178 C 
BRANCH  19  20
HETATM   20  C   UNL     1      17.564 -10.016  -1.359  1.00  0.00     0.027 C 
BRANCH  20  21
HETATM   21  C   UNL     1      18.515 -10.211  -2.543  1.00  0.00     0.002 C 
BRANCH  21  22
HETATM   22  C   UNL     1      19.923 -10.593  -2.098  1.00  0.00     0.000 C 
BRANCH  22  23
HETATM   23  C   UNL     1      20.845 -10.802  -3.307  1.00  0.00     0.004 C 
BRANCH  23  24
HETATM   24  C   UNL     1      22.290 -11.156  -2.913  1.00  0.00    -0.023 C 
HETATM   25  C   UNL     1      22.377 -12.465  -2.126  1.00  0.00     0.009 C 
HETATM   26  C   UNL     1      23.163 -11.253  -4.167  1.00  0.00     0.009 C 
ENDBRANCH  23  24
ENDBRANCH  22  23
ENDBRANCH  21  22
ENDBRANCH  20  21
ENDBRANCH  19  20
ENDBRANCH  18  19
ENDBRANCH  16  18
ENDBRANCH  15  16
ENDBRANCH  14  15
ENDBRANCH   1  14
TORSDOF 19
