REMARK  16 active torsions:
REMARK  status: ('A' for Active; 'I' for Inactive)
REMARK    1  A    between atoms: C_2  and  C_3 
REMARK    2  A    between atoms: C_3  and  C_4 
REMARK    3  A    between atoms: C_4  and  C_5 
REMARK    4  A    between atoms: C_5  and  C_6 
REMARK    5  A    between atoms: C_6  and  C_7 
REMARK    6  A    between atoms: C_7  and  C_8 
REMARK    7  A    between atoms: C_8  and  C_9 
REMARK    8  A    between atoms: C_9  and  C_10 
REMARK    9  A    between atoms: C_10  and  C_11 
REMARK   10  A    between atoms: C_11  and  C_12 
REMARK   11  A    between atoms: C_12  and  C_13 
REMARK   12  A    between atoms: C_13  and  C_14 
REMARK   13  A    between atoms: C_14  and  C_15 
REMARK   14  A    between atoms: C_15  and  C_16 
REMARK   15  A    between atoms: C_16  and  C_18 
REMARK   16  A    between atoms: C_19  and  O_30 
ROOT
HETATM    1  C   UNL     1      16.697   9.496  -3.190  1.00  0.00     0.162 C 
HETATM    2  O   UNL     1      17.358   9.011  -4.105  1.00  0.00    -0.292 OA
ENDROOT
BRANCH   1   3
HETATM    3  C   UNL     1      15.178   9.475  -3.244  1.00  0.00     0.084 C 
BRANCH   3   4
HETATM    4  C   UNL     1      14.642   8.111  -2.826  1.00  0.00     0.008 C 
BRANCH   4   5
HETATM    5  C   UNL     1      13.121   8.120  -2.770  1.00  0.00     0.000 C 
BRANCH   5   6
HETATM    6  C   UNL     1      12.593   6.771  -2.290  1.00  0.00     0.000 C 
BRANCH   6   7
HETATM    7  C   UNL     1      11.071   6.764  -2.272  1.00  0.00     0.000 C 
BRANCH   7   8
HETATM    8  C   UNL     1      10.551   5.410  -1.807  1.00  0.00     0.000 C 
BRANCH   8   9
HETATM    9  C   UNL     1       9.029   5.398  -1.802  1.00  0.00     0.000 C 
BRANCH   9  10
HETATM   10  C   UNL     1       8.511   4.042  -1.343  1.00  0.00     0.000 C 
BRANCH  10  11
HETATM   11  C   UNL     1       6.989   4.028  -1.337  1.00  0.00     0.000 C 
BRANCH  11  12
HETATM   12  C   UNL     1       6.473   2.672  -0.881  1.00  0.00     0.000 C 
BRANCH  12  13
HETATM   13  C   UNL     1       4.950   2.659  -0.874  1.00  0.00     0.000 C 
BRANCH  13  14
HETATM   14  C   UNL     1       4.429   1.302  -0.419  1.00  0.00     0.000 C 
BRANCH  14  15
HETATM   15  C   UNL     1       2.903   1.287  -0.413  1.00  0.00    -0.000 C 
BRANCH  15  16
HETATM   16  C   UNL     1       2.371  -0.065   0.043  1.00  0.00    -0.005 C 
HETATM   17  C   UNL     1       0.851  -0.079   0.049  1.00  0.00     0.005 C 
ENDBRANCH  15  16
ENDBRANCH  14  15
ENDBRANCH  13  14
ENDBRANCH  12  13
ENDBRANCH  11  12
ENDBRANCH  10  11
ENDBRANCH   9  10
ENDBRANCH   8   9
ENDBRANCH   7   8
ENDBRANCH   6   7
ENDBRANCH   5   6
ENDBRANCH   4   5
ENDBRANCH   3   4
ENDBRANCH   1   3
BRANCH   1  18
HETATM   18  C   UNL     1      17.354  10.062  -1.968  1.00  0.00     0.044 A 
HETATM   19  C   UNL     1      18.615  10.677  -2.012  1.00  0.00     0.084 A 
HETATM   20  C   UNL     1      19.161  11.185  -0.822  1.00  0.00     0.075 A 
HETATM   21  C   UNL     1      18.467  11.082   0.386  1.00  0.00     0.079 A 
HETATM   22  C   UNL     1      17.214  10.483   0.429  1.00  0.00    -0.024 A 
HETATM   23  O   UNL     1      19.091  11.632   1.473  1.00  0.00    -0.340 OA
HETATM   24  C   UNL     1      16.674   9.960  -0.744  1.00  0.00     0.028 A 
HETATM   25  C   UNL     1      16.442  10.368   1.708  1.00  0.00     0.044 C 
HETATM   26  C   UNL     1      16.973  11.374   2.715  1.00  0.00     0.042 C 
HETATM   27  C   UNL     1      18.509  11.360   2.758  1.00  0.00     0.061 C 
HETATM   28  C   UNL     1      18.990  12.499   3.670  1.00  0.00     0.046 C 
HETATM   29  C   UNL     1      19.076  10.032   3.283  1.00  0.00     0.046 C 
BRANCH  19  30
HETATM   30  O   UNL     1      19.238  10.786  -3.226  1.00  0.00    -0.355 OA
HETATM   31  C   UNL     1      20.533  11.378  -3.255  1.00  0.00     0.210 C 
ENDBRANCH  19  30
ENDBRANCH   1  18
TORSDOF 16
