REMARK  2 active torsions:
REMARK  status: ('A' for Active; 'I' for Inactive)
REMARK    1  A    between atoms: C_7  and  O_14 
REMARK    2  A    between atoms: C_8  and  O_12 
ROOT
HETATM    1  C   UNL     1       1.128   0.296   0.095  1.00  0.00     0.046 C 
HETATM    2  C   UNL     1       2.646   0.112  -0.049  1.00  0.00     0.061 C 
HETATM    3  C   UNL     1       3.077  -1.092   0.800  1.00  0.00     0.042 C 
HETATM    4  C   UNL     1       4.586  -1.275   0.755  1.00  0.00     0.044 C 
HETATM    5  C   UNL     1       5.284   0.045   0.888  1.00  0.00    -0.022 A 
HETATM    6  C   UNL     1       6.662   0.079   1.132  1.00  0.00     0.049 A 
HETATM    7  C   UNL     1       7.338   1.301   1.251  1.00  0.00     0.099 A 
HETATM    8  C   UNL     1       6.638   2.508   1.141  1.00  0.00     0.103 A 
HETATM    9  C   UNL     1       5.261   2.465   0.884  1.00  0.00     0.077 A 
HETATM   10  C   UNL     1       4.592   1.247   0.735  1.00  0.00     0.079 A 
HETATM   11  O   UNL     1       3.255   1.323   0.439  1.00  0.00    -0.340 OA
HETATM   12  C   UNL     1       2.971  -0.055  -1.543  1.00  0.00     0.046 C 
ENDROOT
BRANCH   8  13
HETATM   13  O   UNL     1       7.124   3.785   1.241  1.00  0.00    -0.353 OA
HETATM   14  C   UNL     1       8.513   3.956   1.482  1.00  0.00     0.210 C 
ENDBRANCH   8  13
BRANCH   7  15
HETATM   15  O   UNL     1       8.686   1.270   1.472  1.00  0.00    -0.358 OA
HETATM   16  H   UNL     1       8.988   0.347   1.472  1.00  0.00     0.217 HD
ENDBRANCH   7  15
TORSDOF 2
