REMARK  13 active torsions:
REMARK  status: ('A' for Active; 'I' for Inactive)
REMARK    1  A    between atoms: C_2  and  O_4 
REMARK    2  A    between atoms: C_7  and  O_9 
REMARK    3  A    between atoms: C_13  and  C_21 
REMARK       I    between atoms: N_14  and  C_16 
REMARK    4  A    between atoms: C_16  and  C_18 
REMARK    5  A    between atoms: C_18  and  C_19 
REMARK    6  A    between atoms: C_19  and  N_20 
REMARK       I    between atoms: C_21  and  N_23 
REMARK    7  A    between atoms: N_23  and  C_24 
REMARK    8  A    between atoms: C_24  and  C_25 
REMARK    9  A    between atoms: C_24  and  C_28 
REMARK   10  A    between atoms: C_25  and  C_26 
REMARK   11  A    between atoms: C_26  and  N_27 
REMARK       I    between atoms: C_28  and  N_30 
REMARK   12  A    between atoms: N_30  and  C_31 
REMARK   13  A    between atoms: C_31  and  C_32 
ROOT
HETATM    1  C   UNL     1       3.263  -1.155   0.041  1.00  0.00     0.125 C 
HETATM    2  C   UNL     1       4.721  -1.112   0.278  1.00  0.00     0.135 C 
HETATM    3  O   UNL     1       5.530  -1.857  -0.263  1.00  0.00    -0.650 OA
ENDROOT
BRANCH   2   4
HETATM    4  O   UNL     1       5.084  -0.157   1.168  1.00  0.00    -0.777 OA
HETATM    5  H   UNL     1       4.335   0.387   1.501  1.00  0.00     0.167 HD
ENDBRANCH   2   4
TORSDOF 13
