REMARK  9 active torsions:
REMARK  status: ('A' for Active; 'I' for Inactive)
REMARK    1  A    between atoms: C_2  and  C_3 
REMARK    2  A    between atoms: C_3  and  C_4 
REMARK    3  A    between atoms: C_4  and  C_5 
REMARK    4  A    between atoms: C_5  and  C_6 
REMARK    5  A    between atoms: C_6  and  C_7 
REMARK    6  A    between atoms: C_7  and  C_8 
REMARK    7  A    between atoms: C_8  and  C_9 
REMARK    8  A    between atoms: C_9  and  C_10 
REMARK    9  A    between atoms: C_10  and  C_11 
ROOT
HETATM    1  C   UNL     1       6.656  -1.699  -2.272  1.00  0.00     0.000 C 
ENDROOT
BRANCH   1   2
HETATM    2  C   UNL     1       5.138  -1.693  -2.264  1.00  0.00     0.000 C 
BRANCH   2   3
HETATM    3  C   UNL     1       4.618  -0.821  -1.131  1.00  0.00     0.000 C 
BRANCH   3   4
HETATM    4  C   UNL     1       3.098  -0.815  -1.121  1.00  0.00    -0.000 C 
BRANCH   4   5
HETATM    5  C   UNL     1       2.566   0.060   0.008  1.00  0.00    -0.005 C 
HETATM    6  C   UNL     1       1.048   0.060   0.015  1.00  0.00     0.005 C 
ENDBRANCH   4   5
ENDBRANCH   3   4
ENDBRANCH   2   3
ENDBRANCH   1   2
BRANCH   1   7
HETATM    7  C   UNL     1       7.173  -2.573  -3.407  1.00  0.00     0.000 C 
BRANCH   7   8
HETATM    8  C   UNL     1       8.693  -2.579  -3.418  1.00  0.00     0.000 C 
BRANCH   8   9
HETATM    9  C   UNL     1       9.209  -3.452  -4.552  1.00  0.00     0.000 C 
BRANCH   9  10
HETATM   10  C   UNL     1      10.732  -3.457  -4.562  1.00  0.00    -0.000 C 
BRANCH  10  11
HETATM   11  C   UNL     1      11.262  -4.328  -5.693  1.00  0.00    -0.005 C 
HETATM   12  C   UNL     1      12.779  -4.332  -5.701  1.00  0.00     0.005 C 
ENDBRANCH  10  11
ENDBRANCH   9  10
ENDBRANCH   8   9
ENDBRANCH   7   8
ENDBRANCH   1   7
TORSDOF 9
