REMARK  2 active torsions:
REMARK  status: ('A' for Active; 'I' for Inactive)
REMARK    1  A    between atoms: CA_7  and  C_9 
REMARK    2  A    between atoms: C_9  and  OXT_11 
ROOT
HETATM    1  C   UNL     1       0.975   0.032   0.070  1.00  0.00     0.088 C 
HETATM    2  C   UNL     1       2.485   0.082   0.076  1.00  0.00     0.069 C 
HETATM    3  N   UNL     1       3.043   1.227   0.030  1.00  0.00    -0.380 N 
ATOM      4  HN  UNL     1       2.463   2.065  -0.012  1.00  0.00     0.160 HD
HETATM    5  C   UNL     1       4.491   1.361   0.036  1.00  0.00     0.123 C 
HETATM    6  C   UNL     1       5.314   0.084  -0.028  1.00  0.00     0.056 C 
HETATM    7  CA  UNL     1       4.581  -1.242   0.086  1.00  0.00     0.182 C 
HETATM    8  N   UNL     1       3.136  -1.108   0.163  1.00  0.00    -0.366 N 
HETATM    9  H   UNL     1       2.607  -1.960  -0.014  1.00  0.00     0.161 HD
ENDROOT
BRANCH   7  10
HETATM   10  C   UNL     1       5.058  -1.986   1.338  1.00  0.00     0.163 C 
HETATM   11  O   UNL     1       6.033  -2.722   1.381  1.00  0.00    -0.648 OA
BRANCH  10  12
HETATM   12  OXT UNL     1       4.285  -1.722   2.423  1.00  0.00    -0.775 OA
HETATM   13  HXT UNL     1       3.560  -1.113   2.156  1.00  0.00     0.167 HD
ENDBRANCH  10  12
ENDBRANCH   7  10
TORSDOF 2
