REMARK  7 active torsions:
REMARK  status: ('A' for Active; 'I' for Inactive)
REMARK    1  A    between atoms: C_2  and  O_3 
REMARK    2  A    between atoms: O_3  and  C_4 
REMARK    3  A    between atoms: C_4  and  C_5 
REMARK    4  A    between atoms: C_5  and  O_6 
REMARK    5  A    between atoms: O_6  and  C_7 
REMARK    6  A    between atoms: C_7  and  C_8 
REMARK    7  A    between atoms: C_8  and  O_9 
ROOT
HETATM    1  C   UNL     1       4.814  -2.701  -0.535  1.00  0.00     0.193 C 
ENDROOT
BRANCH   1   2
HETATM    2  C   UNL     1       4.330  -1.281  -0.244  1.00  0.00     0.193 C 
BRANCH   2   3
HETATM    3  O   UNL     1       4.769  -0.401  -1.284  1.00  0.00    -0.389 OA
BRANCH   3   4
HETATM    4  C   UNL     1       4.384   0.946  -1.031  1.00  0.00     0.163 C 
HETATM    5  C   UNL     1       4.949   1.822  -2.134  1.00  0.00     0.033 C 
ENDBRANCH   3   4
ENDBRANCH   2   3
ENDBRANCH   1   2
BRANCH   1   6
HETATM    6  O   UNL     1       6.246  -2.754  -0.474  1.00  0.00    -0.387 OA
BRANCH   6   7
HETATM    7  C   UNL     1       6.728  -4.069  -0.777  1.00  0.00     0.193 C 
BRANCH   7   8
HETATM    8  C   UNL     1       8.253  -4.042  -0.795  1.00  0.00     0.190 C 
BRANCH   8   9
HETATM    9  O   UNL     1       8.755  -3.607   0.469  1.00  0.00    -0.399 OA
HETATM   10  H   UNL     1       8.308  -2.751   0.632  1.00  0.00     0.209 HD
ENDBRANCH   8   9
ENDBRANCH   7   8
ENDBRANCH   6   7
ENDBRANCH   1   6
TORSDOF 7
