REMARK  9 active torsions:
REMARK  status: ('A' for Active; 'I' for Inactive)
REMARK    1  A    between atoms: C_2  and  C_3 
REMARK    2  A    between atoms: C_3  and  C_4 
REMARK    3  A    between atoms: C_4  and  C_5 
REMARK    4  A    between atoms: C_5  and  C_6 
REMARK    5  A    between atoms: C_5  and  C_8 
REMARK    6  A    between atoms: C_8  and  O_9 
REMARK    7  A    between atoms: O_9  and  C_10 
REMARK    8  A    between atoms: C_10  and  C_12 
REMARK    9  A    between atoms: C_17  and  O_18 
ROOT
HETATM    1  C   UNL     1       6.942   3.948  -0.414  1.00  0.00     0.296 C 
HETATM    2  O   UNL     1       6.565   4.934   0.208  1.00  0.00    -0.259 OA
ENDROOT
BRANCH   1   3
HETATM    3  O   UNL     1       7.037   2.690   0.080  1.00  0.00    -0.317 OA
BRANCH   3   4
HETATM    4  C   UNL     1       6.582   2.531   1.433  1.00  0.00     0.183 C 
BRANCH   4   5
HETATM    5  C   UNL     1       5.046   2.424   1.509  1.00  0.00     0.010 C 
BRANCH   5   6
HETATM    6  C   UNL     1       4.550   1.219   0.668  1.00  0.00     0.007 C 
BRANCH   6   7
HETATM    7  C   UNL     1       3.025   1.091   0.625  1.00  0.00     0.000 C 
BRANCH   7   8
HETATM    8  C   UNL     1       2.533  -0.095  -0.208  1.00  0.00    -0.005 C 
HETATM    9  C   UNL     1       1.010  -0.131  -0.199  1.00  0.00     0.005 C 
ENDBRANCH   7   8
ENDBRANCH   6   7
ENDBRANCH   5   6
BRANCH   5  10
HETATM   10  C   UNL     1       4.568   2.425   2.978  1.00  0.00     0.002 C 
HETATM   11  C   UNL     1       5.050   1.264   3.839  1.00  0.00     0.005 C 
ENDBRANCH   5  10
ENDBRANCH   4   5
ENDBRANCH   3   4
ENDBRANCH   1   3
BRANCH   1  12
HETATM   12  C   UNL     1       7.448   4.044  -1.805  1.00  0.00     0.072 A 
HETATM   13  C   UNL     1       8.074   5.252  -2.163  1.00  0.00     0.020 A 
HETATM   14  C   UNL     1       8.541   5.452  -3.463  1.00  0.00     0.001 A 
HETATM   15  C   UNL     1       8.380   4.445  -4.416  1.00  0.00     0.003 A 
HETATM   16  C   UNL     1       7.751   3.245  -4.073  1.00  0.00     0.037 A 
HETATM   17  C   UNL     1       7.279   3.050  -2.768  1.00  0.00     0.082 A 
BRANCH  17  18
HETATM   18  O   UNL     1       6.625   1.886  -2.475  1.00  0.00    -0.360 OA
HETATM   19  H   UNL     1       6.648   1.297  -3.242  1.00  0.00     0.217 HD
ENDBRANCH  17  18
ENDBRANCH   1  12
TORSDOF 9
