REMARK  6 active torsions:
REMARK  status: ('A' for Active; 'I' for Inactive)
REMARK    1  A    between atoms: C_2  and  O_3 
REMARK    2  A    between atoms: O_3  and  C_4 
REMARK    3  A    between atoms: C_4  and  C_6 
REMARK    4  A    between atoms: C_7  and  C_8 
REMARK    5  A    between atoms: C_10  and  O_15 
REMARK    6  A    between atoms: C_11  and  O_14 
ROOT
HETATM    1  C   UNL     1       6.572  -4.040   2.655  1.00  0.00    -0.033 A 
HETATM    2  C   UNL     1       6.058  -5.327   2.458  1.00  0.00     0.051 A 
HETATM    3  C   UNL     1       6.467  -6.430   3.231  1.00  0.00     0.102 A 
HETATM    4  C   UNL     1       7.432  -6.218   4.216  1.00  0.00     0.099 A 
HETATM    5  C   UNL     1       7.969  -4.939   4.408  1.00  0.00     0.040 A 
HETATM    6  C   UNL     1       7.549  -3.857   3.633  1.00  0.00     0.014 A 
ENDROOT
BRANCH   1   7
HETATM    7  C   UNL     1       6.137  -2.884   1.857  1.00  0.00     0.017 C 
HETATM    8  C   UNL     1       4.913  -2.773   1.321  1.00  0.00     0.083 C 
BRANCH   8   9
HETATM    9  C   UNL     1       4.516  -1.527   0.641  1.00  0.00     0.282 C 
HETATM   10  O   UNL     1       5.218  -0.542   0.502  1.00  0.00    -0.260 OA
BRANCH   9  11
HETATM   11  O   UNL     1       3.202  -1.649   0.330  1.00  0.00    -0.319 OA
BRANCH  11  12
HETATM   12  C   UNL     1       2.515  -0.409   0.124  1.00  0.00     0.174 C 
HETATM   13  C   UNL     1       2.022   0.076   1.476  1.00  0.00     0.034 C 
ENDBRANCH  11  12
ENDBRANCH   9  11
ENDBRANCH   8   9
ENDBRANCH   1   7
BRANCH   3  14
HETATM   14  O   UNL     1       5.796  -7.557   2.854  1.00  0.00    -0.353 OA
HETATM   15  C   UNL     1       6.023  -8.802   3.476  1.00  0.00     0.210 C 
ENDBRANCH   3  14
BRANCH   4  16
HETATM   16  O   UNL     1       7.953  -7.145   5.070  1.00  0.00    -0.358 OA
HETATM   17  H   UNL     1       7.665  -8.030   4.828  1.00  0.00     0.217 HD
ENDBRANCH   4  16
TORSDOF 6
