REMARK  11 active torsions:
REMARK  status: ('A' for Active; 'I' for Inactive)
REMARK    1  A    between atoms: C_2  and  C_3 
REMARK    2  A    between atoms: C_3  and  C_4 
REMARK    3  A    between atoms: C_4  and  C_5 
REMARK    4  A    between atoms: C_5  and  C_6 
REMARK    5  A    between atoms: C_5  and  C_8 
REMARK    6  A    between atoms: C_8  and  O_9 
REMARK    7  A    between atoms: O_9  and  C_10 
REMARK    8  A    between atoms: C_10  and  C_11 
REMARK    9  A    between atoms: C_11  and  C_12 
REMARK   10  A    between atoms: C_11  and  O_14 
REMARK   11  A    between atoms: C_12  and  O_13 
ROOT
HETATM    1  C   UNL     1       6.646   2.626   1.025  1.00  0.00     0.172 C 
ENDROOT
BRANCH   1   2
HETATM    2  C   UNL     1       5.111   2.574   1.127  1.00  0.00     0.009 C 
BRANCH   2   3
HETATM    3  C   UNL     1       4.573   1.239   0.557  1.00  0.00     0.007 C 
BRANCH   3   4
HETATM    4  C   UNL     1       3.044   1.132   0.575  1.00  0.00     0.000 C 
BRANCH   4   5
HETATM    5  C   UNL     1       2.560  -0.190  -0.032  1.00  0.00    -0.005 C 
HETATM    6  C   UNL     1       1.044  -0.278  -0.011  1.00  0.00     0.005 C 
ENDBRANCH   4   5
ENDBRANCH   3   4
ENDBRANCH   2   3
BRANCH   2   7
HETATM    7  C   UNL     1       4.644   2.873   2.569  1.00  0.00     0.002 C 
HETATM    8  C   UNL     1       5.138   1.898   3.631  1.00  0.00     0.005 C 
ENDBRANCH   2   7
ENDBRANCH   1   2
BRANCH   1   9
HETATM    9  O   UNL     1       7.054   2.522  -0.345  1.00  0.00    -0.388 OA
BRANCH   9  10
HETATM   10  C   UNL     1       8.483   2.521  -0.455  1.00  0.00     0.201 C 
BRANCH  10  11
HETATM   11  C   UNL     1       8.897   2.361  -1.919  1.00  0.00     0.165 C 
BRANCH  11  12
HETATM   12  C   UNL     1       8.390   1.058  -2.542  1.00  0.00     0.198 C 
BRANCH  12  13
HETATM   13  O   UNL     1       8.889   0.955  -3.879  1.00  0.00    -0.398 OA
HETATM   14  H   UNL     1       8.864   1.863  -4.241  1.00  0.00     0.209 HD
ENDBRANCH  12  13
ENDBRANCH  11  12
BRANCH  11  15
HETATM   15  O   UNL     1       8.380   3.451  -2.703  1.00  0.00    -0.391 OA
HETATM   16  H   UNL     1       7.428   3.498  -2.490  1.00  0.00     0.210 HD
ENDBRANCH  11  15
ENDBRANCH  10  11
ENDBRANCH   9  10
ENDBRANCH   1   9
TORSDOF 11
