REMARK  23 active torsions:
REMARK  status: ('A' for Active; 'I' for Inactive)
REMARK    1  A    between atoms: C_2  and  C_3 
REMARK    2  A    between atoms: C_3  and  C_4 
REMARK    3  A    between atoms: C_4  and  C_5 
REMARK    4  A    between atoms: C_5  and  C_6 
REMARK    5  A    between atoms: C_6  and  C_7 
REMARK    6  A    between atoms: C_7  and  C_8 
REMARK    7  A    between atoms: C_8  and  C_9 
REMARK    8  A    between atoms: C_9  and  C_10 
REMARK    9  A    between atoms: C_10  and  C_11 
REMARK   10  A    between atoms: C_11  and  C_12 
REMARK   11  A    between atoms: C_12  and  C_13 
REMARK   12  A    between atoms: C_13  and  C_14 
REMARK   13  A    between atoms: C_14  and  C_15 
REMARK   14  A    between atoms: C_15  and  C_16 
REMARK   15  A    between atoms: C_16  and  C_17 
REMARK   16  A    between atoms: C_17  and  C_18 
REMARK   17  A    between atoms: C_18  and  O_20 
REMARK   18  A    between atoms: O_20  and  C_21 
REMARK   19  A    between atoms: C_21  and  C_22 
REMARK   20  A    between atoms: C_22  and  C_23 
REMARK   21  A    between atoms: C_22  and  C_25 
REMARK   22  A    between atoms: C_25  and  C_26 
REMARK   23  A    between atoms: C_26  and  C_27 
ROOT
HETATM    1  C   UNL     1      14.647  -8.588   0.451  1.00  0.00     0.000 C 
ENDROOT
BRANCH   1   2
HETATM    2  C   UNL     1      13.125  -8.568   0.449  1.00  0.00     0.000 C 
BRANCH   2   3
HETATM    3  C   UNL     1      12.614  -7.135   0.387  1.00  0.00     0.000 C 
BRANCH   3   4
HETATM    4  C   UNL     1      11.093  -7.118   0.388  1.00  0.00     0.000 C 
BRANCH   4   5
HETATM    5  C   UNL     1      10.580  -5.688   0.328  1.00  0.00     0.000 C 
BRANCH   5   6
HETATM    6  C   UNL     1       9.059  -5.679   0.329  1.00  0.00     0.000 C 
BRANCH   6   7
HETATM    7  C   UNL     1       8.543  -4.251   0.267  1.00  0.00     0.000 C 
BRANCH   7   8
HETATM    8  C   UNL     1       7.023  -4.241   0.271  1.00  0.00     0.000 C 
BRANCH   8   9
HETATM    9  C   UNL     1       6.507  -2.812   0.207  1.00  0.00     0.000 C 
BRANCH   9  10
HETATM   10  C   UNL     1       4.985  -2.798   0.212  1.00  0.00     0.000 C 
BRANCH  10  11
HETATM   11  C   UNL     1       4.466  -1.368   0.148  1.00  0.00     0.000 C 
BRANCH  11  12
HETATM   12  C   UNL     1       2.943  -1.354   0.153  1.00  0.00    -0.000 C 
BRANCH  12  13
HETATM   13  C   UNL     1       2.412   0.073   0.089  1.00  0.00    -0.005 C 
HETATM   14  C   UNL     1       0.894   0.085   0.093  1.00  0.00     0.005 C 
ENDBRANCH  12  13
ENDBRANCH  11  12
ENDBRANCH  10  11
ENDBRANCH   9  10
ENDBRANCH   8   9
ENDBRANCH   7   8
ENDBRANCH   6   7
ENDBRANCH   5   6
ENDBRANCH   4   5
ENDBRANCH   3   4
ENDBRANCH   2   3
ENDBRANCH   1   2
BRANCH   1  15
HETATM   15  C   UNL     1      15.178 -10.018   0.509  1.00  0.00     0.000 C 
BRANCH  15  16
HETATM   16  C   UNL     1      16.702  -9.998   0.511  1.00  0.00     0.010 C 
BRANCH  16  17
HETATM   17  C   UNL     1      17.304 -11.395   0.572  1.00  0.00     0.111 C 
BRANCH  17  18
HETATM   18  C   UNL     1      18.819 -11.305   0.571  1.00  0.00     0.258 C 
HETATM   19  O   UNL     1      19.467 -10.280   0.517  1.00  0.00    -0.265 OA
BRANCH  18  20
HETATM   20  O   UNL     1      19.337 -12.570   0.553  1.00  0.00    -0.321 OA
BRANCH  20  21
HETATM   21  C   UNL     1      20.147 -12.830  -0.601  1.00  0.00     0.183 C 
BRANCH  21  22
HETATM   22  C   UNL     1      21.597 -13.168  -0.226  1.00  0.00     0.010 C 
BRANCH  22  23
HETATM   23  C   UNL     1      21.692 -14.393   0.718  1.00  0.00     0.002 C 
HETATM   24  C   UNL     1      21.156 -15.702   0.153  1.00  0.00     0.005 C 
ENDBRANCH  22  23
BRANCH  22  25
HETATM   25  C   UNL     1      22.430 -13.387  -1.508  1.00  0.00     0.007 C 
BRANCH  25  26
HETATM   26  C   UNL     1      22.461 -12.159  -2.423  1.00  0.00     0.000 C 
BRANCH  26  27
HETATM   27  C   UNL     1      23.279 -12.390  -3.690  1.00  0.00    -0.005 C 
HETATM   28  C   UNL     1      23.270 -11.143  -4.563  1.00  0.00     0.005 C 
ENDBRANCH  26  27
ENDBRANCH  25  26
ENDBRANCH  22  25
ENDBRANCH  21  22
ENDBRANCH  20  21
ENDBRANCH  18  20
ENDBRANCH  17  18
ENDBRANCH  16  17
ENDBRANCH  15  16
ENDBRANCH   1  15
TORSDOF 23
