REMARK  4 active torsions:
REMARK  status: ('A' for Active; 'I' for Inactive)
REMARK    1  A    between atoms: C_2  and  O_3 
REMARK    2  A    between atoms: O_3  and  C_4 
REMARK    3  A    between atoms: C_4  and  C_6 
REMARK    4  A    between atoms: C_9  and  O_12 
ROOT
HETATM    1  C   UNL     1       5.009   2.115  -2.174  1.00  0.00     0.039 A 
HETATM    2  C   UNL     1       4.426   3.384  -2.315  1.00  0.00     0.020 A 
HETATM    3  C   UNL     1       4.990   4.324  -3.180  1.00  0.00     0.037 A 
HETATM    4  C   UNL     1       6.137   3.993  -3.896  1.00  0.00     0.065 A 
HETATM    5  C   UNL     1       6.712   2.733  -3.783  1.00  0.00     0.037 A 
HETATM    6  C   UNL     1       6.148   1.790  -2.925  1.00  0.00     0.020 A 
ENDROOT
BRANCH   1   7
HETATM    7  C   UNL     1       4.458   1.202  -1.138  1.00  0.00     0.293 C 
HETATM    8  O   UNL     1       3.526   1.491  -0.405  1.00  0.00    -0.259 OA
BRANCH   7   9
HETATM    9  O   UNL     1       5.232   0.093  -1.055  1.00  0.00    -0.318 OA
BRANCH   9  10
HETATM   10  C   UNL     1       5.199  -0.592   0.203  1.00  0.00     0.174 C 
HETATM   11  C   UNL     1       6.234   0.050   1.108  1.00  0.00     0.034 C 
ENDBRANCH   9  10
ENDBRANCH   7   9
ENDBRANCH   1   7
BRANCH   4  12
HETATM   12  O   UNL     1       6.748   4.894  -4.716  1.00  0.00    -0.361 OA
HETATM   13  H   UNL     1       6.284   5.745  -4.645  1.00  0.00     0.217 HD
ENDBRANCH   4  12
TORSDOF 4
