REMARK  15 active torsions:
REMARK  status: ('A' for Active; 'I' for Inactive)
REMARK    1  A    between atoms: C_2  and  O_3 
REMARK    2  A    between atoms: O_3  and  C_4 
REMARK    3  A    between atoms: C_4  and  C_5 
REMARK    4  A    between atoms: C_6  and  O_19 
REMARK    5  A    between atoms: C_7  and  O_16 
REMARK    6  A    between atoms: C_8  and  O_13 
REMARK    7  A    between atoms: C_9  and  O_11 
REMARK    8  A    between atoms: O_13  and  C_14 
REMARK    9  A    between atoms: O_16  and  C_17 
REMARK   10  A    between atoms: O_19  and  C_20 
REMARK   11  A    between atoms: C_21  and  O_31 
REMARK   12  A    between atoms: C_22  and  O_30 
REMARK   13  A    between atoms: C_23  and  O_28 
REMARK   14  A    between atoms: C_24  and  C_26 
REMARK   15  A    between atoms: C_26  and  O_27 
ROOT
HETATM    1  C   UNL     1       5.287   2.025   1.472  1.00  0.00     0.180 C 
HETATM    2  C   UNL     1       4.524   3.203   2.125  1.00  0.00     0.187 C 
HETATM    3  C   UNL     1       3.921   4.113   1.008  1.00  0.00     0.186 C 
HETATM    4  C   UNL     1       5.016   4.507  -0.067  1.00  0.00     0.208 C 
HETATM    5  C   UNL     1       5.799   3.229  -0.532  1.00  0.00     0.291 C 
HETATM    6  O   UNL     1       6.294   2.518   0.592  1.00  0.00    -0.348 OA
ENDROOT
BRANCH   2   7
HETATM    7  O   UNL     1       3.489   2.781   3.056  1.00  0.00    -0.348 OA
BRANCH   7   8
HETATM    8  C   UNL     1       3.916   1.832   4.049  1.00  0.00     0.292 C 
HETATM    9  C   UNL     1       2.747   1.337   4.920  1.00  0.00     0.204 C 
HETATM   10  C   UNL     1       2.480   2.220   6.134  1.00  0.00     0.183 C 
HETATM   11  C   UNL     1       3.763   2.538   6.921  1.00  0.00     0.183 C 
HETATM   12  C   UNL     1       4.885   3.002   5.955  1.00  0.00     0.179 C 
HETATM   13  O   UNL     1       5.064   2.195   4.781  1.00  0.00    -0.348 OA
BRANCH   9  14
HETATM   14  O   UNL     1       1.517   1.183   4.178  1.00  0.00    -0.388 OA
HETATM   15  H   UNL     1       1.720   1.391   3.247  1.00  0.00     0.210 HD
ENDBRANCH   9  14
BRANCH  10  16
HETATM   16  O   UNL     1       1.494   1.577   6.964  1.00  0.00    -0.390 OA
HETATM   17  H   UNL     1       0.894   1.109   6.349  1.00  0.00     0.210 HD
ENDBRANCH  10  16
BRANCH  11  18
HETATM   18  O   UNL     1       4.208   1.407   7.692  1.00  0.00    -0.385 OA
HETATM   19  C   UNL     1       3.717   1.437   9.036  1.00  0.00     0.202 C 
ENDBRANCH  11  18
BRANCH  12  20
HETATM   20  C   UNL     1       6.261   2.951   6.645  1.00  0.00     0.198 C 
BRANCH  20  21
HETATM   21  O   UNL     1       7.240   3.581   5.815  1.00  0.00    -0.398 OA
HETATM   22  H   UNL     1       7.171   3.141   4.946  1.00  0.00     0.209 HD
ENDBRANCH  20  21
ENDBRANCH  12  20
ENDBRANCH   7   8
ENDBRANCH   2   7
BRANCH   1  23
HETATM   23  C   UNL     1       4.374   0.972   0.791  1.00  0.00     0.202 C 
BRANCH  23  24
HETATM   24  O   UNL     1       5.181  -0.132   0.351  1.00  0.00    -0.389 OA
BRANCH  24  25
HETATM   25  C   UNL     1       4.387  -1.162  -0.239  1.00  0.00     0.163 C 
HETATM   26  C   UNL     1       5.288  -2.309  -0.658  1.00  0.00     0.033 C 
ENDBRANCH  24  25
ENDBRANCH  23  24
ENDBRANCH   1  23
BRANCH   3  27
HETATM   27  O   UNL     1       3.358   5.298   1.600  1.00  0.00    -0.381 OA
BRANCH  27  28
HETATM   28  C   UNL     1       1.942   5.389   1.720  1.00  0.00     0.164 C 
HETATM   29  C   UNL     1       1.442   5.036   3.110  1.00  0.00     0.033 C 
ENDBRANCH  27  28
ENDBRANCH   3  27
BRANCH   4  30
HETATM   30  O   UNL     1       5.961   5.480   0.442  1.00  0.00    -0.379 OA
BRANCH  30  31
HETATM   31  C   UNL     1       5.501   6.830   0.342  1.00  0.00     0.164 C 
HETATM   32  C   UNL     1       6.658   7.785   0.567  1.00  0.00     0.033 C 
ENDBRANCH  30  31
ENDBRANCH   4  30
BRANCH   5  33
HETATM   33  O   UNL     1       6.881   3.537  -1.418  1.00  0.00    -0.363 OA
HETATM   34  C   UNL     1       7.621   2.356  -1.764  1.00  0.00     0.204 C 
ENDBRANCH   5  33
TORSDOF 15
