REMARK  6 active torsions:
REMARK  status: ('A' for Active; 'I' for Inactive)
REMARK    1  A    between atoms: C_2  and  O_12 
REMARK    2  A    between atoms: C_3  and  O_11 
REMARK    3  A    between atoms: C_4  and  O_10 
REMARK    4  A    between atoms: C_5  and  C_7 
REMARK    5  A    between atoms: C_5  and  O_9 
REMARK    6  A    between atoms: C_7  and  O_8 
ROOT
HETATM    1  C   UNL     1       0.800   1.221  -0.054  1.00  0.00     0.206 C 
HETATM    2  C   UNL     1       1.490  -0.032   0.489  1.00  0.00     0.173 C 
HETATM    3  C   UNL     1       0.849  -1.293  -0.104  1.00  0.00     0.183 C 
HETATM    4  C   UNL     1      -0.668  -1.272   0.127  1.00  0.00     0.213 C 
HETATM    5  C   UNL     1      -1.305   0.058  -0.355  1.00  0.00     0.212 C 
HETATM    6  O   UNL     1      -0.611   1.194   0.177  1.00  0.00    -0.349 OA
ENDROOT
BRANCH   5   7
HETATM    7  C   UNL     1      -1.454   0.159  -1.891  1.00  0.00     0.235 C 
BRANCH   7   8
HETATM    8  O   UNL     1      -0.218   0.060  -2.595  1.00  0.00    -0.395 OA
HETATM    9  H   UNL     1      -0.220   0.774  -3.261  1.00  0.00     0.209 HD
ENDBRANCH   7   8
ENDBRANCH   5   7
BRANCH   5  10
HETATM   10  O   UNL     1      -2.637   0.122   0.177  1.00  0.00    -0.362 OA
HETATM   11  H   UNL     1      -2.571  -0.332   1.040  1.00  0.00     0.213 HD
ENDBRANCH   5  10
BRANCH   4  12
HETATM   12  O   UNL     1      -0.949  -1.410   1.550  1.00  0.00    -0.387 OA
HETATM   13  H   UNL     1      -0.332  -0.797   2.010  1.00  0.00     0.210 HD
ENDBRANCH   4  12
BRANCH   3  14
HETATM   14  O   UNL     1       1.427  -2.452   0.510  1.00  0.00    -0.390 OA
HETATM   15  H   UNL     1       1.242  -2.359   1.466  1.00  0.00     0.210 HD
ENDBRANCH   3  14
BRANCH   2  16
HETATM   16  O   UNL     1       1.324  -0.079   1.924  1.00  0.00    -0.391 OA
HETATM   17  H   UNL     1       1.634   0.776   2.277  1.00  0.00     0.210 HD
ENDBRANCH   2  16
TORSDOF 6
