REMARK  6 active torsions:
REMARK  status: ('A' for Active; 'I' for Inactive)
REMARK    1  A    between atoms: C_1  and  C_2 
REMARK    2  A    between atoms: C_1  and  O_12 
REMARK    3  A    between atoms: C_3  and  O_11 
REMARK    4  A    between atoms: C_4  and  O_10 
REMARK    5  A    between atoms: C_5  and  N_9 
REMARK    6  A    between atoms: C_6  and  O_8 
ROOT
HETATM    1  C   UNL     1       0.763   1.524  -0.929  1.00  0.00     0.179 C 
HETATM    2  C   UNL     1       1.574   2.834  -1.172  1.00  0.00     0.180 C 
HETATM    3  C   UNL     1       1.909   3.469   0.198  1.00  0.00     0.187 C 
HETATM    4  C   UNL     1       0.626   3.677   1.040  1.00  0.00     0.303 C 
HETATM    5  C   UNL     1      -0.118   2.323   1.136  1.00  0.00     0.292 C 
HETATM    6  O   UNL     1      -0.411   1.772  -0.150  1.00  0.00    -0.349 OA
ENDROOT
BRANCH   1   7
HETATM    7  C   UNL     1       1.610   0.354  -0.374  1.00  0.00     0.198 C 
BRANCH   7   8
HETATM    8  O   UNL     1       2.678   0.071  -1.243  1.00  0.00    -0.398 OA
HETATM    9  H   UNL     1       2.485  -0.798  -1.682  1.00  0.00     0.209 HD
ENDBRANCH   7   8
ENDBRANCH   1   7
BRANCH   2  10
HETATM   10  O   UNL     1       0.864   3.759  -1.968  1.00  0.00    -0.390 OA
HETATM   11  H   UNL     1       0.119   3.306  -2.441  1.00  0.00     0.210 HD
ENDBRANCH   2  10
BRANCH   3  12
HETATM   12  O   UNL     1       2.668   4.650   0.089  1.00  0.00    -0.391 OA
HETATM   13  H   UNL     1       2.314   5.193  -0.661  1.00  0.00     0.210 HD
ENDBRANCH   3  12
BRANCH   5  14
HETATM   14  O   UNL     1      -1.307   2.473   1.868  1.00  0.00    -0.369 OA
HETATM   15  H   UNL     1      -1.974   2.901   1.268  1.00  0.00     0.212 HD
ENDBRANCH   5  14
BRANCH   4  16
HETATM   16  N   UNL     1      -0.261   4.717   0.504  1.00  0.00     0.090 N 
HETATM   17  H   UNL     1      -0.737   4.432  -0.379  1.00  0.00     0.313 HD
HETATM   18  H   UNL     1       0.255   5.617   0.368  1.00  0.00     0.313 HD
ENDBRANCH   4  16
TORSDOF 6
