REMARK WARNING: 32 MAX_TORS EXCEEDED!!!
REMARK  40 active torsions:
REMARK  status: ('A' for Active; 'I' for Inactive)
REMARK    1  A    between atoms: C_2  and  C_3 
REMARK    2  A    between atoms: C_3  and  C_4 
REMARK    3  A    between atoms: C_4  and  C_5 
REMARK    4  A    between atoms: C_5  and  C_6 
REMARK    5  A    between atoms: C_6  and  C_7 
REMARK    6  A    between atoms: C_7  and  C_8 
REMARK    7  A    between atoms: C_8  and  C_9 
REMARK    8  A    between atoms: C_10  and  C_11 
REMARK    9  A    between atoms: C_11  and  C_12 
REMARK   10  A    between atoms: C_12  and  C_13 
REMARK   11  A    between atoms: C_13  and  C_14 
REMARK   12  A    between atoms: C_14  and  C_15 
REMARK   13  A    between atoms: C_15  and  C_16 
REMARK   14  A    between atoms: C_16  and  C_17 
REMARK   15  A    between atoms: C_17  and  C_18 
REMARK   16  A    between atoms: C_18  and  C_19 
REMARK   17  A    between atoms: C_19  and  C_20 
REMARK       I    between atoms: C_20  and  N_22 
REMARK   18  A    between atoms: N_22  and  C_23 
REMARK   19  A    between atoms: C_23  and  C_24 
REMARK   20  A    between atoms: C_23  and  C_37 
REMARK   21  A    between atoms: C_24  and  O_25 
REMARK   22  A    between atoms: O_25  and  C_26 
REMARK   23  A    between atoms: C_27  and  O_36 
REMARK   24  A    between atoms: C_28  and  O_35 
REMARK   25  A    between atoms: C_29  and  O_34 
REMARK   26  A    between atoms: C_30  and  C_32 
REMARK   27  A    between atoms: C_32  and  O_33 
REMARK   28  A    between atoms: C_37  and  C_38 
REMARK   29  A    between atoms: C_37  and  O_53 
REMARK   30  A    between atoms: C_39  and  C_40 
REMARK   31  A    between atoms: C_40  and  C_41 
REMARK   32  A    between atoms: C_41  and  C_42 
REMARK   33  A    between atoms: C_42  and  C_43 
REMARK   34  A    between atoms: C_43  and  C_44 
REMARK   35  A    between atoms: C_44  and  C_45 
REMARK   36  A    between atoms: C_45  and  C_46 
REMARK   37  A    between atoms: C_46  and  C_47 
REMARK   38  A    between atoms: C_47  and  C_48 
REMARK   39  A    between atoms: C_49  and  C_50 
REMARK   40  A    between atoms: C_50  and  C_51 
ROOT
HETATM    1  C   UNL     1      22.749   9.589  10.868  1.00  0.00     0.140 C 
ENDROOT
BRANCH   1   2
HETATM    2  N   UNL     1      21.279   9.558  10.795  1.00  0.00    -0.352 N 
HETATM    3  C   UNL     1      20.587   8.458  10.311  1.00  0.00     0.218 C 
HETATM    4  O   UNL     1      21.109   7.391   9.991  1.00  0.00    -0.274 OA
HETATM    5  H   UNL     1      20.769  10.428  10.934  1.00  0.00     0.163 HD
BRANCH   3   6
HETATM    6  C   UNL     1      19.081   8.660  10.226  1.00  0.00     0.103 C 
BRANCH   6   7
HETATM    7  C   UNL     1      18.745   9.763   9.233  1.00  0.00     0.009 C 
BRANCH   7   8
HETATM    8  C   UNL     1      17.248  10.007   9.140  1.00  0.00     0.000 C 
BRANCH   8   9
HETATM    9  C   UNL     1      16.968  11.126   8.144  1.00  0.00     0.000 C 
BRANCH   9  10
HETATM   10  C   UNL     1      15.473  11.378   8.048  1.00  0.00     0.000 C 
BRANCH  10  11
HETATM   11  C   UNL     1      15.192  12.494   7.056  1.00  0.00     0.000 C 
BRANCH  11  12
HETATM   12  C   UNL     1      13.696  12.745   6.961  1.00  0.00     0.000 C 
BRANCH  12  13
HETATM   13  C   UNL     1      13.415  13.862   5.968  1.00  0.00     0.004 C 
BRANCH  13  14
HETATM   14  C   UNL     1      11.918  14.110   5.873  1.00  0.00     0.027 C 
BRANCH  14  15
HETATM   15  C   UNL     1      11.639  15.203   4.897  1.00  0.00    -0.031 C 
HETATM   16  C   UNL     1      10.900  15.009   3.799  1.00  0.00    -0.031 C 
BRANCH  16  17
HETATM   17  C   UNL     1      10.618  16.097   2.820  1.00  0.00     0.027 C 
BRANCH  17  18
HETATM   18  C   UNL     1       9.120  16.342   2.726  1.00  0.00     0.004 C 
BRANCH  18  19
HETATM   19  C   UNL     1       8.837  17.454   1.728  1.00  0.00     0.000 C 
BRANCH  19  20
HETATM   20  C   UNL     1       7.342  17.705   1.627  1.00  0.00     0.000 C 
BRANCH  20  21
HETATM   21  C   UNL     1       7.061  18.816   0.628  1.00  0.00     0.000 C 
BRANCH  21  22
HETATM   22  C   UNL     1       5.565  19.067   0.527  1.00  0.00    -0.000 C 
BRANCH  22  23
HETATM   23  C   UNL     1       5.274  20.179  -0.473  1.00  0.00    -0.005 C 
HETATM   24  C   UNL     1       3.782  20.430  -0.571  1.00  0.00     0.005 C 
ENDBRANCH  22  23
ENDBRANCH  21  22
ENDBRANCH  20  21
ENDBRANCH  19  20
ENDBRANCH  18  19
ENDBRANCH  17  18
ENDBRANCH  16  17
ENDBRANCH  14  15
ENDBRANCH  13  14
ENDBRANCH  12  13
ENDBRANCH  11  12
ENDBRANCH  10  11
ENDBRANCH   9  10
ENDBRANCH   8   9
ENDBRANCH   7   8
ENDBRANCH   6   7
ENDBRANCH   3   6
ENDBRANCH   1   2
BRANCH   1  25
HETATM   25  C   UNL     1      23.354  10.005   9.513  1.00  0.00     0.199 C 
BRANCH  25  26
HETATM   26  O   UNL     1      24.772  10.035   9.600  1.00  0.00    -0.356 OA
BRANCH  26  27
HETATM   27  C   UNL     1      25.404  10.490   8.406  1.00  0.00     0.291 C 
HETATM   28  C   UNL     1      26.909  10.435   8.624  1.00  0.00     0.204 C 
HETATM   29  C   UNL     1      27.300  11.561   9.591  1.00  0.00     0.183 C 
HETATM   30  C   UNL     1      26.792  12.921   9.111  1.00  0.00     0.180 C 
HETATM   31  C   UNL     1      25.290  12.831   8.954  1.00  0.00     0.179 C 
HETATM   32  O   UNL     1      25.040  11.810   7.959  1.00  0.00    -0.348 OA
BRANCH  28  33
HETATM   33  O   UNL     1      27.571  10.590   7.380  1.00  0.00    -0.388 OA
HETATM   34  H   UNL     1      26.933  10.833   6.677  1.00  0.00     0.210 HD
ENDBRANCH  28  33
BRANCH  29  35
HETATM   35  O   UNL     1      28.701  11.554   9.758  1.00  0.00    -0.390 OA
HETATM   36  H   UNL     1      29.076  11.625   8.863  1.00  0.00     0.210 HD
ENDBRANCH  29  35
BRANCH  30  37
HETATM   37  O   UNL     1      27.271  13.191   7.799  1.00  0.00    -0.390 OA
HETATM   38  H   UNL     1      26.623  12.768   7.198  1.00  0.00     0.210 HD
ENDBRANCH  30  37
BRANCH  31  39
HETATM   39  C   UNL     1      24.716  14.125   8.415  1.00  0.00     0.198 C 
BRANCH  39  40
HETATM   40  O   UNL     1      23.328  13.903   8.292  1.00  0.00    -0.398 OA
HETATM   41  H   UNL     1      23.195  13.279   7.558  1.00  0.00     0.209 HD
ENDBRANCH  39  40
ENDBRANCH  31  39
ENDBRANCH  26  27
ENDBRANCH  25  26
ENDBRANCH   1  25
BRANCH   1  42
HETATM   42  C   UNL     1      23.272  10.531  11.983  1.00  0.00     0.165 C 
BRANCH  42  43
HETATM   43  C   UNL     1      22.681  10.172  13.297  1.00  0.00     0.003 C 
HETATM   44  C   UNL     1      21.949  11.038  14.007  1.00  0.00    -0.028 C 
BRANCH  44  45
HETATM   45  C   UNL     1      21.297  10.706  15.313  1.00  0.00     0.027 C 
BRANCH  45  46
HETATM   46  C   UNL     1      19.787  10.883  15.184  1.00  0.00     0.004 C 
BRANCH  46  47
HETATM   47  C   UNL     1      19.111  10.553  16.505  1.00  0.00     0.000 C 
BRANCH  47  48
HETATM   48  C   UNL     1      17.604  10.721  16.399  1.00  0.00     0.000 C 
BRANCH  48  49
HETATM   49  C   UNL     1      16.950  10.385  17.731  1.00  0.00     0.000 C 
BRANCH  49  50
HETATM   50  C   UNL     1      15.442  10.546  17.639  1.00  0.00     0.000 C 
BRANCH  50  51
HETATM   51  C   UNL     1      14.789  10.205  18.972  1.00  0.00     0.004 C 
BRANCH  51  52
HETATM   52  C   UNL     1      13.279  10.378  18.873  1.00  0.00     0.027 C 
BRANCH  52  53
HETATM   53  C   UNL     1      12.621  10.040  20.169  1.00  0.00    -0.031 C 
HETATM   54  C   UNL     1      11.880  10.910  20.865  1.00  0.00    -0.031 C 
BRANCH  54  55
HETATM   55  C   UNL     1      11.218  10.541  22.152  1.00  0.00     0.026 C 
BRANCH  55  56
HETATM   56  C   UNL     1       9.705  10.697  22.035  1.00  0.00    -0.001 C 
HETATM   57  C   UNL     1       9.027  10.324  23.341  1.00  0.00     0.005 C 
ENDBRANCH  55  56
ENDBRANCH  54  55
ENDBRANCH  52  53
ENDBRANCH  51  52
ENDBRANCH  50  51
ENDBRANCH  49  50
ENDBRANCH  48  49
ENDBRANCH  47  48
ENDBRANCH  46  47
ENDBRANCH  45  46
ENDBRANCH  44  45
ENDBRANCH  42  43
BRANCH  42  58
HETATM   58  O   UNL     1      24.683  10.452  12.136  1.00  0.00    -0.390 OA
HETATM   59  H   UNL     1      24.941   9.545  12.367  1.00  0.00     0.210 HD
ENDBRANCH  42  58
ENDBRANCH   1  42
TORSDOF 40
