REMARK WARNING: 32 MAX_TORS EXCEEDED!!!
REMARK  37 active torsions:
REMARK  status: ('A' for Active; 'I' for Inactive)
REMARK    1  A    between atoms: C_2  and  C_3 
REMARK    2  A    between atoms: C_3  and  C_4 
REMARK    3  A    between atoms: C_4  and  C_5 
REMARK    4  A    between atoms: C_5  and  C_6 
REMARK    5  A    between atoms: C_6  and  C_7 
REMARK    6  A    between atoms: C_7  and  C_8 
REMARK    7  A    between atoms: C_8  and  C_9 
REMARK    8  A    between atoms: C_10  and  C_11 
REMARK    9  A    between atoms: C_11  and  C_12 
REMARK   10  A    between atoms: C_12  and  C_13 
REMARK   11  A    between atoms: C_13  and  C_14 
REMARK   12  A    between atoms: C_14  and  C_15 
REMARK   13  A    between atoms: C_15  and  C_16 
REMARK   14  A    between atoms: C_16  and  C_17 
REMARK   15  A    between atoms: C_17  and  C_18 
REMARK   16  A    between atoms: C_18  and  O_20 
REMARK   17  A    between atoms: O_20  and  C_21 
REMARK   18  A    between atoms: C_21  and  C_22 
REMARK   19  A    between atoms: C_22  and  C_23 
REMARK   20  A    between atoms: C_22  and  O_44 
REMARK   21  A    between atoms: C_23  and  O_24 
REMARK   22  A    between atoms: O_24  and  C_25 
REMARK   23  A    between atoms: C_25  and  C_27 
REMARK   24  A    between atoms: C_27  and  C_28 
REMARK   25  A    between atoms: C_28  and  C_29 
REMARK   26  A    between atoms: C_29  and  C_30 
REMARK   27  A    between atoms: C_30  and  C_31 
REMARK   28  A    between atoms: C_31  and  C_32 
REMARK   29  A    between atoms: C_32  and  C_33 
REMARK   30  A    between atoms: C_33  and  C_34 
REMARK   31  A    between atoms: C_35  and  C_36 
REMARK   32  A    between atoms: C_36  and  C_37 
REMARK   33  A    between atoms: C_37  and  C_38 
REMARK   34  A    between atoms: C_38  and  C_39 
REMARK   35  A    between atoms: C_39  and  C_40 
REMARK   36  A    between atoms: C_40  and  C_41 
REMARK   37  A    between atoms: C_41  and  C_42 
ROOT
HETATM    1  C   UNL     1      21.188  12.002  -7.745  1.00  0.00     0.166 C 
ENDROOT
BRANCH   1   2
HETATM    2  C   UNL     1      20.669  10.779  -6.993  1.00  0.00     0.212 C 
BRANCH   2   3
HETATM    3  O   UNL     1      21.166   9.573  -7.595  1.00  0.00    -0.319 OA
BRANCH   3   4
HETATM    4  C   UNL     1      20.486   9.212  -8.722  1.00  0.00     0.258 C 
HETATM    5  O   UNL     1      19.534   9.812  -9.183  1.00  0.00    -0.265 OA
BRANCH   4   6
HETATM    6  C   UNL     1      21.104   7.978  -9.338  1.00  0.00     0.111 C 
BRANCH   6   7
HETATM    7  C   UNL     1      21.591   8.274 -10.749  1.00  0.00     0.010 C 
BRANCH   7   8
HETATM    8  C   UNL     1      22.655   9.367 -10.773  1.00  0.00     0.000 C 
BRANCH   8   9
HETATM    9  C   UNL     1      23.105   9.626 -12.206  1.00  0.00     0.000 C 
BRANCH   9  10
HETATM   10  C   UNL     1      24.165  10.717 -12.254  1.00  0.00     0.000 C 
BRANCH  10  11
HETATM   11  C   UNL     1      24.610  10.964 -13.690  1.00  0.00     0.004 C 
BRANCH  11  12
HETATM   12  C   UNL     1      25.672  12.053 -13.735  1.00  0.00     0.027 C 
BRANCH  12  13
HETATM   13  C   UNL     1      26.114  12.306 -15.138  1.00  0.00    -0.031 C 
HETATM   14  C   UNL     1      25.978  13.505 -15.721  1.00  0.00    -0.031 C 
BRANCH  14  15
HETATM   15  C   UNL     1      26.422  13.756 -17.123  1.00  0.00     0.027 C 
BRANCH  15  16
HETATM   16  C   UNL     1      27.484  14.845 -17.163  1.00  0.00     0.004 C 
BRANCH  16  17
HETATM   17  C   UNL     1      27.930  15.094 -18.597  1.00  0.00     0.000 C 
BRANCH  17  18
HETATM   18  C   UNL     1      28.991  16.185 -18.637  1.00  0.00     0.000 C 
BRANCH  18  19
HETATM   19  C   UNL     1      29.442  16.437 -20.069  1.00  0.00     0.000 C 
BRANCH  19  20
HETATM   20  C   UNL     1      30.503  17.529 -20.108  1.00  0.00    -0.000 C 
BRANCH  20  21
HETATM   21  C   UNL     1      30.962  17.789 -21.538  1.00  0.00    -0.005 C 
HETATM   22  C   UNL     1      32.021  18.876 -21.573  1.00  0.00     0.005 C 
ENDBRANCH  20  21
ENDBRANCH  19  20
ENDBRANCH  18  19
ENDBRANCH  17  18
ENDBRANCH  16  17
ENDBRANCH  15  16
ENDBRANCH  14  15
ENDBRANCH  12  13
ENDBRANCH  11  12
ENDBRANCH  10  11
ENDBRANCH   9  10
ENDBRANCH   8   9
ENDBRANCH   7   8
ENDBRANCH   6   7
ENDBRANCH   4   6
ENDBRANCH   3   4
ENDBRANCH   2   3
ENDBRANCH   1   2
BRANCH   1  23
HETATM   23  C   UNL     1      20.684  13.307  -7.121  1.00  0.00     0.212 C 
BRANCH  23  24
HETATM   24  O   UNL     1      21.178  14.449  -7.846  1.00  0.00    -0.319 OA
BRANCH  24  25
HETATM   25  C   UNL     1      22.458  14.793  -7.544  1.00  0.00     0.258 C 
HETATM   26  O   UNL     1      23.152  14.227  -6.689  1.00  0.00    -0.265 OA
BRANCH  25  27
HETATM   27  C   UNL     1      22.904  15.983  -8.352  1.00  0.00     0.111 C 
BRANCH  27  28
HETATM   28  C   UNL     1      24.409  15.923  -8.585  1.00  0.00     0.010 C 
BRANCH  28  29
HETATM   29  C   UNL     1      24.916  17.101  -9.406  1.00  0.00     0.000 C 
BRANCH  29  30
HETATM   30  C   UNL     1      26.424  16.983  -9.604  1.00  0.00     0.000 C 
BRANCH  30  31
HETATM   31  C   UNL     1      26.959  18.148 -10.425  1.00  0.00     0.000 C 
BRANCH  31  32
HETATM   32  C   UNL     1      28.465  18.019 -10.616  1.00  0.00     0.004 C 
BRANCH  32  33
HETATM   33  C   UNL     1      28.994  19.186 -11.437  1.00  0.00     0.027 C 
BRANCH  33  34
HETATM   34  C   UNL     1      30.469  19.072 -11.631  1.00  0.00    -0.031 C 
HETATM   35  C   UNL     1      31.023  18.984 -12.849  1.00  0.00    -0.031 C 
BRANCH  35  36
HETATM   36  C   UNL     1      32.499  18.873 -13.044  1.00  0.00     0.027 C 
BRANCH  36  37
HETATM   37  C   UNL     1      33.020  20.042 -13.866  1.00  0.00     0.004 C 
BRANCH  37  38
HETATM   38  C   UNL     1      34.525  19.920 -14.062  1.00  0.00     0.000 C 
BRANCH  38  39
HETATM   39  C   UNL     1      35.048  21.088 -14.885  1.00  0.00     0.000 C 
BRANCH  39  40
HETATM   40  C   UNL     1      36.552  20.968 -15.083  1.00  0.00     0.000 C 
BRANCH  40  41
HETATM   41  C   UNL     1      37.075  22.137 -15.909  1.00  0.00    -0.000 C 
BRANCH  41  42
HETATM   42  C   UNL     1      38.580  22.026 -16.115  1.00  0.00    -0.005 C 
HETATM   43  C   UNL     1      39.098  23.191 -16.937  1.00  0.00     0.005 C 
ENDBRANCH  41  42
ENDBRANCH  40  41
ENDBRANCH  39  40
ENDBRANCH  38  39
ENDBRANCH  37  38
ENDBRANCH  36  37
ENDBRANCH  35  36
ENDBRANCH  33  34
ENDBRANCH  32  33
ENDBRANCH  31  32
ENDBRANCH  30  31
ENDBRANCH  29  30
ENDBRANCH  28  29
ENDBRANCH  27  28
ENDBRANCH  25  27
ENDBRANCH  24  25
ENDBRANCH  23  24
ENDBRANCH   1  23
BRANCH   1  44
HETATM   44  O   UNL     1      22.622  11.951  -7.785  1.00  0.00    -0.391 OA
HETATM   45  H   UNL     1      22.974  12.212  -6.913  1.00  0.00     0.210 HD
ENDBRANCH   1  44
TORSDOF 37
