REMARK  12 active torsions:
REMARK  status: ('A' for Active; 'I' for Inactive)
REMARK    1  A    between atoms: C_2  and  C_3 
REMARK    2  A    between atoms: C_3  and  C_4 
REMARK    3  A    between atoms: C_4  and  C_5 
REMARK    4  A    between atoms: C_5  and  C_6 
REMARK    5  A    between atoms: C_6  and  C_7 
REMARK    6  A    between atoms: C_7  and  C_8 
REMARK    7  A    between atoms: C_8  and  O_10 
REMARK    8  A    between atoms: O_10  and  C_11 
REMARK    9  A    between atoms: C_11  and  C_12 
REMARK   10  A    between atoms: C_12  and  C_13 
REMARK   11  A    between atoms: C_12  and  O_15 
REMARK   12  A    between atoms: C_13  and  O_14 
ROOT
HETATM    1  C   UNL     1       8.753  -3.168   2.913  1.00  0.00     0.258 C 
HETATM    2  O   UNL     1       9.413  -2.916   1.911  1.00  0.00    -0.265 OA
ENDROOT
BRANCH   1   3
HETATM    3  C   UNL     1       7.250  -3.162   2.967  1.00  0.00     0.111 C 
BRANCH   3   4
HETATM    4  C   UNL     1       6.677  -2.149   1.982  1.00  0.00     0.010 C 
BRANCH   4   5
HETATM    5  C   UNL     1       5.151  -2.162   1.982  1.00  0.00     0.000 C 
BRANCH   5   6
HETATM    6  C   UNL     1       4.611  -1.128   0.993  1.00  0.00     0.000 C 
BRANCH   6   7
HETATM    7  C   UNL     1       3.084  -1.114   0.976  1.00  0.00    -0.000 C 
BRANCH   7   8
HETATM    8  C   UNL     1       2.553  -0.078  -0.015  1.00  0.00    -0.005 C 
HETATM    9  C   UNL     1       1.033  -0.061  -0.038  1.00  0.00     0.005 C 
ENDBRANCH   7   8
ENDBRANCH   6   7
ENDBRANCH   5   6
ENDBRANCH   4   5
ENDBRANCH   3   4
ENDBRANCH   1   3
BRANCH   1  10
HETATM   10  O   UNL     1       9.273  -3.604   4.092  1.00  0.00    -0.319 OA
BRANCH  10  11
HETATM   11  C   UNL     1      10.600  -4.136   3.990  1.00  0.00     0.212 C 
BRANCH  11  12
HETATM   12  C   UNL     1      11.714  -3.092   3.834  1.00  0.00     0.166 C 
BRANCH  12  13
HETATM   13  C   UNL     1      11.774  -2.127   5.021  1.00  0.00     0.198 C 
BRANCH  13  14
HETATM   14  O   UNL     1      12.833  -1.185   4.842  1.00  0.00    -0.398 OA
HETATM   15  H   UNL     1      13.589  -1.683   4.475  1.00  0.00     0.209 HD
ENDBRANCH  13  14
ENDBRANCH  12  13
BRANCH  12  16
HETATM   16  O   UNL     1      12.989  -3.750   3.714  1.00  0.00    -0.391 OA
HETATM   17  H   UNL     1      13.120  -4.310   4.498  1.00  0.00     0.210 HD
ENDBRANCH  12  16
ENDBRANCH  11  12
ENDBRANCH  10  11
ENDBRANCH   1  10
TORSDOF 12
