REMARK  24 active torsions:
REMARK  status: ('A' for Active; 'I' for Inactive)
REMARK    1  A    between atoms: C_1  and  C_2 
REMARK    2  A    between atoms: C_1  and  O_45 
REMARK    3  A    between atoms: C_3  and  O_44 
REMARK    4  A    between atoms: C_4  and  O_43 
REMARK    5  A    between atoms: C_5  and  O_42 
REMARK    6  A    between atoms: C_6  and  O_8 
REMARK    7  A    between atoms: O_8  and  C_9 
REMARK    8  A    between atoms: C_9  and  C_10 
REMARK    9  A    between atoms: C_11  and  O_30 
REMARK   10  A    between atoms: C_12  and  O_29 
REMARK   11  A    between atoms: C_13  and  O_28 
REMARK   12  A    between atoms: C_14  and  O_16 
REMARK   13  A    between atoms: O_16  and  C_17 
REMARK   14  A    between atoms: C_18  and  C_26 
REMARK   15  A    between atoms: C_20  and  O_25 
REMARK   16  A    between atoms: C_21  and  O_24 
REMARK   17  A    between atoms: C_22  and  O_23 
REMARK   18  A    between atoms: C_26  and  O_27 
REMARK   19  A    between atoms: O_30  and  C_31 
REMARK   20  A    between atoms: C_32  and  O_41 
REMARK   21  A    between atoms: C_33  and  O_40 
REMARK   22  A    between atoms: C_34  and  O_39 
REMARK   23  A    between atoms: C_35  and  C_37 
REMARK   24  A    between atoms: C_37  and  O_38 
ROOT
HETATM    1  C   UNL     1      -2.242   1.677   5.130  1.00  0.00     0.180 C 
HETATM    2  C   UNL     1      -2.827   0.259   4.945  1.00  0.00     0.187 C 
HETATM    3  C   UNL     1      -3.761   0.244   3.716  1.00  0.00     0.183 C 
HETATM    4  C   UNL     1      -4.790   1.382   3.753  1.00  0.00     0.204 C 
HETATM    5  C   UNL     1      -4.025   2.717   3.899  1.00  0.00     0.292 C 
HETATM    6  O   UNL     1      -3.294   2.679   5.131  1.00  0.00    -0.348 OA
ENDROOT
BRANCH   1   7
HETATM    7  C   UNL     1      -1.092   1.980   4.165  1.00  0.00     0.205 C 
BRANCH   7   8
HETATM    8  O   UNL     1      -0.620   3.302   4.442  1.00  0.00    -0.356 OA
BRANCH   8   9
HETATM    9  C   UNL     1       0.523   3.623   3.656  1.00  0.00     0.291 C 
HETATM   10  C   UNL     1       1.051   5.022   4.052  1.00  0.00     0.204 C 
HETATM   11  C   UNL     1       2.148   5.462   3.075  1.00  0.00     0.183 C 
HETATM   12  C   UNL     1       1.737   5.255   1.604  1.00  0.00     0.180 C 
HETATM   13  C   UNL     1       1.193   3.843   1.348  1.00  0.00     0.179 C 
HETATM   14  O   UNL     1       0.129   3.585   2.278  1.00  0.00    -0.348 OA
BRANCH  10  15
HETATM   15  O   UNL     1       0.014   6.031   4.028  1.00  0.00    -0.388 OA
HETATM   16  H   UNL     1      -0.705   5.689   3.478  1.00  0.00     0.210 HD
ENDBRANCH  10  15
BRANCH  11  17
HETATM   17  O   UNL     1       2.474   6.841   3.300  1.00  0.00    -0.390 OA
HETATM   18  H   UNL     1       1.604   7.298   3.272  1.00  0.00     0.210 HD
ENDBRANCH  11  17
BRANCH  12  19
HETATM   19  O   UNL     1       0.704   6.205   1.250  1.00  0.00    -0.390 OA
HETATM   20  H   UNL     1      -0.158   5.760   1.328  1.00  0.00     0.210 HD
ENDBRANCH  12  19
BRANCH  13  21
HETATM   21  C   UNL     1       2.238   2.716   1.305  1.00  0.00     0.198 C 
BRANCH  21  22
HETATM   22  O   UNL     1       3.045   2.670   2.471  1.00  0.00    -0.398 OA
HETATM   23  H   UNL     1       3.979   2.776   2.199  1.00  0.00     0.209 HD
ENDBRANCH  21  22
ENDBRANCH  13  21
ENDBRANCH   8   9
ENDBRANCH   7   8
ENDBRANCH   1   7
BRANCH   2  24
HETATM   24  O   UNL     1      -3.605  -0.118   6.107  1.00  0.00    -0.348 OA
BRANCH  24  25
HETATM   25  C   UNL     1      -2.809  -0.663   7.159  1.00  0.00     0.292 C 
HETATM   26  C   UNL     1      -3.704  -1.370   8.206  1.00  0.00     0.204 C 
HETATM   27  C   UNL     1      -4.518  -0.328   8.984  1.00  0.00     0.183 C 
HETATM   28  C   UNL     1      -3.630   0.791   9.564  1.00  0.00     0.180 C 
HETATM   29  C   UNL     1      -2.798   1.377   8.416  1.00  0.00     0.179 C 
HETATM   30  O   UNL     1      -2.013   0.318   7.813  1.00  0.00    -0.348 OA
BRANCH  26  31
HETATM   31  O   UNL     1      -2.926  -2.141   9.147  1.00  0.00    -0.388 OA
HETATM   32  H   UNL     1      -1.980  -2.031   8.935  1.00  0.00     0.210 HD
ENDBRANCH  26  31
BRANCH  27  33
HETATM   33  O   UNL     1      -5.268  -0.971  10.015  1.00  0.00    -0.390 OA
HETATM   34  H   UNL     1      -4.639  -1.591  10.442  1.00  0.00     0.210 HD
ENDBRANCH  27  33
BRANCH  28  35
HETATM   35  O   UNL     1      -2.762   0.314  10.605  1.00  0.00    -0.390 OA
HETATM   36  H   UNL     1      -2.105  -0.269  10.186  1.00  0.00     0.210 HD
ENDBRANCH  28  35
BRANCH  29  37
HETATM   37  C   UNL     1      -1.859   2.523   8.836  1.00  0.00     0.198 C 
BRANCH  37  38
HETATM   38  O   UNL     1      -0.894   2.113   9.797  1.00  0.00    -0.398 OA
HETATM   39  H   UNL     1      -1.391   1.797  10.575  1.00  0.00     0.209 HD
ENDBRANCH  37  38
ENDBRANCH  29  37
ENDBRANCH  24  25
ENDBRANCH   2  24
BRANCH   3  40
HETATM   40  O   UNL     1      -4.429  -1.016   3.599  1.00  0.00    -0.390 OA
HETATM   41  H   UNL     1      -5.238  -0.941   4.148  1.00  0.00     0.210 HD
ENDBRANCH   3  40
BRANCH   5  42
HETATM   42  O   UNL     1      -4.838   3.899   3.802  1.00  0.00    -0.348 OA
BRANCH  42  43
HETATM   43  C   UNL     1      -5.514   4.033   2.527  1.00  0.00     0.187 C 
HETATM   44  C   UNL     1      -4.535   4.128   1.336  1.00  0.00     0.180 C 
HETATM   45  O   UNL     1      -3.849   5.386   1.278  1.00  0.00    -0.349 OA
HETATM   46  C   UNL     1      -4.645   6.556   1.291  1.00  0.00     0.288 C 
HETATM   47  C   UNL     1      -5.708   6.591   2.407  1.00  0.00     0.204 C 
HETATM   48  C   UNL     1      -6.453   5.255   2.524  1.00  0.00     0.183 C 
BRANCH  44  49
HETATM   49  C   UNL     1      -5.189   3.717   0.014  1.00  0.00     0.198 C 
BRANCH  49  50
HETATM   50  O   UNL     1      -4.239   3.799  -1.040  1.00  0.00    -0.398 OA
HETATM   51  H   UNL     1      -3.832   4.686  -0.981  1.00  0.00     0.209 HD
ENDBRANCH  49  50
ENDBRANCH  44  49
BRANCH  46  52
HETATM   52  O   UNL     1      -5.179   6.789  -0.005  1.00  0.00    -0.369 OA
HETATM   53  H   UNL     1      -6.044   6.363  -0.077  1.00  0.00     0.212 HD
ENDBRANCH  46  52
BRANCH  47  54
HETATM   54  O   UNL     1      -6.650   7.652   2.178  1.00  0.00    -0.388 OA
HETATM   55  H   UNL     1      -6.644   7.886   1.235  1.00  0.00     0.210 HD
ENDBRANCH  47  54
BRANCH  48  56
HETATM   56  O   UNL     1      -7.304   5.233   3.674  1.00  0.00    -0.390 OA
HETATM   57  H   UNL     1      -6.750   5.437   4.451  1.00  0.00     0.210 HD
ENDBRANCH  48  56
ENDBRANCH  42  43
ENDBRANCH   5  42
BRANCH   4  58
HETATM   58  O   UNL     1      -5.714   1.165   4.830  1.00  0.00    -0.388 OA
HETATM   59  H   UNL     1      -5.219   1.331   5.657  1.00  0.00     0.210 HD
ENDBRANCH   4  58
TORSDOF 24
