REMARK  14 active torsions:
REMARK  status: ('A' for Active; 'I' for Inactive)
REMARK    1  A    between atoms: O_2  and  C_3 
REMARK    2  A    between atoms: C_3  and  C_4 
REMARK    3  A    between atoms: C_4  and  O_5 
REMARK    4  A    between atoms: O_5  and  C_6 
REMARK    5  A    between atoms: C_6  and  C_7 
REMARK    6  A    between atoms: C_7  and  C_8 
REMARK    7  A    between atoms: C_7  and  O_14 
REMARK    8  A    between atoms: C_8  and  O_9 
REMARK    9  A    between atoms: O_9  and  C_10 
REMARK   10  A    between atoms: C_10  and  C_11 
REMARK   11  A    between atoms: C_11  and  O_12 
REMARK   12  A    between atoms: O_14  and  C_15 
REMARK   13  A    between atoms: C_15  and  C_16 
REMARK   14  A    between atoms: C_16  and  O_17 
ROOT
HETATM    1  C   UNL     1       6.772  -3.732   1.657  1.00  0.00     0.169 C 
ENDROOT
BRANCH   1   2
HETATM    2  C   UNL     1       6.265  -2.391   1.125  1.00  0.00     0.201 C 
BRANCH   2   3
HETATM    3  O   UNL     1       4.841  -2.352   1.126  1.00  0.00    -0.386 OA
BRANCH   3   4
HETATM    4  C   UNL     1       4.379  -1.071   0.705  1.00  0.00     0.193 C 
BRANCH   4   5
HETATM    5  C   UNL     1       2.860  -1.064   0.759  1.00  0.00     0.193 C 
BRANCH   5   6
HETATM    6  O   UNL     1       2.375   0.196   0.314  1.00  0.00    -0.394 OA
HETATM    7  C   UNL     1       0.954   0.231   0.343  1.00  0.00     0.201 C 
ENDBRANCH   5   6
ENDBRANCH   4   5
ENDBRANCH   3   4
ENDBRANCH   2   3
ENDBRANCH   1   2
BRANCH   1   8
HETATM    8  C   UNL     1       6.224  -4.896   0.806  1.00  0.00     0.201 C 
BRANCH   8   9
HETATM    9  O   UNL     1       6.638  -6.193   1.255  1.00  0.00    -0.386 OA
BRANCH   9  10
HETATM   10  C   UNL     1       6.167  -6.503   2.561  1.00  0.00     0.193 C 
BRANCH  10  11
HETATM   11  C   UNL     1       6.635  -7.893   2.957  1.00  0.00     0.193 C 
BRANCH  11  12
HETATM   12  O   UNL     1       6.188  -8.162   4.287  1.00  0.00    -0.394 OA
HETATM   13  C   UNL     1       6.614  -9.445   4.722  1.00  0.00     0.201 C 
ENDBRANCH  11  12
ENDBRANCH  10  11
ENDBRANCH   9  10
ENDBRANCH   8   9
ENDBRANCH   1   8
BRANCH   1  14
HETATM   14  O   UNL     1       8.215  -3.778   1.653  1.00  0.00    -0.380 OA
BRANCH  14  15
HETATM   15  C   UNL     1       8.796  -2.835   2.550  1.00  0.00     0.194 C 
BRANCH  15  16
HETATM   16  C   UNL     1      10.314  -2.901   2.502  1.00  0.00     0.193 C 
BRANCH  16  17
HETATM   17  O   UNL     1      10.815  -1.876   3.361  1.00  0.00    -0.394 OA
HETATM   18  C   UNL     1      12.234  -1.855   3.383  1.00  0.00     0.201 C 
ENDBRANCH  16  17
ENDBRANCH  15  16
ENDBRANCH  14  15
ENDBRANCH   1  14
TORSDOF 14
