REMARK  3 active torsions:
REMARK  status: ('A' for Active; 'I' for Inactive)
REMARK    1  A    between atoms: C_1  and  C_2 
REMARK    2  A    between atoms: C_1  and  O_5 
REMARK    3  A    between atoms: C_2  and  O_4 
ROOT
HETATM    1  C   UNL     1       0.443  -1.003  -1.047  1.00  0.00     0.164 C 
HETATM    2  O   UNL     1       1.234  -1.678  -1.694  1.00  0.00    -0.648 OA
ENDROOT
BRANCH   1   3
HETATM    3  C   UNL     1       0.865  -0.002   0.021  1.00  0.00     0.273 C 
BRANCH   3   4
HETATM    4  O   UNL     1       2.271   0.099   0.176  1.00  0.00    -0.391 OA
HETATM    5  H   UNL     1       2.647  -0.755  -0.117  1.00  0.00     0.210 HD
ENDBRANCH   3   4
ENDBRANCH   1   3
BRANCH   1   6
HETATM    6  O   UNL     1      -0.898  -1.114  -1.188  1.00  0.00    -0.775 OA
HETATM    7  H   UNL     1      -1.412  -0.536  -0.591  1.00  0.00     0.167 HD
ENDBRANCH   1   6
TORSDOF 3
