REMARK  6 active torsions:
REMARK  status: ('A' for Active; 'I' for Inactive)
REMARK    1  A    between atoms: C_3  and  N_11 
REMARK    2  A    between atoms: C_4  and  N_8 
REMARK    3  A    between atoms: C_6  and  N_7 
REMARK    4  A    between atoms: N_11  and  C_12 
REMARK    5  A    between atoms: C_12  and  C_13 
REMARK    6  A    between atoms: C_13  and  O_14 
ROOT
HETATM    1  C   UNL     1       0.254  -1.138  -0.049  1.00  0.00     0.025 A 
HETATM    2  C   UNL     1      -1.142  -1.077   0.017  1.00  0.00     0.028 A 
HETATM    3  C   UNL     1      -1.844   0.135   0.126  1.00  0.00     0.041 A 
HETATM    4  C   UNL     1      -1.055   1.311   0.054  1.00  0.00     0.125 A 
HETATM    5  C   UNL     1       0.359   1.242  -0.019  1.00  0.00     0.061 A 
HETATM    6  C   UNL     1       1.021   0.019  -0.006  1.00  0.00     0.008 A 
ENDROOT
BRANCH   3   7
HETATM    7  N   UNL     1      -3.263   0.118   0.151  1.00  0.00    -0.289 NA
HETATM    8  H   UNL     1      -3.635   1.035   0.432  1.00  0.00     0.127 HD
BRANCH   7   9
HETATM    9  C   UNL     1      -3.891  -0.998   0.888  1.00  0.00     0.118 C 
BRANCH   9  10
HETATM   10  C   UNL     1      -5.419  -0.892   0.884  1.00  0.00     0.178 C 
BRANCH  10  11
HETATM   11  O   UNL     1      -5.923  -0.952  -0.448  1.00  0.00    -0.400 OA
HETATM   12  H   UNL     1      -5.317  -0.410  -0.988  1.00  0.00     0.209 HD
ENDBRANCH  10  11
ENDBRANCH   9  10
ENDBRANCH   7   9
ENDBRANCH   3   7
BRANCH   4  13
HETATM   13  N   UNL     1      -1.650   2.659   0.090  1.00  0.00    -0.114 N 
HETATM   14  O   UNL     1      -2.880   2.758   0.224  1.00  0.00    -0.532 OA
HETATM   15  O   UNL     1      -0.886   3.635   0.016  1.00  0.00    -0.532 OA
ENDBRANCH   4  13
BRANCH   6  16
HETATM   16  N   UNL     1       2.402  -0.054  -0.199  1.00  0.00    -0.303 NA
HETATM   17  H   UNL     1       2.920   0.756   0.132  1.00  0.00     0.124 HD
HETATM   18  H   UNL     1       2.823  -0.926   0.108  1.00  0.00     0.124 HD
ENDBRANCH   6  16
TORSDOF 6
