REMARK  5 active torsions:
REMARK  status: ('A' for Active; 'I' for Inactive)
REMARK    1  A    between atoms: O_2  and  C_3 
REMARK    2  A    between atoms: C_4  and  O_22 
REMARK    3  A    between atoms: C_6  and  C_9 
REMARK    4  A    between atoms: C_14  and  O_21 
REMARK    5  A    between atoms: C_16  and  O_20 
ROOT
HETATM    1  C   UNL     1       4.585   5.573  -0.465  1.00  0.00     0.169 C 
HETATM    2  C   UNL     1       4.407   7.004   0.018  1.00  0.00     0.121 C 
HETATM    3  C   UNL     1       3.001   7.268   0.483  1.00  0.00     0.167 C 
HETATM    4  O   UNL     1       2.716   8.192   1.237  1.00  0.00    -0.292 OA
HETATM    5  C   UNL     1       1.948   6.404  -0.063  1.00  0.00     0.076 C 
HETATM    6  C   UNL     1       0.604   6.571   0.289  1.00  0.00     0.085 C 
HETATM    7  C   UNL     1      -0.334   5.610  -0.087  1.00  0.00     0.074 C 
HETATM    8  C   UNL     1       0.069   4.529  -0.854  1.00  0.00     0.071 C 
HETATM    9  C   UNL     1       1.371   4.438  -1.342  1.00  0.00     0.074 C 
HETATM   10  C   UNL     1       2.312   5.373  -0.925  1.00  0.00     0.089 C 
HETATM   11  O   UNL     1       3.577   5.217  -1.419  1.00  0.00    -0.340 OA
ENDROOT
BRANCH   1  12
HETATM   12  C   UNL     1       4.808   4.417   0.500  1.00  0.00    -0.026 C 
HETATM   13  C   UNL     1       5.202   3.188  -0.062  1.00  0.00     0.049 C 
HETATM   14  C   UNL     1       5.671   2.141   0.729  1.00  0.00     0.099 C 
HETATM   15  C   UNL     1       5.696   2.258   2.115  1.00  0.00     0.101 C 
HETATM   16  C   UNL     1       5.176   3.428   2.683  1.00  0.00     0.040 C 
HETATM   17  C   UNL     1       4.738   4.505   1.893  1.00  0.00     0.012 C 
BRANCH  14  18
HETATM   18  O   UNL     1       6.196   1.084   0.046  1.00  0.00    -0.358 OA
HETATM   19  H   UNL     1       7.160   1.179   0.148  1.00  0.00     0.217 HD
ENDBRANCH  14  18
BRANCH  15  20
HETATM   20  O   UNL     1       6.239   1.393   3.024  1.00  0.00    -0.353 OA
HETATM   21  C   UNL     1       6.491   0.049   2.637  1.00  0.00     0.210 C 
ENDBRANCH  15  20
ENDBRANCH   1  12
BRANCH   6  22
HETATM   22  O   UNL     1       0.141   7.651   0.988  1.00  0.00    -0.360 OA
HETATM   23  H   UNL     1       0.896   8.264   1.136  1.00  0.00     0.217 HD
ENDBRANCH   6  22
BRANCH   8  24
HETATM   24  O   UNL     1      -0.785   3.510  -1.146  1.00  0.00    -0.361 OA
HETATM   25  H   UNL     1      -1.395   3.420  -0.393  1.00  0.00     0.217 HD
ENDBRANCH   8  24
TORSDOF 5
