REMARK  17 active torsions:
REMARK  status: ('A' for Active; 'I' for Inactive)
REMARK    1  A    between atoms: CA_3  and  C_6 
REMARK       I    between atoms: N_4  and  C_8 
REMARK       I    between atoms: C_6  and  N_14 
REMARK    2  A    between atoms: C_8  and  CA_10 
REMARK    3  A    between atoms: CA_10  and  N_11 
REMARK    4  A    between atoms: N_14  and  CA_15 
REMARK    5  A    between atoms: CA_15  and  CB_16 
REMARK    6  A    between atoms: CA_15  and  C_21 
REMARK    7  A    between atoms: CB_16  and  CG_17 
REMARK    8  A    between atoms: CG_17  and  CD_18 
REMARK       I    between atoms: CD_18  and  NE2_20 
REMARK       I    between atoms: C_21  and  N_26 
REMARK    9  A    between atoms: N_26  and  CA_27 
REMARK   10  A    between atoms: CA_27  and  C_28 
REMARK       I    between atoms: C_28  and  N_31 
REMARK   11  A    between atoms: CA_35  and  C_36 
REMARK       I    between atoms: C_36  and  N_38 
REMARK   12  A    between atoms: N_38  and  CA_39 
REMARK   13  A    between atoms: CA_39  and  CB_40 
REMARK   14  A    between atoms: CA_39  and  C_45 
REMARK   15  A    between atoms: CB_40  and  CG_41 
REMARK   16  A    between atoms: CG_41  and  CD_42 
REMARK       I    between atoms: CD_42  and  NE2_44 
REMARK   17  A    between atoms: C_45  and  OXT_47 
ROOT
ATOM      1  C   GLN A   3      -2.357  -5.790   0.172  1.00  0.00     0.240 C 
ATOM      2  O   GLN A   3      -1.529  -6.008  -0.709  1.00  0.00    -0.271 OA
ATOM      3  N   GLY A   4      -3.078  -6.812   0.763  1.00  0.00    -0.351 N 
ATOM      4  H   GLY A   4      -3.532  -6.643   1.650  1.00  0.00     0.163 HD
ENDROOT
BRANCH   3   5
ATOM      5  CA  GLY A   4      -2.914  -8.204   0.374  1.00  0.00     0.225 C 
BRANCH   5   6
ATOM      6  C   GLY A   4      -4.222  -9.016   0.557  1.00  0.00     0.238 C 
ATOM      7  O   GLY A   4      -5.277  -8.648   0.028  1.00  0.00    -0.272 OA
ATOM      8  N   PRO A   5      -4.197 -10.156   1.337  1.00  0.00    -0.337 N 
ATOM      9  CD  PRO A   5      -3.086 -10.676   2.108  1.00  0.00     0.127 C 
ATOM     10  CA  PRO A   5      -5.346 -11.075   1.427  1.00  0.00     0.179 C 
ATOM     11  CG  PRO A   5      -3.230 -12.177   1.982  1.00  0.00     0.022 C 
ATOM     12  CB  PRO A   5      -4.733 -12.411   1.900  1.00  0.00     0.037 C 
BRANCH  10  13
ATOM     13  C   PRO A   5      -6.443 -10.600   2.423  1.00  0.00     0.241 C 
ATOM     14  O   PRO A   5      -6.679 -11.160   3.493  1.00  0.00    -0.271 OA
ATOM     15  N   GLN A   6      -7.173  -9.499   2.034  1.00  0.00    -0.345 N 
ATOM     16  H   GLN A   6      -7.042  -9.181   1.077  1.00  0.00     0.163 HD
BRANCH  15  17
ATOM     17  CA  GLN A   6      -8.378  -9.100   2.780  1.00  0.00     0.182 C 
BRANCH  17  18
ATOM     18  CB  GLN A   6      -8.516  -7.587   2.727  1.00  0.00     0.045 C 
BRANCH  18  19
ATOM     19  CG  GLN A   6      -9.652  -6.938   3.508  1.00  0.00     0.105 C 
BRANCH  19  20
ATOM     20  CD  GLN A   6      -9.605  -5.427   3.406  1.00  0.00     0.215 C 
ATOM     21  OE1 GLN A   6      -8.795  -4.807   2.730  1.00  0.00    -0.274 OA
ATOM     22  NE2 GLN A   6     -10.568  -4.802   4.149  1.00  0.00    -0.370 N 
ATOM     23 1HE2 GLN A   6     -11.181  -5.293   4.785  1.00  0.00     0.159 HD
ATOM     24 2HE2 GLN A   6     -10.606  -3.791   4.135  1.00  0.00     0.159 HD
ENDBRANCH  19  20
ENDBRANCH  18  19
ENDBRANCH  17  18
BRANCH  17  25
ATOM     25  C   GLN A   6      -9.616  -9.816   2.244  1.00  0.00     0.163 C 
ATOM     26  O   GLN A   6      -9.684 -10.387   1.167  1.00  0.00    -0.648 OA
BRANCH  25  27
ATOM     27  OXT GLN A   6     -10.679  -9.777   3.093  1.00  0.00    -0.775 OA
ATOM     28  HXT GLN A   6     -10.492  -9.368   3.958  1.00  0.00     0.167 HD
ENDBRANCH  25  27
ENDBRANCH  17  25
ENDBRANCH  15  17
ENDBRANCH  10  13
ENDBRANCH   5   6
ENDBRANCH   3   5
BRANCH   1  29
ATOM     29  CA  GLN A   3      -2.660  -4.364   0.714  1.00  0.00     0.177 C 
BRANCH  29  30
ATOM     30  N   GLN A   3      -1.733  -3.381   0.148  1.00  0.00    -0.346 N 
ATOM     31  C   PRO A   2      -1.492  -2.177   0.760  1.00  0.00     0.241 C 
ATOM     32  O   PRO A   2      -1.857  -1.970   1.917  1.00  0.00    -0.271 OA
ATOM     33  H   GLN A   3      -1.339  -3.565  -0.778  1.00  0.00     0.163 HD
BRANCH  31  34
ATOM     34  CA  PRO A   2      -0.576  -1.167   0.017  1.00  0.00     0.179 C 
ATOM     35  CB  PRO A   2      -0.798   0.209   0.671  1.00  0.00     0.037 C 
ATOM     36  CG  PRO A   2      -0.240   1.207  -0.323  1.00  0.00     0.022 C 
ATOM     37  CD  PRO A   2      -0.462   0.550  -1.670  1.00  0.00     0.127 C 
ATOM     38  N   PRO A   2      -0.765  -0.852  -1.410  1.00  0.00    -0.337 N 
ATOM     39  C   GLY A   1      -0.738  -1.792  -2.422  1.00  0.00     0.248 C 
ATOM     40  O   GLY A   1      -0.605  -2.996  -2.194  1.00  0.00    -0.271 OA
BRANCH  39  41
ATOM     41  CA  GLY A   1      -0.885  -1.289  -3.871  1.00  0.00     0.369 C 
BRANCH  41  42
ATOM     42  N   GLY A   1      -2.108  -0.490  -4.047  1.00  0.00     0.087 N 
ATOM     43  H1  GLY A   1      -2.917  -1.083  -3.857  1.00  0.00     0.313 HD
ATOM     44  H2  GLY A   1      -2.185  -0.200  -5.020  1.00  0.00     0.313 HD
ENDBRANCH  41  42
ENDBRANCH  39  41
ENDBRANCH  31  34
ENDBRANCH  29  30
BRANCH  29  45
ATOM     45  CB  GLN A   3      -4.096  -3.888   0.413  1.00  0.00     0.043 C 
BRANCH  45  46
ATOM     46  CG  GLN A   3      -5.212  -4.697   1.050  1.00  0.00     0.099 C 
BRANCH  46  47
ATOM     47  CD  GLN A   3      -5.029  -4.835   2.543  1.00  0.00     0.195 C 
ATOM     48  OE1 GLN A   3      -4.337  -4.142   3.268  1.00  0.00    -0.280 OA
ATOM     49  NE2 GLN A   3      -5.713  -5.891   3.038  1.00  0.00    -0.273 NA
ATOM     50 1HE2 GLN A   3      -6.591  -6.015   2.551  1.00  0.00     0.127 HD
ATOM     51 2HE2 GLN A   3      -5.750  -5.936   4.048  1.00  0.00     0.127 HD
ENDBRANCH  46  47
ENDBRANCH  45  46
ENDBRANCH  29  45
ENDBRANCH   1  29
TORSDOF 17
