REMARK  22 active torsions:
REMARK  status: ('A' for Active; 'I' for Inactive)
REMARK    1  A    between atoms: C_3  and  O_11 
REMARK    2  A    between atoms: C_6  and  C_7 
REMARK    3  A    between atoms: C_7  and  N_8 
REMARK    4  A    between atoms: C_7  and  N_10 
REMARK    5  A    between atoms: O_11  and  C_12 
REMARK    6  A    between atoms: C_12  and  C_13 
REMARK    7  A    between atoms: C_13  and  C_14 
REMARK    8  A    between atoms: C_14  and  C_15 
REMARK    9  A    between atoms: C_15  and  C_16 
REMARK   10  A    between atoms: C_16  and  C_17 
REMARK   11  A    between atoms: C_17  and  O_18 
REMARK   12  A    between atoms: O_18  and  C_19 
REMARK   13  A    between atoms: C_22  and  C_25 
REMARK   14  A    between atoms: C_25  and  N_26 
REMARK   15  A    between atoms: C_35  and  C_36 
REMARK   16  A    between atoms: C_35  and  O_41 
REMARK   17  A    between atoms: C_36  and  S_37 
REMARK   18  A    between atoms: S_37  and  O_40 
REMARK   19  A    between atoms: C_44  and  C_45 
REMARK   20  A    between atoms: C_44  and  O_50 
REMARK   21  A    between atoms: C_45  and  S_46 
REMARK   22  A    between atoms: S_46  and  O_49 
ROOT
HETATM    1  S   UNL     2      -0.391   3.220  -1.144  1.00  0.00     0.096 S 
HETATM    2  O   UNL     2      -0.984   3.396   0.155  1.00  0.00    -0.601 OA
HETATM    3  O   UNL     2       0.974   3.589  -1.453  1.00  0.00    -0.601 OA
ENDROOT
BRANCH   1   4
HETATM    4  C   UNL     2      -0.694   1.587  -1.746  1.00  0.00     0.181 C 
BRANCH   4   5
HETATM    5  C   UNL     2      -0.200   0.582  -0.736  1.00  0.00     0.180 C 
BRANCH   5   6
HETATM    6  O   UNL     2       1.222   0.577  -0.611  1.00  0.00    -0.400 OA
HETATM    7  H   UNL     2       1.632   1.145  -1.292  1.00  0.00     0.209 HD
ENDBRANCH   5   6
ENDBRANCH   4   5
ENDBRANCH   1   4
BRANCH   1   8
HETATM    8  O   UNL     2      -1.373   3.988  -2.181  1.00  0.00    -0.296 OA
HETATM    9  H   UNL     2      -2.209   4.179  -1.702  1.00  0.00     0.232 HD
ENDBRANCH   1   8
TORSDOF 22
