REMARK  25 active torsions:
REMARK  status: ('A' for Active; 'I' for Inactive)
REMARK    1  A    between atoms: C_2  and  C_3 
REMARK    2  A    between atoms: C_3  and  C_4 
REMARK    3  A    between atoms: C_4  and  C_5 
REMARK    4  A    between atoms: C_5  and  C_6 
REMARK    5  A    between atoms: C_6  and  C_7 
REMARK    6  A    between atoms: C_7  and  C_8 
REMARK    7  A    between atoms: C_8  and  C_9 
REMARK    8  A    between atoms: C_9  and  C_10 
REMARK    9  A    between atoms: C_10  and  C_11 
REMARK   10  A    between atoms: C_11  and  C_12 
REMARK   11  A    between atoms: C_12  and  O_14 
REMARK   12  A    between atoms: O_14  and  C_15 
REMARK   13  A    between atoms: C_15  and  C_16 
REMARK   14  A    between atoms: C_16  and  C_17 
REMARK   15  A    between atoms: C_16  and  C_23 
REMARK   16  A    between atoms: C_17  and  C_18 
REMARK   17  A    between atoms: C_18  and  C_19 
REMARK   18  A    between atoms: C_19  and  C_20 
REMARK   19  A    between atoms: C_20  and  C_21 
REMARK   20  A    between atoms: C_23  and  C_24 
REMARK   21  A    between atoms: C_24  and  C_25 
REMARK   22  A    between atoms: C_25  and  C_26 
REMARK   23  A    between atoms: C_26  and  C_27 
REMARK   24  A    between atoms: C_27  and  C_28 
REMARK   25  A    between atoms: C_28  and  C_29 
ROOT
HETATM    1  C   UNL     1      14.690  -2.056  -8.176  1.00  0.00     0.183 C 
ENDROOT
BRANCH   1   2
HETATM    2  O   UNL     1      13.267  -2.073  -8.066  1.00  0.00    -0.321 OA
BRANCH   2   3
HETATM    3  C   UNL     1      12.712  -3.327  -8.054  1.00  0.00     0.258 C 
HETATM    4  O   UNL     1      13.215  -4.331  -8.502  1.00  0.00    -0.265 OA
BRANCH   3   5
HETATM    5  C   UNL     1      11.410  -3.314  -7.278  1.00  0.00     0.111 C 
BRANCH   5   6
HETATM    6  C   UNL     1      10.412  -2.409  -7.974  1.00  0.00     0.010 C 
BRANCH   6   7
HETATM    7  C   UNL     1       9.074  -2.346  -7.254  1.00  0.00     0.000 C 
BRANCH   7   8
HETATM    8  C   UNL     1       8.128  -1.421  -8.010  1.00  0.00     0.000 C 
BRANCH   8   9
HETATM    9  C   UNL     1       6.782  -1.342  -7.309  1.00  0.00     0.000 C 
BRANCH   9  10
HETATM   10  C   UNL     1       5.842  -0.416  -8.066  1.00  0.00     0.000 C 
BRANCH  10  11
HETATM   11  C   UNL     1       4.499  -0.343  -7.359  1.00  0.00     0.000 C 
BRANCH  11  12
HETATM   12  C   UNL     1       3.555   0.583  -8.111  1.00  0.00     0.000 C 
BRANCH  12  13
HETATM   13  C   UNL     1       2.213   0.654  -7.402  1.00  0.00    -0.000 C 
BRANCH  13  14
HETATM   14  C   UNL     1       1.263   1.581  -8.151  1.00  0.00    -0.005 C 
HETATM   15  C   UNL     1      -0.076   1.651  -7.439  1.00  0.00     0.005 C 
ENDBRANCH  13  14
ENDBRANCH  12  13
ENDBRANCH  11  12
ENDBRANCH  10  11
ENDBRANCH   9  10
ENDBRANCH   8   9
ENDBRANCH   7   8
ENDBRANCH   6   7
ENDBRANCH   5   6
ENDBRANCH   3   5
ENDBRANCH   2   3
ENDBRANCH   1   2
BRANCH   1  16
HETATM   16  C   UNL     1      15.213  -2.321  -9.593  1.00  0.00     0.010 C 
BRANCH  16  17
HETATM   17  C   UNL     1      14.679  -1.281 -10.593  1.00  0.00     0.007 C 
BRANCH  17  18
HETATM   18  C   UNL     1      15.156  -1.564 -12.010  1.00  0.00     0.000 C 
BRANCH  18  19
HETATM   19  C   UNL     1      14.640  -0.527 -12.980  1.00  0.00     0.000 C 
BRANCH  19  20
HETATM   20  C   UNL     1      15.179  -0.868 -14.359  1.00  0.00    -0.000 C 
BRANCH  20  21
HETATM   21  C   UNL     1      14.674   0.137 -15.371  1.00  0.00    -0.005 C 
HETATM   22  C   UNL     1      15.203  -0.197 -16.751  1.00  0.00     0.005 C 
ENDBRANCH  20  21
ENDBRANCH  19  20
ENDBRANCH  18  19
ENDBRANCH  17  18
ENDBRANCH  16  17
BRANCH  16  23
HETATM   23  C   UNL     1      16.748  -2.343  -9.606  1.00  0.00     0.007 C 
BRANCH  23  24
HETATM   24  C   UNL     1      17.328  -3.419  -8.703  1.00  0.00     0.000 C 
BRANCH  24  25
HETATM   25  C   UNL     1      18.843  -3.409  -8.749  1.00  0.00     0.000 C 
BRANCH  25  26
HETATM   26  C   UNL     1      19.383  -4.486  -7.820  1.00  0.00     0.000 C 
BRANCH  26  27
HETATM   27  C   UNL     1      20.901  -4.493  -7.863  1.00  0.00     0.000 C 
BRANCH  27  28
HETATM   28  C   UNL     1      21.449  -5.570  -6.941  1.00  0.00    -0.000 C 
BRANCH  28  29
HETATM   29  C   UNL     1      22.971  -5.574  -6.978  1.00  0.00    -0.005 C 
HETATM   30  C   UNL     1      23.517  -6.649  -6.059  1.00  0.00     0.005 C 
ENDBRANCH  28  29
ENDBRANCH  27  28
ENDBRANCH  26  27
ENDBRANCH  25  26
ENDBRANCH  24  25
ENDBRANCH  23  24
ENDBRANCH  16  23
ENDBRANCH   1  16
TORSDOF 25
