REMARK  4 active torsions:
REMARK  status: ('A' for Active; 'I' for Inactive)
REMARK    1  A    between atoms: C_4  and  O_10 
REMARK    2  A    between atoms: O_10  and  C_11 
REMARK    3  A    between atoms: C_11  and  C_13 
REMARK    4  A    between atoms: C_18  and  O_19 
ROOT
HETATM    1  O   UNL     1       3.216   1.738  -3.308  1.00  0.00    -0.312 OA
ENDROOT
BRANCH   1   2
HETATM    2  C   UNL     1       2.565   0.802  -2.432  1.00  0.00     0.133 C 
HETATM    3  C   UNL     1       2.984   1.092  -0.989  1.00  0.00     0.037 C 
HETATM    4  C   UNL     1       2.463   0.055   0.009  1.00  0.00    -0.015 C 
HETATM    5  C   UNL     1       0.981   0.258   0.322  1.00  0.00     0.010 C 
HETATM    6  C   UNL     1       2.805  -1.371  -0.452  1.00  0.00     0.013 C 
HETATM    7  C   UNL     1       2.454  -1.717  -1.920  1.00  0.00    -0.045 C 
HETATM    8  C   UNL     1       2.994  -0.612  -2.854  1.00  0.00     0.041 C 
HETATM    9  C   UNL     1       0.939  -1.914  -2.124  1.00  0.00     0.015 C 
HETATM   10  C   UNL     1       3.128  -3.063  -2.267  1.00  0.00     0.015 C 
ENDBRANCH   1   2
BRANCH   1  11
HETATM   11  C   UNL     1       2.618   2.948  -3.435  1.00  0.00     0.296 C 
HETATM   12  O   UNL     1       1.634   3.335  -2.822  1.00  0.00    -0.259 OA
BRANCH  11  13
HETATM   13  C   UNL     1       3.383   3.816  -4.356  1.00  0.00     0.072 A 
HETATM   14  C   UNL     1       3.429   5.189  -4.057  1.00  0.00     0.020 A 
HETATM   15  C   UNL     1       4.129   6.066  -4.885  1.00  0.00     0.001 A 
HETATM   16  C   UNL     1       4.785   5.582  -6.014  1.00  0.00     0.003 A 
HETATM   17  C   UNL     1       4.733   4.222  -6.327  1.00  0.00     0.037 A 
HETATM   18  C   UNL     1       4.025   3.342  -5.505  1.00  0.00     0.082 A 
BRANCH  18  19
HETATM   19  O   UNL     1       3.936   2.027  -5.862  1.00  0.00    -0.360 OA
HETATM   20  H   UNL     1       4.490   1.863  -6.644  1.00  0.00     0.217 HD
ENDBRANCH  18  19
ENDBRANCH  11  13
ENDBRANCH   1  11
TORSDOF 4
