REMARK WARNING: 32 MAX_TORS EXCEEDED!!!
REMARK  36 active torsions:
REMARK  status: ('A' for Active; 'I' for Inactive)
REMARK    1  A    between atoms: C_2  and  C_3 
REMARK    2  A    between atoms: C_2  and  O_55 
REMARK    3  A    between atoms: C_3  and  O_4 
REMARK    4  A    between atoms: O_4  and  C_5 
REMARK    5  A    between atoms: C_5  and  C_6 
REMARK    6  A    between atoms: C_7  and  O_50 
REMARK    7  A    between atoms: C_8  and  O_45 
REMARK    8  A    between atoms: C_9  and  O_40 
REMARK    9  A    between atoms: C_10  and  O_12 
REMARK   10  A    between atoms: O_12  and  C_13 
REMARK   11  A    between atoms: C_14  and  C_34 
REMARK   12  A    between atoms: C_16  and  O_29 
REMARK   13  A    between atoms: C_17  and  O_24 
REMARK   14  A    between atoms: C_18  and  O_19 
REMARK   15  A    between atoms: O_19  and  C_20 
REMARK   16  A    between atoms: C_20  and  C_21 
REMARK   17  A    between atoms: C_21  and  O_23 
REMARK   18  A    between atoms: O_24  and  C_25 
REMARK   19  A    between atoms: C_25  and  C_26 
REMARK   20  A    between atoms: C_26  and  O_28 
REMARK   21  A    between atoms: O_29  and  C_30 
REMARK   22  A    between atoms: C_30  and  C_31 
REMARK   23  A    between atoms: C_31  and  O_33 
REMARK   24  A    between atoms: C_34  and  O_35 
REMARK   25  A    between atoms: O_35  and  C_36 
REMARK   26  A    between atoms: C_36  and  C_37 
REMARK   27  A    between atoms: C_37  and  O_39 
REMARK   28  A    between atoms: O_40  and  C_41 
REMARK   29  A    between atoms: C_41  and  C_42 
REMARK   30  A    between atoms: C_42  and  O_44 
REMARK   31  A    between atoms: O_45  and  C_46 
REMARK   32  A    between atoms: C_46  and  C_47 
REMARK   33  A    between atoms: C_47  and  O_49 
REMARK   34  A    between atoms: O_50  and  C_51 
REMARK   35  A    between atoms: C_51  and  C_52 
REMARK   36  A    between atoms: C_52  and  O_54 
ROOT
HETATM    1  O   UNL     1       0.966  -6.684  -0.563  1.00  0.00    -0.348 OA
ENDROOT
BRANCH   1   2
HETATM    2  C   UNL     1       2.224  -6.143  -0.038  1.00  0.00     0.292 C 
HETATM    3  C   UNL     1       2.916  -7.042   1.048  1.00  0.00     0.208 C 
HETATM    4  C   UNL     1       4.275  -6.430   1.507  1.00  0.00     0.186 C 
HETATM    5  C   UNL     1       3.905  -5.098   2.201  1.00  0.00     0.184 C 
HETATM    6  C   UNL     1       3.089  -4.194   1.207  1.00  0.00     0.180 C 
HETATM    7  O   UNL     1       1.993  -4.849   0.537  1.00  0.00    -0.348 OA
BRANCH   3   8
HETATM    8  O   UNL     1       2.148  -7.518   2.202  1.00  0.00    -0.376 OA
BRANCH   8   9
HETATM    9  C   UNL     1       1.357  -6.725   3.076  1.00  0.00     0.199 C 
BRANCH   9  10
HETATM   10  C   UNL     1       0.575  -7.545   4.145  1.00  0.00     0.138 C 
HETATM   11  C   UNL     1       1.440  -8.499   4.983  1.00  0.00     0.041 C 
BRANCH  10  12
HETATM   12  O   UNL     1      -0.026  -6.619   5.072  1.00  0.00    -0.394 OA
HETATM   13  H   UNL     1       0.639  -6.376   5.746  1.00  0.00     0.210 HD
ENDBRANCH  10  12
ENDBRANCH   9  10
ENDBRANCH   8   9
ENDBRANCH   3   8
BRANCH   4  14
HETATM   14  O   UNL     1       4.857  -7.489   2.318  1.00  0.00    -0.378 OA
BRANCH  14  15
HETATM   15  C   UNL     1       6.234  -7.363   2.663  1.00  0.00     0.199 C 
BRANCH  15  16
HETATM   16  C   UNL     1       6.910  -8.753   2.832  1.00  0.00     0.138 C 
HETATM   17  C   UNL     1       6.205  -9.731   3.766  1.00  0.00     0.041 C 
BRANCH  16  18
HETATM   18  O   UNL     1       7.052  -9.384   1.556  1.00  0.00    -0.394 OA
HETATM   19  H   UNL     1       6.153  -9.546   1.217  1.00  0.00     0.210 HD
ENDBRANCH  16  18
ENDBRANCH  15  16
ENDBRANCH  14  15
ENDBRANCH   4  14
BRANCH   5  20
HETATM   20  O   UNL     1       4.931  -4.358   2.908  1.00  0.00    -0.378 OA
BRANCH  20  21
HETATM   21  C   UNL     1       4.271  -3.510   3.902  1.00  0.00     0.199 C 
BRANCH  21  22
HETATM   22  C   UNL     1       5.214  -2.541   4.605  1.00  0.00     0.138 C 
HETATM   23  C   UNL     1       6.111  -3.233   5.604  1.00  0.00     0.041 C 
BRANCH  22  24
HETATM   24  O   UNL     1       5.993  -1.848   3.636  1.00  0.00    -0.394 OA
HETATM   25  H   UNL     1       6.288  -2.525   3.000  1.00  0.00     0.210 HD
ENDBRANCH  22  24
ENDBRANCH  21  22
ENDBRANCH  20  21
ENDBRANCH   5  20
BRANCH   6  26
HETATM   26  C   UNL     1       4.090  -3.475   0.277  1.00  0.00     0.202 C 
BRANCH  26  27
HETATM   27  O   UNL     1       3.583  -2.339  -0.434  1.00  0.00    -0.386 OA
BRANCH  27  28
HETATM   28  C   UNL     1       4.694  -1.705  -1.105  1.00  0.00     0.199 C 
BRANCH  28  29
HETATM   29  C   UNL     1       4.290  -0.537  -2.008  1.00  0.00     0.138 C 
HETATM   30  C   UNL     1       3.703   0.649  -1.266  1.00  0.00     0.041 C 
BRANCH  29  31
HETATM   31  O   UNL     1       3.360  -0.979  -2.993  1.00  0.00    -0.394 OA
HETATM   32  H   UNL     1       2.622  -1.388  -2.501  1.00  0.00     0.210 HD
ENDBRANCH  29  31
ENDBRANCH  28  29
ENDBRANCH  27  28
ENDBRANCH  26  27
ENDBRANCH   6  26
ENDBRANCH   1   2
BRANCH   1  33
HETATM   33  C   UNL     1       0.960  -7.409  -1.850  1.00  0.00     0.187 C 
HETATM   34  C   UNL     1       1.284  -8.923  -1.679  1.00  0.00     0.180 C 
HETATM   35  O   UNL     1       0.869  -9.717  -2.801  1.00  0.00    -0.348 OA
HETATM   36  C   UNL     1      -0.554  -9.705  -2.946  1.00  0.00     0.291 C 
HETATM   37  C   UNL     1      -0.864  -8.361  -3.621  1.00  0.00     0.208 C 
HETATM   38  C   UNL     1      -0.460  -7.244  -2.559  1.00  0.00     0.186 C 
BRANCH  34  39
HETATM   39  C   UNL     1       0.665  -9.616  -0.472  1.00  0.00     0.202 C 
BRANCH  39  40
HETATM   40  O   UNL     1       1.361  -9.340   0.693  1.00  0.00    -0.386 OA
BRANCH  40  41
HETATM   41  C   UNL     1       0.852 -10.067   1.789  1.00  0.00     0.199 C 
BRANCH  41  42
HETATM   42  C   UNL     1       1.467 -11.452   1.859  1.00  0.00     0.138 C 
HETATM   43  C   UNL     1       2.992 -11.348   1.872  1.00  0.00     0.041 C 
BRANCH  42  44
HETATM   44  O   UNL     1       1.005 -12.125   3.027  1.00  0.00    -0.394 OA
HETATM   45  H   UNL     1       1.153 -11.533   3.787  1.00  0.00     0.210 HD
ENDBRANCH  42  44
ENDBRANCH  41  42
ENDBRANCH  40  41
ENDBRANCH  39  40
ENDBRANCH  34  39
BRANCH  36  46
HETATM   46  O   UNL     1      -1.034 -10.869  -3.617  1.00  0.00    -0.356 OA
BRANCH  46  47
HETATM   47  C   UNL     1      -0.646 -12.080  -2.951  1.00  0.00     0.202 C 
BRANCH  47  48
HETATM   48  C   UNL     1      -1.062 -13.296  -3.789  1.00  0.00     0.138 C 
HETATM   49  C   UNL     1      -2.545 -13.301  -4.121  1.00  0.00     0.041 C 
BRANCH  48  50
HETATM   50  O   UNL     1      -0.330 -13.314  -5.016  1.00  0.00    -0.394 OA
HETATM   51  H   UNL     1      -0.455 -12.442  -5.431  1.00  0.00     0.210 HD
ENDBRANCH  48  50
ENDBRANCH  47  48
ENDBRANCH  46  47
ENDBRANCH  36  46
BRANCH  37  52
HETATM   52  O   UNL     1      -0.188  -8.235  -4.904  1.00  0.00    -0.376 OA
BRANCH  52  53
HETATM   53  C   UNL     1      -0.612  -9.266  -5.830  1.00  0.00     0.199 C 
BRANCH  53  54
HETATM   54  C   UNL     1       0.101  -9.205  -7.179  1.00  0.00     0.138 C 
HETATM   55  C   UNL     1      -0.146  -7.910  -7.913  1.00  0.00     0.041 C 
BRANCH  54  56
HETATM   56  O   UNL     1       1.504  -9.386  -6.981  1.00  0.00    -0.394 OA
HETATM   57  H   UNL     1       1.716  -8.946  -6.135  1.00  0.00     0.210 HD
ENDBRANCH  54  56
ENDBRANCH  53  54
ENDBRANCH  52  53
ENDBRANCH  37  52
BRANCH  38  58
HETATM   58  O   UNL     1      -0.564  -5.895  -3.046  1.00  0.00    -0.378 OA
BRANCH  58  59
HETATM   59  C   UNL     1      -1.805  -5.483  -3.629  1.00  0.00     0.199 C 
BRANCH  59  60
HETATM   60  C   UNL     1      -2.893  -5.078  -2.614  1.00  0.00     0.138 C 
HETATM   61  C   UNL     1      -3.596  -6.227  -1.904  1.00  0.00     0.041 C 
BRANCH  60  62
HETATM   62  O   UNL     1      -2.350  -4.206  -1.624  1.00  0.00    -0.394 OA
HETATM   63  H   UNL     1      -1.468  -4.559  -1.393  1.00  0.00     0.210 HD
ENDBRANCH  60  62
ENDBRANCH  59  60
ENDBRANCH  58  59
ENDBRANCH  38  58
ENDBRANCH   1  33
TORSDOF 36
