REMARK  8 active torsions:
REMARK  status: ('A' for Active; 'I' for Inactive)
REMARK    1  A    between atoms: C_1  and  N_2 
REMARK    2  A    between atoms: C_1  and  N_15 
REMARK       I    between atoms: N_2  and  C_3 
REMARK       I    between atoms: C_3  and  N_5 
REMARK    3  A    between atoms: N_5  and  C_6 
REMARK    4  A    between atoms: N_12  and  C_13 
REMARK    5  A    between atoms: C_13  and  O_14 
REMARK       I    between atoms: N_15  and  C_16 
REMARK       I    between atoms: C_16  and  N_18 
REMARK    6  A    between atoms: N_18  and  C_19 
REMARK    7  A    between atoms: N_25  and  C_26 
REMARK    8  A    between atoms: C_26  and  O_27 
ROOT
HETATM    1  C   UNL     1       0.963   0.080  -0.095  1.00  0.00     0.252 C 
ENDROOT
BRANCH   1   2
HETATM    2  N   UNL     1       0.405   0.823  -1.183  1.00  0.00    -0.327 N 
HETATM    3  C   UNL     1      -0.956   0.909  -1.258  1.00  0.00     0.319 C 
HETATM    4  O   UNL     1      -1.720   0.506  -0.394  1.00  0.00    -0.247 OA
HETATM    5  N   UNL     1      -1.369   1.463  -2.435  1.00  0.00    -0.313 N 
HETATM    6  H   UNL     1      -0.720   2.082  -2.898  1.00  0.00     0.166 HD
HETATM    7  H   UNL     1       0.857   0.636  -2.069  1.00  0.00     0.165 HD
BRANCH   5   8
HETATM    8  C   UNL     1      -2.766   1.683  -2.646  1.00  0.00     0.288 C 
HETATM    9  C   UNL     1      -3.277   3.048  -2.131  1.00  0.00     0.268 C 
HETATM   10  O   UNL     1      -3.169   3.512  -1.007  1.00  0.00    -0.269 OA
HETATM   11  N   UNL     1      -3.900   3.678  -3.164  1.00  0.00    -0.276 N 
HETATM   12  C   UNL     1      -3.866   2.914  -4.279  1.00  0.00     0.328 C 
HETATM   13  H   UNL     1      -4.387   4.555  -3.087  1.00  0.00     0.173 HD
HETATM   14  O   UNL     1      -4.455   3.156  -5.320  1.00  0.00    -0.247 OA
HETATM   15  N   UNL     1      -3.077   1.804  -4.046  1.00  0.00    -0.282 N 
BRANCH  15  16
HETATM   16  C   UNL     1      -3.164   0.635  -4.870  1.00  0.00     0.297 C 
BRANCH  16  17
HETATM   17  O   UNL     1      -2.707   0.975  -6.160  1.00  0.00    -0.382 OA
HETATM   18  H   UNL     1      -3.224   1.763  -6.414  1.00  0.00     0.211 HD
ENDBRANCH  16  17
ENDBRANCH  15  16
ENDBRANCH   5   8
ENDBRANCH   1   2
BRANCH   1  19
HETATM   19  N   UNL     1       2.394  -0.001  -0.202  1.00  0.00    -0.327 N 
HETATM   20  C   UNL     1       2.941  -0.753  -1.203  1.00  0.00     0.319 C 
HETATM   21  O   UNL     1       2.299  -1.244  -2.121  1.00  0.00    -0.247 OA
HETATM   22  N   UNL     1       4.289  -0.904  -1.062  1.00  0.00    -0.313 N 
HETATM   23  H   UNL     1       4.780  -0.184  -0.555  1.00  0.00     0.166 HD
HETATM   24  H   UNL     1       2.887  -0.042   0.677  1.00  0.00     0.165 HD
BRANCH  22  25
HETATM   25  C   UNL     1       5.010  -1.574  -2.104  1.00  0.00     0.288 C 
HETATM   26  C   UNL     1       5.499  -0.637  -3.231  1.00  0.00     0.268 C 
HETATM   27  O   UNL     1       4.835   0.153  -3.884  1.00  0.00    -0.269 OA
HETATM   28  N   UNL     1       6.835  -0.841  -3.391  1.00  0.00    -0.276 N 
HETATM   29  C   UNL     1       7.286  -1.753  -2.500  1.00  0.00     0.328 C 
HETATM   30  H   UNL     1       7.399  -0.411  -4.104  1.00  0.00     0.173 HD
HETATM   31  O   UNL     1       8.415  -2.218  -2.475  1.00  0.00    -0.247 OA
HETATM   32  N   UNL     1       6.266  -2.087  -1.631  1.00  0.00    -0.282 N 
BRANCH  32  33
HETATM   33  C   UNL     1       6.307  -3.284  -0.848  1.00  0.00     0.297 C 
BRANCH  33  34
HETATM   34  O   UNL     1       7.354  -3.155   0.086  1.00  0.00    -0.382 OA
HETATM   35  H   UNL     1       8.144  -2.940  -0.446  1.00  0.00     0.211 HD
ENDBRANCH  33  34
ENDBRANCH  32  33
ENDBRANCH  22  25
ENDBRANCH   1  19
TORSDOF 8
