REMARK WARNING: 32 MAX_TORS EXCEEDED!!!
REMARK  49 active torsions:
REMARK  status: ('A' for Active; 'I' for Inactive)
REMARK    1  A    between atoms: C_2  and  C_3 
REMARK    2  A    between atoms: C_3  and  C_4 
REMARK    3  A    between atoms: C_4  and  C_5 
REMARK    4  A    between atoms: C_5  and  C_6 
REMARK    5  A    between atoms: C_6  and  C_7 
REMARK    6  A    between atoms: C_7  and  C_8 
REMARK    7  A    between atoms: C_8  and  C_9 
REMARK    8  A    between atoms: C_9  and  C_10 
REMARK    9  A    between atoms: C_10  and  C_11 
REMARK   10  A    between atoms: C_11  and  C_12 
REMARK   11  A    between atoms: C_12  and  C_13 
REMARK   12  A    between atoms: C_13  and  C_14 
REMARK   13  A    between atoms: C_14  and  C_15 
REMARK   14  A    between atoms: C_15  and  C_16 
REMARK   15  A    between atoms: C_16  and  C_17 
REMARK   16  A    between atoms: C_17  and  C_18 
REMARK   17  A    between atoms: C_18  and  O_20 
REMARK   18  A    between atoms: O_20  and  C_21 
REMARK   19  A    between atoms: C_21  and  C_22 
REMARK   20  A    between atoms: C_21  and  C_28 
REMARK   21  A    between atoms: C_22  and  C_23 
REMARK   22  A    between atoms: C_23  and  C_24 
REMARK   23  A    between atoms: C_24  and  C_25 
REMARK   24  A    between atoms: C_25  and  C_26 
REMARK   25  A    between atoms: C_28  and  C_29 
REMARK   26  A    between atoms: C_29  and  C_30 
REMARK   27  A    between atoms: C_30  and  C_31 
REMARK   28  A    between atoms: C_31  and  C_32 
REMARK   29  A    between atoms: C_32  and  C_33 
REMARK   30  A    between atoms: C_33  and  C_34 
REMARK   31  A    between atoms: C_34  and  C_35 
REMARK   32  A    between atoms: C_35  and  C_36 
REMARK   33  A    between atoms: C_36  and  C_37 
REMARK   34  A    between atoms: C_37  and  C_38 
REMARK   35  A    between atoms: C_38  and  O_40 
REMARK   36  A    between atoms: O_40  and  C_41 
REMARK   37  A    between atoms: C_41  and  C_42 
REMARK   38  A    between atoms: C_42  and  C_43 
REMARK   39  A    between atoms: C_43  and  C_44 
REMARK   40  A    between atoms: C_44  and  C_45 
REMARK   41  A    between atoms: C_45  and  C_46 
REMARK   42  A    between atoms: C_46  and  C_47 
REMARK   43  A    between atoms: C_47  and  C_48 
REMARK   44  A    between atoms: C_48  and  C_49 
REMARK   45  A    between atoms: C_49  and  C_50 
REMARK   46  A    between atoms: C_50  and  C_51 
REMARK   47  A    between atoms: C_51  and  C_52 
REMARK   48  A    between atoms: C_52  and  C_53 
REMARK   49  A    between atoms: C_53  and  C_54 
ROOT
HETATM    1  C   UNL     1      21.320   2.473  13.881  1.00  0.00     0.032 C 
ENDROOT
BRANCH   1   2
HETATM    2  C   UNL     1      20.760   2.225  12.466  1.00  0.00     0.132 C 
BRANCH   2   3
HETATM    3  O   UNL     1      21.211   0.934  11.974  1.00  0.00    -0.316 OA
BRANCH   3   4
HETATM    4  C   UNL     1      21.171   0.747  10.632  1.00  0.00     0.259 C 
HETATM    5  O   UNL     1      20.777   1.597   9.824  1.00  0.00    -0.265 OA
BRANCH   4   6
HETATM    6  C   UNL     1      21.689  -0.606  10.216  1.00  0.00     0.111 C 
BRANCH   6   7
HETATM    7  C   UNL     1      22.864  -0.449   9.252  1.00  0.00     0.010 C 
BRANCH   7   8
HETATM    8  C   UNL     1      23.376  -1.798   8.769  1.00  0.00     0.000 C 
BRANCH   8   9
HETATM    9  C   UNL     1      24.553  -1.613   7.823  1.00  0.00     0.000 C 
BRANCH   9  10
HETATM   10  C   UNL     1      25.056  -2.968   7.356  1.00  0.00     0.000 C 
BRANCH  10  11
HETATM   11  C   UNL     1      26.231  -2.792   6.412  1.00  0.00     0.000 C 
BRANCH  11  12
HETATM   12  C   UNL     1      26.730  -4.150   5.953  1.00  0.00     0.000 C 
BRANCH  12  13
HETATM   13  C   UNL     1      27.903  -3.974   5.007  1.00  0.00     0.000 C 
BRANCH  13  14
HETATM   14  C   UNL     1      28.401  -5.331   4.546  1.00  0.00     0.000 C 
BRANCH  14  15
HETATM   15  C   UNL     1      29.575  -5.156   3.602  1.00  0.00     0.000 C 
BRANCH  15  16
HETATM   16  C   UNL     1      30.071  -6.512   3.140  1.00  0.00     0.000 C 
BRANCH  16  17
HETATM   17  C   UNL     1      31.246  -6.337   2.196  1.00  0.00     0.000 C 
BRANCH  17  18
HETATM   18  C   UNL     1      31.745  -7.693   1.734  1.00  0.00     0.000 C 
BRANCH  18  19
HETATM   19  C   UNL     1      32.922  -7.518   0.790  1.00  0.00     0.000 C 
BRANCH  19  20
HETATM   20  C   UNL     1      33.423  -8.875   0.327  1.00  0.00    -0.000 C 
BRANCH  20  21
HETATM   21  C   UNL     1      34.602  -8.709  -0.619  1.00  0.00    -0.005 C 
HETATM   22  C   UNL     1      35.099 -10.064  -1.081  1.00  0.00     0.005 C 
ENDBRANCH  20  21
ENDBRANCH  19  20
ENDBRANCH  18  19
ENDBRANCH  17  18
ENDBRANCH  16  17
ENDBRANCH  15  16
ENDBRANCH  14  15
ENDBRANCH  13  14
ENDBRANCH  12  13
ENDBRANCH  11  12
ENDBRANCH  10  11
ENDBRANCH   9  10
ENDBRANCH   8   9
ENDBRANCH   7   8
ENDBRANCH   6   7
ENDBRANCH   4   6
ENDBRANCH   3   4
ENDBRANCH   2   3
BRANCH   2  23
HETATM   23  C   UNL     1      19.224   2.264  12.519  1.00  0.00     0.032 C 
BRANCH  23  24
HETATM   24  C   UNL     1      18.726   3.615  13.000  1.00  0.00     0.002 C 
BRANCH  24  25
HETATM   25  C   UNL     1      17.226   3.688  13.113  1.00  0.00     0.000 C 
BRANCH  25  26
HETATM   26  C   UNL     1      16.871   5.076  13.628  1.00  0.00    -0.000 C 
BRANCH  26  27
HETATM   27  C   UNL     1      15.363   5.189  13.724  1.00  0.00    -0.005 C 
HETATM   28  C   UNL     1      14.970   6.558  14.232  1.00  0.00     0.005 C 
ENDBRANCH  26  27
ENDBRANCH  25  26
ENDBRANCH  24  25
ENDBRANCH  23  24
ENDBRANCH   2  23
ENDBRANCH   1   2
BRANCH   1  29
HETATM   29  C   UNL     1      22.839   2.484  13.920  1.00  0.00     0.002 C 
BRANCH  29  30
HETATM   30  C   UNL     1      23.345   2.731  15.333  1.00  0.00     0.000 C 
BRANCH  30  31
HETATM   31  C   UNL     1      24.865   2.724  15.335  1.00  0.00     0.000 C 
BRANCH  31  32
HETATM   32  C   UNL     1      25.383   2.970  16.741  1.00  0.00     0.000 C 
BRANCH  32  33
HETATM   33  C   UNL     1      26.902   2.966  16.746  1.00  0.00     0.000 C 
BRANCH  33  34
HETATM   34  C   UNL     1      27.422   3.209  18.153  1.00  0.00     0.000 C 
BRANCH  34  35
HETATM   35  C   UNL     1      28.947   3.205  18.160  1.00  0.00     0.000 C 
BRANCH  35  36
HETATM   36  C   UNL     1      29.467   3.446  19.569  1.00  0.00     0.010 C 
BRANCH  36  37
HETATM   37  C   UNL     1      30.993   3.442  19.624  1.00  0.00     0.111 C 
BRANCH  37  38
HETATM   38  C   UNL     1      31.470   3.686  21.044  1.00  0.00     0.258 C 
HETATM   39  O   UNL     1      30.717   3.885  21.999  1.00  0.00    -0.265 OA
BRANCH  38  40
HETATM   40  O   UNL     1      32.829   3.742  21.098  1.00  0.00    -0.321 OA
BRANCH  40  41
HETATM   41  C   UNL     1      33.340   4.959  21.673  1.00  0.00     0.178 C 
BRANCH  41  42
HETATM   42  C   UNL     1      34.117   4.716  22.960  1.00  0.00     0.027 C 
BRANCH  42  43
HETATM   43  C   UNL     1      34.690   6.025  23.502  1.00  0.00     0.002 C 
BRANCH  43  44
HETATM   44  C   UNL     1      35.457   5.784  24.795  1.00  0.00     0.000 C 
BRANCH  44  45
HETATM   45  C   UNL     1      36.021   7.086  25.326  1.00  0.00     0.000 C 
BRANCH  45  46
HETATM   46  C   UNL     1      36.787   6.836  26.621  1.00  0.00     0.000 C 
BRANCH  46  47
HETATM   47  C   UNL     1      37.352   8.139  27.152  1.00  0.00     0.000 C 
BRANCH  47  48
HETATM   48  C   UNL     1      38.112   7.885  28.440  1.00  0.00     0.000 C 
BRANCH  48  49
HETATM   49  C   UNL     1      38.675   9.189  28.969  1.00  0.00     0.000 C 
BRANCH  49  50
HETATM   50  C   UNL     1      39.432   8.939  30.256  1.00  0.00     0.000 C 
BRANCH  50  51
HETATM   51  C   UNL     1      39.990  10.249  30.779  1.00  0.00     0.000 C 
BRANCH  51  52
HETATM   52  C   UNL     1      40.747   9.989  32.062  1.00  0.00     0.000 C 
BRANCH  52  53
HETATM   53  C   UNL     1      41.329  11.282  32.614  1.00  0.00     0.004 C 
BRANCH  53  54
HETATM   54  C   UNL     1      42.101  11.030  33.912  1.00  0.00    -0.023 C 
HETATM   55  C   UNL     1      43.259  10.057  33.685  1.00  0.00     0.009 C 
HETATM   56  C   UNL     1      42.639  12.351  34.452  1.00  0.00     0.009 C 
ENDBRANCH  53  54
ENDBRANCH  52  53
ENDBRANCH  51  52
ENDBRANCH  50  51
ENDBRANCH  49  50
ENDBRANCH  48  49
ENDBRANCH  47  48
ENDBRANCH  46  47
ENDBRANCH  45  46
ENDBRANCH  44  45
ENDBRANCH  43  44
ENDBRANCH  42  43
ENDBRANCH  41  42
ENDBRANCH  40  41
ENDBRANCH  38  40
ENDBRANCH  37  38
ENDBRANCH  36  37
ENDBRANCH  35  36
ENDBRANCH  34  35
ENDBRANCH  33  34
ENDBRANCH  32  33
ENDBRANCH  31  32
ENDBRANCH  30  31
ENDBRANCH  29  30
ENDBRANCH   1  29
TORSDOF 49
