REMARK  10 active torsions:
REMARK  status: ('A' for Active; 'I' for Inactive)
REMARK    1  A    between atoms: C_2  and  C_4 
REMARK    2  A    between atoms: C_4  and  C_5 
REMARK    3  A    between atoms: C_5  and  C_6 
REMARK    4  A    between atoms: C_6  and  C_7 
REMARK    5  A    between atoms: C_7  and  C_8 
REMARK    6  A    between atoms: C_8  and  C_9 
REMARK    7  A    between atoms: C_9  and  C_10 
REMARK    8  A    between atoms: C_10  and  O_11 
REMARK    9  A    between atoms: O_11  and  C_12 
REMARK   10  A    between atoms: C_12  and  C_14 
ROOT
HETATM    1  C   UNL     1       8.707   0.664   4.397  1.00  0.00     0.027 C 
ENDROOT
BRANCH   1   2
HETATM    2  C   UNL     1       7.176   0.651   4.341  1.00  0.00     0.002 C 
BRANCH   2   3
HETATM    3  C   UNL     1       6.639   0.401   2.930  1.00  0.00     0.000 C 
BRANCH   3   4
HETATM    4  C   UNL     1       7.077  -0.947   2.358  1.00  0.00     0.000 C 
BRANCH   4   5
HETATM    5  C   UNL     1       6.490  -1.172   0.968  1.00  0.00     0.000 C 
BRANCH   5   6
HETATM    6  C   UNL     1       6.937  -2.521   0.400  1.00  0.00     0.004 C 
BRANCH   6   7
HETATM    7  C   UNL     1       6.420  -2.781  -1.025  1.00  0.00    -0.023 C 
HETATM    8  C   UNL     1       6.943  -4.129  -1.526  1.00  0.00     0.009 C 
HETATM    9  C   UNL     1       4.893  -2.755  -1.103  1.00  0.00     0.009 C 
ENDBRANCH   6   7
ENDBRANCH   5   6
ENDBRANCH   4   5
ENDBRANCH   3   4
ENDBRANCH   2   3
ENDBRANCH   1   2
BRANCH   1  10
HETATM   10  C   UNL     1       9.231   0.966   5.799  1.00  0.00     0.178 C 
BRANCH  10  11
HETATM   11  O   UNL     1       8.793   2.253   6.245  1.00  0.00    -0.321 OA
BRANCH  11  12
HETATM   12  C   UNL     1       9.500   3.316   5.761  1.00  0.00     0.266 C 
HETATM   13  O   UNL     1      10.474   3.222   5.025  1.00  0.00    -0.264 OA
BRANCH  12  14
HETATM   14  C   UNL     1       8.903   4.631   6.257  1.00  0.00     0.037 C 
HETATM   15  C   UNL     1       8.989   4.677   7.787  1.00  0.00     0.025 C 
HETATM   16  C   UNL     1       9.705   5.800   5.666  1.00  0.00     0.025 C 
HETATM   17  C   UNL     1       7.443   4.743   5.799  1.00  0.00     0.025 C 
ENDBRANCH  12  14
ENDBRANCH  11  12
ENDBRANCH  10  11
ENDBRANCH   1  10
TORSDOF 10
