REMARK  12 active torsions:
REMARK  status: ('A' for Active; 'I' for Inactive)
REMARK    1  A    between atoms: C_2  and  C_4 
REMARK    2  A    between atoms: C_4  and  C_5 
REMARK    3  A    between atoms: C_5  and  C_6 
REMARK    4  A    between atoms: C_6  and  C_7 
REMARK    5  A    between atoms: C_7  and  C_8 
REMARK    6  A    between atoms: C_8  and  C_9 
REMARK    7  A    between atoms: C_9  and  C_10 
REMARK    8  A    between atoms: C_10  and  C_11 
REMARK    9  A    between atoms: C_11  and  C_12 
REMARK   10  A    between atoms: C_12  and  C_13 
REMARK   11  A    between atoms: C_13  and  C_14 
REMARK   12  A    between atoms: C_14  and  C_15 
ROOT
HETATM    1  C   UNL     1       7.042   3.049   2.949  1.00  0.00     0.000 C 
ENDROOT
BRANCH   1   2
HETATM    2  C   UNL     1       6.517   2.029   1.954  1.00  0.00     0.000 C 
BRANCH   2   3
HETATM    3  C   UNL     1       4.995   2.021   1.951  1.00  0.00     0.000 C 
BRANCH   3   4
HETATM    4  C   UNL     1       4.494   0.993   0.948  1.00  0.00     0.000 C 
BRANCH   4   5
HETATM    5  C   UNL     1       2.970   0.956   0.907  1.00  0.00     0.004 C 
BRANCH   5   6
HETATM    6  C   UNL     1       2.434  -0.076  -0.098  1.00  0.00    -0.023 C 
HETATM    7  C   UNL     1       0.906  -0.064  -0.079  1.00  0.00     0.009 C 
HETATM    8  C   UNL     1       2.938   0.181  -1.520  1.00  0.00     0.009 C 
ENDBRANCH   5   6
ENDBRANCH   4   5
ENDBRANCH   3   4
ENDBRANCH   2   3
ENDBRANCH   1   2
BRANCH   1   9
HETATM    9  C   UNL     1       8.563   3.052   2.945  1.00  0.00     0.000 C 
BRANCH   9  10
HETATM   10  C   UNL     1       9.087   4.072   3.944  1.00  0.00     0.000 C 
BRANCH  10  11
HETATM   11  C   UNL     1      10.608   4.080   3.945  1.00  0.00     0.000 C 
BRANCH  11  12
HETATM   12  C   UNL     1      11.132   5.101   4.945  1.00  0.00     0.000 C 
BRANCH  12  13
HETATM   13  C   UNL     1      12.657   5.113   4.951  1.00  0.00     0.004 C 
BRANCH  13  14
HETATM   14  C   UNL     1      13.179   6.138   5.952  1.00  0.00     0.026 C 
BRANCH  14  15
HETATM   15  C   UNL     1      14.676   6.171   5.972  1.00  0.00    -0.037 C 
HETATM   16  C   UNL     1      15.377   7.273   5.681  1.00  0.00     0.007 C 
ENDBRANCH  14  15
ENDBRANCH  13  14
ENDBRANCH  12  13
ENDBRANCH  11  12
ENDBRANCH  10  11
ENDBRANCH   9  10
ENDBRANCH   1   9
TORSDOF 12
