REMARK  4 active torsions:
REMARK  status: ('A' for Active; 'I' for Inactive)
REMARK    1  A    between atoms: C_2  and  O_4 
REMARK    2  A    between atoms: O_4  and  C_5 
REMARK    3  A    between atoms: C_5  and  C_7 
REMARK    4  A    between atoms: C_10  and  O_13 
ROOT
HETATM    1  C   UNL     1       4.766  -2.410   1.927  1.00  0.00     0.039 A 
HETATM    2  C   UNL     1       6.100  -2.791   2.131  1.00  0.00     0.020 A 
HETATM    3  C   UNL     1       6.415  -3.802   3.046  1.00  0.00     0.037 A 
HETATM    4  C   UNL     1       5.391  -4.428   3.749  1.00  0.00     0.065 A 
HETATM    5  C   UNL     1       4.063  -4.071   3.548  1.00  0.00     0.037 A 
HETATM    6  C   UNL     1       3.747  -3.063   2.636  1.00  0.00     0.020 A 
ENDROOT
BRANCH   1   7
HETATM    7  C   UNL     1       4.478  -1.309   0.966  1.00  0.00     0.293 C 
HETATM    8  O   UNL     1       5.337  -0.723   0.331  1.00  0.00    -0.259 OA
BRANCH   7   9
HETATM    9  O   UNL     1       3.143  -1.071   0.921  1.00  0.00    -0.313 OA
BRANCH   9  10
HETATM   10  C   UNL     1       2.704  -0.032   0.027  1.00  0.00     0.124 C 
HETATM   11  C   UNL     1       2.642  -0.575  -1.396  1.00  0.00     0.040 C 
HETATM   12  C   UNL     1       1.318   0.404   0.490  1.00  0.00     0.040 C 
ENDBRANCH   9  10
ENDBRANCH   7   9
ENDBRANCH   1   7
BRANCH   4  13
HETATM   13  O   UNL     1       5.646  -5.410   4.659  1.00  0.00    -0.361 OA
HETATM   14  H   UNL     1       6.607  -5.545   4.712  1.00  0.00     0.217 HD
ENDBRANCH   4  13
TORSDOF 4
