REMARK  16 active torsions:
REMARK  status: ('A' for Active; 'I' for Inactive)
REMARK    1  A    between atoms: C_2  and  C_3 
REMARK    2  A    between atoms: C_3  and  C_4 
REMARK    3  A    between atoms: C_4  and  C_5 
REMARK    4  A    between atoms: C_5  and  C_6 
REMARK    5  A    between atoms: C_6  and  C_7 
REMARK    6  A    between atoms: C_7  and  C_8 
REMARK    7  A    between atoms: C_8  and  O_10 
REMARK    8  A    between atoms: O_10  and  C_11 
REMARK    9  A    between atoms: C_18  and  O_19 
REMARK   10  A    between atoms: O_19  and  C_20 
REMARK   11  A    between atoms: C_20  and  C_22 
REMARK   12  A    between atoms: C_22  and  C_23 
REMARK   13  A    between atoms: C_23  and  C_24 
REMARK   14  A    between atoms: C_24  and  C_25 
REMARK   15  A    between atoms: C_25  and  C_26 
REMARK   16  A    between atoms: C_26  and  C_27 
ROOT
HETATM    1  C   UNL     1      10.719   4.797   2.444  1.00  0.00     0.187 C 
HETATM    2  C   UNL     1      11.280   4.843   1.027  1.00  0.00     0.203 C 
HETATM    3  O   UNL     1      11.592   3.496   0.646  1.00  0.00    -0.378 OA
HETATM    4  C   UNL     1      11.651   2.666   1.817  1.00  0.00     0.184 C 
HETATM    5  C   UNL     1      11.381   3.556   3.017  1.00  0.00     0.184 C 
HETATM    6  O   UNL     1      12.659   3.903   3.582  1.00  0.00    -0.378 OA
HETATM    7  C   UNL     1      13.697   3.344   2.760  1.00  0.00     0.203 C 
HETATM    8  C   UNL     1      13.073   2.175   2.014  1.00  0.00     0.187 C 
ENDROOT
BRANCH   1   9
HETATM    9  O   UNL     1       9.279   4.644   2.413  1.00  0.00    -0.311 OA
BRANCH   9  10
HETATM   10  C   UNL     1       8.555   5.804   2.346  1.00  0.00     0.259 C 
HETATM   11  O   UNL     1       9.014   6.941   2.327  1.00  0.00    -0.265 OA
BRANCH  10  12
HETATM   12  C   UNL     1       7.074   5.524   2.263  1.00  0.00     0.111 C 
BRANCH  12  13
HETATM   13  C   UNL     1       6.541   6.027   0.925  1.00  0.00     0.010 C 
BRANCH  13  14
HETATM   14  C   UNL     1       5.031   5.840   0.779  1.00  0.00     0.000 C 
BRANCH  14  15
HETATM   15  C   UNL     1       4.566   6.344  -0.590  1.00  0.00     0.000 C 
BRANCH  15  16
HETATM   16  C   UNL     1       3.060   6.170  -0.781  1.00  0.00    -0.000 C 
BRANCH  16  17
HETATM   17  C   UNL     1       2.617   6.672  -2.156  1.00  0.00    -0.005 C 
HETATM   18  C   UNL     1       1.121   6.494  -2.353  1.00  0.00     0.005 C 
ENDBRANCH  16  17
ENDBRANCH  15  16
ENDBRANCH  14  15
ENDBRANCH  13  14
ENDBRANCH  12  13
ENDBRANCH  10  12
ENDBRANCH   9  10
ENDBRANCH   1   9
BRANCH   8  19
HETATM   19  O   UNL     1      13.085   0.984   2.828  1.00  0.00    -0.311 OA
BRANCH  19  20
HETATM   20  C   UNL     1      14.295   0.357   2.870  1.00  0.00     0.259 C 
HETATM   21  O   UNL     1      15.296   0.719   2.265  1.00  0.00    -0.265 OA
BRANCH  20  22
HETATM   22  C   UNL     1      14.263  -0.837   3.790  1.00  0.00     0.111 C 
BRANCH  22  23
HETATM   23  C   UNL     1      15.296  -0.656   4.899  1.00  0.00     0.010 C 
BRANCH  23  24
HETATM   24  C   UNL     1      15.346  -1.854   5.847  1.00  0.00     0.000 C 
BRANCH  24  25
HETATM   25  C   UNL     1      16.386  -1.628   6.947  1.00  0.00     0.000 C 
BRANCH  25  26
HETATM   26  C   UNL     1      16.458  -2.812   7.911  1.00  0.00    -0.000 C 
BRANCH  26  27
HETATM   27  C   UNL     1      17.497  -2.570   9.006  1.00  0.00    -0.005 C 
HETATM   28  C   UNL     1      17.573  -3.742   9.971  1.00  0.00     0.005 C 
ENDBRANCH  26  27
ENDBRANCH  25  26
ENDBRANCH  24  25
ENDBRANCH  23  24
ENDBRANCH  22  23
ENDBRANCH  20  22
ENDBRANCH  19  20
ENDBRANCH   8  19
TORSDOF 16
