REMARK  17 active torsions:
REMARK  status: ('A' for Active; 'I' for Inactive)
REMARK    1  A    between atoms: C_1  and  C_2 
REMARK    2  A    between atoms: C_1  and  O_24 
REMARK    3  A    between atoms: C_3  and  O_23 
REMARK    4  A    between atoms: C_4  and  O_22 
REMARK    5  A    between atoms: C_5  and  O_21 
REMARK    6  A    between atoms: C_6  and  O_8 
REMARK    7  A    between atoms: O_8  and  C_9 
REMARK    8  A    between atoms: C_9  and  C_10 
REMARK    9  A    between atoms: C_9  and  C_14 
REMARK   10  A    between atoms: C_10  and  C_11 
REMARK   11  A    between atoms: C_10  and  O_13 
REMARK   12  A    between atoms: C_11  and  O_12 
REMARK   13  A    between atoms: C_14  and  C_15 
REMARK   14  A    between atoms: C_14  and  O_20 
REMARK   15  A    between atoms: C_15  and  C_16 
REMARK   16  A    between atoms: C_15  and  O_19 
REMARK   17  A    between atoms: C_16  and  O_18 
ROOT
HETATM    1  C   UNL     1      -1.407   4.356   0.053  1.00  0.00     0.187 C 
ENDROOT
BRANCH   1   2
HETATM    2  O   UNL     1      -0.703   3.614   1.082  1.00  0.00    -0.348 OA
BRANCH   2   3
HETATM    3  C   UNL     1      -0.428   2.215   0.855  1.00  0.00     0.292 C 
HETATM    4  C   UNL     1       0.294   1.725   2.134  1.00  0.00     0.204 C 
HETATM    5  C   UNL     1       0.734   0.269   1.977  1.00  0.00     0.183 C 
HETATM    6  C   UNL     1       1.631   0.116   0.739  1.00  0.00     0.180 C 
HETATM    7  C   UNL     1       0.917   0.688  -0.499  1.00  0.00     0.179 C 
HETATM    8  O   UNL     1       0.404   2.033  -0.292  1.00  0.00    -0.348 OA
BRANCH   4   9
HETATM    9  O   UNL     1       1.474   2.530   2.376  1.00  0.00    -0.388 OA
HETATM   10  H   UNL     1       1.221   3.435   2.105  1.00  0.00     0.210 HD
ENDBRANCH   4   9
BRANCH   5  11
HETATM   11  O   UNL     1       1.420  -0.155   3.158  1.00  0.00    -0.390 OA
HETATM   12  H   UNL     1       2.095   0.530   3.335  1.00  0.00     0.210 HD
ENDBRANCH   5  11
BRANCH   6  13
HETATM   13  O   UNL     1       2.886   0.791   0.925  1.00  0.00    -0.390 OA
HETATM   14  H   UNL     1       2.692   1.662   1.332  1.00  0.00     0.210 HD
ENDBRANCH   6  13
BRANCH   7  15
HETATM   15  C   UNL     1      -0.189  -0.262  -0.992  1.00  0.00     0.198 C 
BRANCH  15  16
HETATM   16  O   UNL     1      -0.788   0.258  -2.175  1.00  0.00    -0.398 OA
HETATM   17  H   UNL     1      -0.855   1.218  -2.030  1.00  0.00     0.209 HD
ENDBRANCH  15  16
ENDBRANCH   7  15
ENDBRANCH   2   3
ENDBRANCH   1   2
BRANCH   1  18
HETATM   18  C   UNL     1      -2.815   3.758  -0.267  1.00  0.00     0.173 C 
BRANCH  18  19
HETATM   19  C   UNL     1      -3.703   4.562  -1.232  1.00  0.00     0.198 C 
BRANCH  19  20
HETATM   20  O   UNL     1      -4.895   3.827  -1.524  1.00  0.00    -0.398 OA
HETATM   21  H   UNL     1      -4.650   2.881  -1.540  1.00  0.00     0.209 HD
ENDBRANCH  19  20
ENDBRANCH  18  19
BRANCH  18  22
HETATM   22  O   UNL     1      -2.656   2.465  -0.901  1.00  0.00    -0.391 OA
HETATM   23  H   UNL     1      -2.340   2.628  -1.809  1.00  0.00     0.210 HD
ENDBRANCH  18  22
ENDBRANCH   1  18
BRANCH   1  24
HETATM   24  C   UNL     1      -1.489   5.828   0.577  1.00  0.00     0.189 C 
BRANCH  24  25
HETATM   25  C   UNL     1      -0.147   6.485   0.959  1.00  0.00     0.246 C 
BRANCH  25  26
HETATM   26  C   UNL     1       0.752   6.737  -0.253  1.00  0.00     0.172 C 
HETATM   27  O   UNL     1       0.794   6.040  -1.250  1.00  0.00    -0.648 OA
BRANCH  26  28
HETATM   28  O   UNL     1       1.471   7.876  -0.117  1.00  0.00    -0.774 OA
HETATM   29  H   UNL     1       1.212   8.305   0.736  1.00  0.00     0.167 HD
ENDBRANCH  26  28
ENDBRANCH  25  26
BRANCH  25  30
HETATM   30  O   UNL     1      -0.398   7.800   1.521  1.00  0.00    -0.382 OA
HETATM   31  H   UNL     1      -1.146   8.169   1.002  1.00  0.00     0.210 HD
ENDBRANCH  25  30
ENDBRANCH  24  25
BRANCH  24  32
HETATM   32  O   UNL     1      -2.162   6.732  -0.310  1.00  0.00    -0.390 OA
HETATM   33  H   UNL     1      -1.750   6.658  -1.197  1.00  0.00     0.210 HD
ENDBRANCH  24  32
ENDBRANCH   1  24
TORSDOF 17
