REMARK  11 active torsions:
REMARK  status: ('A' for Active; 'I' for Inactive)
REMARK    1  A    between atoms: C_2  and  C_3 
REMARK    2  A    between atoms: C_3  and  C_4 
REMARK    3  A    between atoms: C_4  and  C_5 
REMARK    4  A    between atoms: C_5  and  C_6 
REMARK    5  A    between atoms: C_6  and  C_7 
REMARK    6  A    between atoms: C_7  and  C_8 
REMARK    7  A    between atoms: C_8  and  C_9 
REMARK    8  A    between atoms: C_9  and  C_10 
REMARK    9  A    between atoms: C_10  and  C_11 
REMARK   10  A    between atoms: C_11  and  C_12 
REMARK   11  A    between atoms: C_12  and  N_13 
ROOT
HETATM    1  C   UNL     1      10.575  -4.369   3.693  1.00  0.00     0.002 C 
ENDROOT
BRANCH   1   2
HETATM    2  C   UNL     1       9.053  -4.359   3.645  1.00  0.00     0.000 C 
BRANCH   2   3
HETATM    3  C   UNL     1       8.521  -3.272   2.721  1.00  0.00     0.000 C 
BRANCH   3   4
HETATM    4  C   UNL     1       6.996  -3.304   2.700  1.00  0.00     0.000 C 
BRANCH   4   5
HETATM    5  C   UNL     1       6.453  -2.225   1.779  1.00  0.00     0.000 C 
BRANCH   5   6
HETATM    6  C   UNL     1       4.925  -2.253   1.755  1.00  0.00     0.000 C 
BRANCH   6   7
HETATM    7  C   UNL     1       4.391  -1.171   0.827  1.00  0.00     0.000 C 
BRANCH   7   8
HETATM    8  C   UNL     1       2.867  -1.186   0.795  1.00  0.00    -0.000 C 
BRANCH   8   9
HETATM    9  C   UNL     1       2.330  -0.101  -0.133  1.00  0.00    -0.005 C 
HETATM   10  C   UNL     1       0.810  -0.115  -0.166  1.00  0.00     0.005 C 
ENDBRANCH   8   9
ENDBRANCH   7   8
ENDBRANCH   6   7
ENDBRANCH   5   6
ENDBRANCH   4   5
ENDBRANCH   3   4
ENDBRANCH   2   3
ENDBRANCH   1   2
BRANCH   1  11
HETATM   11  C   UNL     1      11.035  -5.485   4.625  1.00  0.00     0.020 C 
BRANCH  11  12
HETATM   12  C   UNL     1      12.550  -5.535   4.756  1.00  0.00     0.125 C 
BRANCH  12  13
HETATM   13  N   UNL     1      12.969  -6.606   5.658  1.00  0.00    -0.352 N 
HETATM   14  C   UNL     1      13.196  -7.934   5.092  1.00  0.00     0.125 C 
HETATM   15  C   UNL     1      12.145  -8.961   5.510  1.00  0.00     0.020 C 
HETATM   16  C   UNL     1      12.390  -9.564   6.894  1.00  0.00     0.002 C 
HETATM   17  C   UNL     1      12.331  -8.561   8.041  1.00  0.00     0.009 C 
HETATM   18  C   UNL     1      13.384  -7.467   7.938  1.00  0.00     0.103 C 
HETATM   19  C   UNL     1      12.937  -6.350   7.022  1.00  0.00     0.219 C 
HETATM   20  O   UNL     1      12.557  -5.278   7.493  1.00  0.00    -0.273 OA
ENDBRANCH  12  13
ENDBRANCH  11  12
ENDBRANCH   1  11
TORSDOF 11
