REMARK  12 active torsions:
REMARK  status: ('A' for Active; 'I' for Inactive)
REMARK    1  A    between atoms: C_2  and  C_3 
REMARK    2  A    between atoms: C_3  and  C_4 
REMARK    3  A    between atoms: C_4  and  C_5 
REMARK    4  A    between atoms: C_5  and  C_6 
REMARK    5  A    between atoms: C_6  and  C_7 
REMARK    6  A    between atoms: C_7  and  C_8 
REMARK    7  A    between atoms: C_8  and  C_9 
REMARK    8  A    between atoms: C_9  and  C_10 
REMARK    9  A    between atoms: C_10  and  C_11 
REMARK   10  A    between atoms: C_11  and  C_12 
REMARK       I    between atoms: C_12  and  N_14 
REMARK   11  A    between atoms: C_18  and  C_19 
REMARK   12  A    between atoms: C_19  and  O_21 
ROOT
HETATM    1  C   UNL     1      11.228   6.358   3.421  1.00  0.00     0.103 C 
ENDROOT
BRANCH   1   2
HETATM    2  C   UNL     1      10.674   5.135   2.697  1.00  0.00     0.009 C 
BRANCH   2   3
HETATM    3  C   UNL     1       9.145   5.133   2.695  1.00  0.00     0.000 C 
BRANCH   3   4
HETATM    4  C   UNL     1       8.602   3.881   2.007  1.00  0.00     0.000 C 
BRANCH   4   5
HETATM    5  C   UNL     1       7.074   3.865   1.993  1.00  0.00     0.000 C 
BRANCH   5   6
HETATM    6  C   UNL     1       6.546   2.608   1.301  1.00  0.00     0.000 C 
BRANCH   6   7
HETATM    7  C   UNL     1       5.019   2.587   1.283  1.00  0.00     0.000 C 
BRANCH   7   8
HETATM    8  C   UNL     1       4.489   1.332   0.589  1.00  0.00     0.000 C 
BRANCH   8   9
HETATM    9  C   UNL     1       2.961   1.319   0.572  1.00  0.00    -0.000 C 
BRANCH   9  10
HETATM   10  C   UNL     1       2.421   0.068  -0.119  1.00  0.00    -0.005 C 
HETATM   11  C   UNL     1       0.901   0.061  -0.133  1.00  0.00     0.005 C 
ENDBRANCH   9  10
ENDBRANCH   8   9
ENDBRANCH   7   8
ENDBRANCH   6   7
ENDBRANCH   5   6
ENDBRANCH   4   5
ENDBRANCH   3   4
ENDBRANCH   2   3
ENDBRANCH   1   2
BRANCH   1  12
HETATM   12  C   UNL     1      12.747   6.382   3.431  1.00  0.00     0.220 C 
HETATM   13  O   UNL     1      13.429   5.759   2.608  1.00  0.00    -0.273 OA
HETATM   14  N   UNL     1      13.369   7.163   4.371  1.00  0.00    -0.338 N 
HETATM   15  C   UNL     1      12.751   7.916   5.446  1.00  0.00     0.127 C 
HETATM   16  C   UNL     1      14.814   7.430   4.324  1.00  0.00     0.185 C 
HETATM   17  C   UNL     1      13.601   9.166   5.524  1.00  0.00     0.022 C 
HETATM   18  C   UNL     1      15.009   8.672   5.207  1.00  0.00     0.038 C 
BRANCH  16  19
HETATM   19  C   UNL     1      15.653   6.229   4.804  1.00  0.00     0.163 C 
HETATM   20  O   UNL     1      16.441   6.255   5.742  1.00  0.00    -0.648 OA
BRANCH  19  21
HETATM   21  O   UNL     1      15.490   5.116   4.050  1.00  0.00    -0.775 OA
HETATM   22  H   UNL     1      14.829   5.242   3.322  1.00  0.00     0.167 HD
ENDBRANCH  19  21
ENDBRANCH  16  19
ENDBRANCH   1  12
TORSDOF 12
