REMARK  14 active torsions:
REMARK  status: ('A' for Active; 'I' for Inactive)
REMARK    1  A    between atoms: C_2  and  C_3 
REMARK    2  A    between atoms: C_3  and  C_4 
REMARK    3  A    between atoms: C_4  and  C_5 
REMARK    4  A    between atoms: C_5  and  C_6 
REMARK    5  A    between atoms: C_6  and  C_7 
REMARK    6  A    between atoms: C_7  and  C_8 
REMARK    7  A    between atoms: C_8  and  C_9 
REMARK    8  A    between atoms: C_9  and  C_10 
REMARK    9  A    between atoms: C_10  and  C_11 
REMARK   10  A    between atoms: C_11  and  C_12 
REMARK   11  A    between atoms: C_12  and  O_13 
REMARK   12  A    between atoms: O_13  and  C_14 
REMARK   13  A    between atoms: C_14  and  C_16 
REMARK   14  A    between atoms: C_16  and  O_18 
ROOT
HETATM    1  C   UNL     1      10.670  -5.198   2.711  1.00  0.00     0.002 C 
ENDROOT
BRANCH   1   2
HETATM    2  C   UNL     1       9.141  -5.178   2.701  1.00  0.00     0.000 C 
BRANCH   2   3
HETATM    3  C   UNL     1       8.587  -3.918   2.039  1.00  0.00     0.000 C 
BRANCH   3   4
HETATM    4  C   UNL     1       7.066  -3.911   2.030  1.00  0.00     0.000 C 
BRANCH   4   5
HETATM    5  C   UNL     1       6.553  -2.630   1.379  1.00  0.00     0.000 C 
BRANCH   5   6
HETATM    6  C   UNL     1       5.031  -2.600   1.375  1.00  0.00     0.000 C 
BRANCH   6   7
HETATM    7  C   UNL     1       4.513  -1.325   0.719  1.00  0.00     0.000 C 
BRANCH   7   8
HETATM    8  C   UNL     1       2.988  -1.307   0.711  1.00  0.00    -0.000 C 
BRANCH   8   9
HETATM    9  C   UNL     1       2.454  -0.039   0.053  1.00  0.00    -0.005 C 
HETATM   10  C   UNL     1       0.935  -0.028   0.045  1.00  0.00     0.005 C 
ENDBRANCH   8   9
ENDBRANCH   7   8
ENDBRANCH   6   7
ENDBRANCH   5   6
ENDBRANCH   4   5
ENDBRANCH   3   4
ENDBRANCH   2   3
ENDBRANCH   1   2
BRANCH   1  11
HETATM   11  C   UNL     1      11.261  -4.025   3.491  1.00  0.00     0.027 C 
BRANCH  11  12
HETATM   12  C   UNL     1      12.782  -4.071   3.520  1.00  0.00     0.178 C 
BRANCH  12  13
HETATM   13  O   UNL     1      13.292  -2.958   4.269  1.00  0.00    -0.319 OA
BRANCH  13  14
HETATM   14  C   UNL     1      13.220  -3.088   5.623  1.00  0.00     0.287 C 
HETATM   15  O   UNL     1      12.787  -4.073   6.219  1.00  0.00    -0.262 OA
BRANCH  14  16
HETATM   16  C   UNL     1      13.725  -1.834   6.331  1.00  0.00     0.213 C 
HETATM   17  C   UNL     1      12.873  -0.623   5.988  1.00  0.00     0.050 C 
BRANCH  16  18
HETATM   18  O   UNL     1      13.703  -1.995   7.750  1.00  0.00    -0.386 OA
HETATM   19  H   UNL     1      12.898  -2.509   7.959  1.00  0.00     0.210 HD
ENDBRANCH  16  18
ENDBRANCH  14  16
ENDBRANCH  13  14
ENDBRANCH  12  13
ENDBRANCH  11  12
ENDBRANCH   1  11
TORSDOF 14
