REMARK  11 active torsions:
REMARK  status: ('A' for Active; 'I' for Inactive)
REMARK    1  A    between atoms: C_2  and  C_3 
REMARK    2  A    between atoms: C_3  and  C_4 
REMARK    3  A    between atoms: C_4  and  C_5 
REMARK    4  A    between atoms: C_5  and  C_6 
REMARK    5  A    between atoms: C_6  and  C_7 
REMARK    6  A    between atoms: C_7  and  C_8 
REMARK    7  A    between atoms: C_8  and  C_9 
REMARK    8  A    between atoms: C_9  and  C_10 
REMARK    9  A    between atoms: C_10  and  C_11 
REMARK   10  A    between atoms: C_11  and  C_12 
REMARK   11  A    between atoms: C_12  and  O_13 
ROOT
HETATM    1  C   UNL     1       7.115  -3.276   2.897  1.00  0.00     0.000 C 
ENDROOT
BRANCH   1   2
HETATM    2  C   UNL     1       6.587  -2.216   1.931  1.00  0.00     0.000 C 
BRANCH   2   3
HETATM    3  C   UNL     1       5.061  -2.199   1.918  1.00  0.00     0.000 C 
BRANCH   3   4
HETATM    4  C   UNL     1       4.532  -1.142   0.951  1.00  0.00     0.000 C 
BRANCH   4   5
HETATM    5  C   UNL     1       3.005  -1.129   0.940  1.00  0.00    -0.000 C 
BRANCH   5   6
HETATM    6  C   UNL     1       2.467  -0.075  -0.024  1.00  0.00    -0.005 C 
HETATM    7  C   UNL     1       0.948  -0.064  -0.035  1.00  0.00     0.005 C 
ENDBRANCH   5   6
ENDBRANCH   4   5
ENDBRANCH   3   4
ENDBRANCH   2   3
ENDBRANCH   1   2
BRANCH   1   8
HETATM    8  C   UNL     1       8.641  -3.292   2.911  1.00  0.00     0.000 C 
BRANCH   8   9
HETATM    9  C   UNL     1       9.170  -4.352   3.875  1.00  0.00     0.000 C 
BRANCH   9  10
HETATM   10  C   UNL     1      10.697  -4.365   3.888  1.00  0.00     0.002 C 
BRANCH  10  11
HETATM   11  C   UNL     1      11.232  -5.420   4.850  1.00  0.00     0.026 C 
BRANCH  11  12
HETATM   12  C   UNL     1      12.754  -5.436   4.866  1.00  0.00     0.164 C 
BRANCH  12  13
HETATM   13  O   UNL     1      13.216  -6.431   5.769  1.00  0.00    -0.401 OA
HETATM   14  H   UNL     1      12.864  -6.212   6.649  1.00  0.00     0.209 HD
ENDBRANCH  12  13
ENDBRANCH  11  12
ENDBRANCH  10  11
ENDBRANCH   9  10
ENDBRANCH   8   9
ENDBRANCH   1   8
TORSDOF 11
