REMARK WARNING: 32 MAX_TORS EXCEEDED!!!
REMARK  38 active torsions:
REMARK  status: ('A' for Active; 'I' for Inactive)
REMARK    1  A    between atoms: C_2  and  C_3 
REMARK    2  A    between atoms: C_3  and  C_4 
REMARK    3  A    between atoms: C_4  and  C_5 
REMARK    4  A    between atoms: C_5  and  C_6 
REMARK    5  A    between atoms: C_6  and  C_7 
REMARK    6  A    between atoms: C_7  and  C_8 
REMARK    7  A    between atoms: C_8  and  C_9 
REMARK    8  A    between atoms: C_9  and  C_10 
REMARK    9  A    between atoms: C_10  and  C_11 
REMARK   10  A    between atoms: C_11  and  C_12 
REMARK   11  A    between atoms: C_12  and  O_13 
REMARK   12  A    between atoms: O_13  and  C_14 
REMARK   13  A    between atoms: C_14  and  C_15 
REMARK   14  A    between atoms: C_15  and  O_16 
REMARK   15  A    between atoms: O_16  and  C_17 
REMARK   16  A    between atoms: C_17  and  C_18 
REMARK   17  A    between atoms: C_18  and  O_19 
REMARK   18  A    between atoms: O_19  and  C_20 
REMARK   19  A    between atoms: C_20  and  C_21 
REMARK   20  A    between atoms: C_21  and  O_22 
REMARK   21  A    between atoms: O_22  and  C_23 
REMARK   22  A    between atoms: C_23  and  C_24 
REMARK   23  A    between atoms: C_24  and  O_25 
REMARK   24  A    between atoms: O_25  and  C_26 
REMARK   25  A    between atoms: C_26  and  C_27 
REMARK   26  A    between atoms: C_27  and  O_28 
REMARK   27  A    between atoms: O_28  and  C_29 
REMARK   28  A    between atoms: C_29  and  C_30 
REMARK   29  A    between atoms: C_30  and  O_31 
REMARK   30  A    between atoms: O_31  and  C_32 
REMARK   31  A    between atoms: C_32  and  C_33 
REMARK   32  A    between atoms: C_33  and  O_34 
REMARK   33  A    between atoms: O_34  and  C_35 
REMARK   34  A    between atoms: C_35  and  C_36 
REMARK   35  A    between atoms: C_36  and  O_37 
REMARK   36  A    between atoms: O_37  and  C_38 
REMARK   37  A    between atoms: C_38  and  C_39 
REMARK   38  A    between atoms: C_39  and  O_40 
ROOT
HETATM    1  C   UNL     1      20.893  12.061  -7.020  1.00  0.00     0.193 C 
ENDROOT
BRANCH   1   2
HETATM    2  C   UNL     1      20.434  10.814  -6.285  1.00  0.00     0.193 C 
BRANCH   2   3
HETATM    3  O   UNL     1      19.010  10.796  -6.294  1.00  0.00    -0.387 OA
BRANCH   3   4
HETATM    4  C   UNL     1      18.508   9.658  -5.605  1.00  0.00     0.193 C 
BRANCH   4   5
HETATM    5  C   UNL     1      16.992   9.704  -5.629  1.00  0.00     0.193 C 
BRANCH   5   6
HETATM    6  O   UNL     1      16.486   8.551  -4.956  1.00  0.00    -0.387 OA
BRANCH   6   7
HETATM    7  C   UNL     1      15.066   8.539  -4.949  1.00  0.00     0.193 C 
BRANCH   7   8
HETATM    8  C   UNL     1      14.613   7.291  -4.223  1.00  0.00     0.193 C 
BRANCH   8   9
HETATM    9  O   UNL     1      13.193   7.269  -4.207  1.00  0.00    -0.389 OA
BRANCH   9  10
HETATM   10  C   UNL     1      12.722   6.110  -3.535  1.00  0.00     0.167 C 
BRANCH  10  11
HETATM   11  C   UNL     1      11.203   6.130  -3.549  1.00  0.00     0.026 C 
BRANCH  11  12
HETATM   12  C   UNL     1      10.668   4.900  -2.836  1.00  0.00     0.002 C 
BRANCH  12  13
HETATM   13  C   UNL     1       9.149   4.893  -2.831  1.00  0.00     0.000 C 
BRANCH  13  14
HETATM   14  C   UNL     1       8.637   3.655  -2.111  1.00  0.00     0.000 C 
BRANCH  14  15
HETATM   15  C   UNL     1       7.117   3.643  -2.101  1.00  0.00     0.000 C 
BRANCH  15  16
HETATM   16  C   UNL     1       6.605   2.406  -1.380  1.00  0.00     0.000 C 
BRANCH  16  17
HETATM   17  C   UNL     1       5.083   2.393  -1.373  1.00  0.00     0.000 C 
BRANCH  17  18
HETATM   18  C   UNL     1       4.563   1.158  -0.650  1.00  0.00     0.000 C 
BRANCH  18  19
HETATM   19  C   UNL     1       3.041   1.148  -0.647  1.00  0.00    -0.000 C 
BRANCH  19  20
HETATM   20  C   UNL     1       2.506  -0.089   0.074  1.00  0.00    -0.005 C 
HETATM   21  C   UNL     1       0.987  -0.096   0.076  1.00  0.00     0.005 C 
ENDBRANCH  19  20
ENDBRANCH  18  19
ENDBRANCH  17  18
ENDBRANCH  16  17
ENDBRANCH  15  16
ENDBRANCH  14  15
ENDBRANCH  13  14
ENDBRANCH  12  13
ENDBRANCH  11  12
ENDBRANCH  10  11
ENDBRANCH   9  10
ENDBRANCH   8   9
ENDBRANCH   7   8
ENDBRANCH   6   7
ENDBRANCH   5   6
ENDBRANCH   4   5
ENDBRANCH   3   4
ENDBRANCH   2   3
ENDBRANCH   1   2
BRANCH   1  22
HETATM   22  O   UNL     1      20.398  13.200  -6.318  1.00  0.00    -0.387 OA
BRANCH  22  23
HETATM   23  C   UNL     1      20.787  14.413  -6.960  1.00  0.00     0.193 C 
BRANCH  23  24
HETATM   24  C   UNL     1      20.220  15.591  -6.185  1.00  0.00     0.193 C 
BRANCH  24  25
HETATM   25  O   UNL     1      20.618  16.798  -6.827  1.00  0.00    -0.387 OA
BRANCH  25  26
HETATM   26  C   UNL     1      20.125  17.941  -6.140  1.00  0.00     0.193 C 
BRANCH  26  27
HETATM   27  C   UNL     1      20.597  19.186  -6.870  1.00  0.00     0.193 C 
BRANCH  27  28
HETATM   28  O   UNL     1      20.098  20.328  -6.185  1.00  0.00    -0.387 OA
BRANCH  28  29
HETATM   29  C   UNL     1      20.506  21.538  -6.819  1.00  0.00     0.193 C 
BRANCH  29  30
HETATM   30  C   UNL     1      19.947  22.720  -6.045  1.00  0.00     0.193 C 
BRANCH  30  31
HETATM   31  O   UNL     1      20.354  23.932  -6.677  1.00  0.00    -0.387 OA
BRANCH  31  32
HETATM   32  C   UNL     1      19.852  25.066  -5.987  1.00  0.00     0.193 C 
BRANCH  32  33
HETATM   33  C   UNL     1      20.326  26.306  -6.717  1.00  0.00     0.193 C 
BRANCH  33  34
HETATM   34  O   UNL     1      19.831  27.451  -6.036  1.00  0.00    -0.387 OA
BRANCH  34  35
HETATM   35  C   UNL     1      20.239  28.652  -6.676  1.00  0.00     0.193 C 
BRANCH  35  36
HETATM   36  C   UNL     1      19.679  29.835  -5.903  1.00  0.00     0.193 C 
BRANCH  36  37
HETATM   37  O   UNL     1      20.091  31.053  -6.535  1.00  0.00    -0.387 OA
BRANCH  37  38
HETATM   38  C   UNL     1      19.574  32.193  -5.843  1.00  0.00     0.193 C 
BRANCH  38  39
HETATM   39  C   UNL     1      20.048  33.463  -6.548  1.00  0.00     0.190 C 
BRANCH  39  40
HETATM   40  O   UNL     1      19.584  33.494  -7.896  1.00  0.00    -0.399 OA
HETATM   41  H   UNL     1      19.886  32.653  -8.290  1.00  0.00     0.209 HD
ENDBRANCH  39  40
ENDBRANCH  38  39
ENDBRANCH  37  38
ENDBRANCH  36  37
ENDBRANCH  35  36
ENDBRANCH  34  35
ENDBRANCH  33  34
ENDBRANCH  32  33
ENDBRANCH  31  32
ENDBRANCH  30  31
ENDBRANCH  29  30
ENDBRANCH  28  29
ENDBRANCH  27  28
ENDBRANCH  26  27
ENDBRANCH  25  26
ENDBRANCH  24  25
ENDBRANCH  23  24
ENDBRANCH  22  23
ENDBRANCH   1  22
TORSDOF 38
