REMARK  13 active torsions:
REMARK  status: ('A' for Active; 'I' for Inactive)
REMARK    1  A    between atoms: C_2  and  C_3 
REMARK    2  A    between atoms: C_3  and  C_4 
REMARK    3  A    between atoms: C_4  and  C_5 
REMARK    4  A    between atoms: C_5  and  C_6 
REMARK    5  A    between atoms: C_6  and  C_7 
REMARK    6  A    between atoms: C_7  and  C_8 
REMARK    7  A    between atoms: C_8  and  C_9 
REMARK    8  A    between atoms: C_9  and  C_10 
REMARK    9  A    between atoms: C_10  and  C_11 
REMARK   10  A    between atoms: C_11  and  C_12 
REMARK       I    between atoms: C_12  and  N_14 
REMARK   11  A    between atoms: N_14  and  C_15 
REMARK   12  A    between atoms: C_15  and  C_16 
REMARK   13  A    between atoms: C_16  and  O_18 
ROOT
HETATM    1  C   UNL     1      10.721   3.506  -4.598  1.00  0.00     0.009 C 
ENDROOT
BRANCH   1   2
HETATM    2  C   UNL     1       9.199   3.502  -4.598  1.00  0.00     0.000 C 
BRANCH   2   3
HETATM    3  C   UNL     1       8.679   2.647  -3.445  1.00  0.00     0.000 C 
BRANCH   3   4
HETATM    4  C   UNL     1       7.157   2.631  -3.425  1.00  0.00     0.000 C 
BRANCH   4   5
HETATM    5  C   UNL     1       6.643   1.778  -2.271  1.00  0.00     0.000 C 
BRANCH   5   6
HETATM    6  C   UNL     1       5.120   1.764  -2.255  1.00  0.00     0.000 C 
BRANCH   6   7
HETATM    7  C   UNL     1       4.599   0.911  -1.105  1.00  0.00     0.000 C 
BRANCH   7   8
HETATM    8  C   UNL     1       3.075   0.899  -1.095  1.00  0.00    -0.000 C 
BRANCH   8   9
HETATM    9  C   UNL     1       2.542   0.048   0.053  1.00  0.00    -0.005 C 
HETATM   10  C   UNL     1       1.024   0.037   0.059  1.00  0.00     0.005 C 
ENDBRANCH   8   9
ENDBRANCH   7   8
ENDBRANCH   6   7
ENDBRANCH   5   6
ENDBRANCH   4   5
ENDBRANCH   3   4
ENDBRANCH   2   3
ENDBRANCH   1   2
BRANCH   1  11
HETATM   11  C   UNL     1      11.305   4.350  -5.725  1.00  0.00     0.103 C 
BRANCH  11  12
HETATM   12  C   UNL     1      12.821   4.308  -5.668  1.00  0.00     0.217 C 
HETATM   13  O   UNL     1      13.438   3.667  -4.826  1.00  0.00    -0.274 OA
HETATM   14  N   UNL     1      13.442   5.039  -6.650  1.00  0.00    -0.359 N 
HETATM   15  H   UNL     1      12.902   5.615  -7.282  1.00  0.00     0.162 HD
BRANCH  14  16
HETATM   16  C   UNL     1      14.890   5.086  -6.746  1.00  0.00     0.153 C 
BRANCH  16  17
HETATM   17  C   UNL     1      15.430   6.512  -6.586  1.00  0.00     0.132 C 
HETATM   18  C   UNL     1      16.952   6.520  -6.638  1.00  0.00     0.041 C 
BRANCH  17  19
HETATM   19  O   UNL     1      14.917   7.343  -7.633  1.00  0.00    -0.394 OA
HETATM   20  H   UNL     1      15.275   7.016  -8.476  1.00  0.00     0.210 HD
ENDBRANCH  17  19
ENDBRANCH  16  17
ENDBRANCH  14  16
ENDBRANCH  11  12
ENDBRANCH   1  11
TORSDOF 13
