REMARK  13 active torsions:
REMARK  status: ('A' for Active; 'I' for Inactive)
REMARK    1  A    between atoms: C_2  and  C_3 
REMARK    2  A    between atoms: C_3  and  C_4 
REMARK    3  A    between atoms: C_4  and  C_5 
REMARK    4  A    between atoms: C_5  and  C_6 
REMARK    5  A    between atoms: C_6  and  C_7 
REMARK    6  A    between atoms: C_7  and  C_8 
REMARK    7  A    between atoms: C_8  and  C_9 
REMARK    8  A    between atoms: C_9  and  C_10 
REMARK    9  A    between atoms: C_10  and  C_11 
REMARK   10  A    between atoms: C_11  and  C_12 
REMARK   11  A    between atoms: C_12  and  N_13 
REMARK   12  A    between atoms: N_13  and  C_16 
REMARK   13  A    between atoms: C_16  and  C_17 
ROOT
HETATM    1  C   UNL     1      10.702  -2.056  -5.311  1.00  0.00     0.002 C 
ENDROOT
BRANCH   1   2
HETATM    2  C   UNL     1       9.178  -1.969  -5.344  1.00  0.00     0.000 C 
BRANCH   2   3
HETATM    3  C   UNL     1       8.609  -1.500  -4.008  1.00  0.00     0.000 C 
BRANCH   3   4
HETATM    4  C   UNL     1       7.091  -1.502  -4.014  1.00  0.00     0.000 C 
BRANCH   4   5
HETATM    5  C   UNL     1       6.575  -1.026  -2.662  1.00  0.00     0.000 C 
BRANCH   5   6
HETATM    6  C   UNL     1       5.056  -1.031  -2.637  1.00  0.00     0.000 C 
BRANCH   6   7
HETATM    7  C   UNL     1       4.543  -0.533  -1.292  1.00  0.00     0.000 C 
BRANCH   7   8
HETATM    8  C   UNL     1       3.020  -0.532  -1.276  1.00  0.00    -0.000 C 
BRANCH   8   9
HETATM    9  C   UNL     1       2.491  -0.035   0.062  1.00  0.00    -0.005 C 
HETATM   10  C   UNL     1       0.974  -0.035   0.080  1.00  0.00     0.005 C 
ENDBRANCH   8   9
ENDBRANCH   7   8
ENDBRANCH   6   7
ENDBRANCH   5   6
ENDBRANCH   4   5
ENDBRANCH   3   4
ENDBRANCH   2   3
ENDBRANCH   1   2
BRANCH   1  11
HETATM   11  C   UNL     1      11.262  -2.976  -4.216  1.00  0.00     0.028 C 
BRANCH  11  12
HETATM   12  C   UNL     1      10.731  -4.411  -4.323  1.00  0.00     0.237 C 
BRANCH  12  13
HETATM   13  N   UNL     1      11.225  -5.301  -3.175  1.00  0.00    -0.065 N 
HETATM   14  C   UNL     1      12.724  -5.330  -3.065  1.00  0.00     0.272 C 
HETATM   15  C   UNL     1      10.568  -4.899  -1.858  1.00  0.00     0.272 C 
BRANCH  13  16
HETATM   16  C   UNL     1      10.729  -6.787  -3.494  1.00  0.00     0.349 C 
BRANCH  16  17
HETATM   17  C   UNL     1       9.197  -7.012  -3.613  1.00  0.00     0.199 C 
HETATM   18  O   UNL     1       8.735  -6.826  -4.770  1.00  0.00    -0.647 OA
HETATM   19  O   UNL     1       8.621  -7.226  -2.510  1.00  0.00    -0.647 OA
ENDBRANCH  16  17
ENDBRANCH  13  16
ENDBRANCH  12  13
ENDBRANCH  11  12
ENDBRANCH   1  11
TORSDOF 13
