REMARK  16 active torsions:
REMARK  status: ('A' for Active; 'I' for Inactive)
REMARK    1  A    between atoms: C_2  and  C_3 
REMARK    2  A    between atoms: C_3  and  C_4 
REMARK    3  A    between atoms: C_4  and  C_5 
REMARK    4  A    between atoms: C_5  and  C_6 
REMARK    5  A    between atoms: C_6  and  C_7 
REMARK    6  A    between atoms: C_7  and  C_8 
REMARK    7  A    between atoms: C_8  and  C_9 
REMARK    8  A    between atoms: C_9  and  C_10 
REMARK    9  A    between atoms: C_10  and  C_11 
REMARK   10  A    between atoms: C_11  and  C_12 
REMARK       I    between atoms: C_12  and  N_14 
REMARK   11  A    between atoms: N_14  and  C_15 
REMARK   12  A    between atoms: N_14  and  C_19 
REMARK   13  A    between atoms: C_15  and  C_16 
REMARK   14  A    between atoms: C_16  and  O_18 
REMARK   15  A    between atoms: C_19  and  C_20 
REMARK   16  A    between atoms: C_20  and  O_22 
ROOT
HETATM    1  C   UNL     1      12.745   4.796   5.117  1.00  0.00     0.219 C 
HETATM    2  O   UNL     1      13.418   4.145   5.917  1.00  0.00    -0.273 OA
HETATM    3  N   UNL     1      13.335   5.601   4.147  1.00  0.00    -0.347 N 
ENDROOT
BRANCH   1   4
HETATM    4  C   UNL     1      11.234   4.678   5.159  1.00  0.00     0.103 C 
BRANCH   4   5
HETATM    5  C   UNL     1      10.718   3.593   4.218  1.00  0.00     0.009 C 
BRANCH   5   6
HETATM    6  C   UNL     1       9.196   3.479   4.331  1.00  0.00     0.000 C 
BRANCH   6   7
HETATM    7  C   UNL     1       8.580   2.454   3.379  1.00  0.00     0.000 C 
BRANCH   7   8
HETATM    8  C   UNL     1       9.044   1.024   3.649  1.00  0.00     0.000 C 
BRANCH   8   9
HETATM    9  C   UNL     1       8.366   0.048   2.691  1.00  0.00     0.000 C 
BRANCH   9  10
HETATM   10  C   UNL     1       8.847  -1.381   2.929  1.00  0.00     0.000 C 
BRANCH  10  11
HETATM   11  C   UNL     1       8.175  -2.343   1.954  1.00  0.00     0.000 C 
BRANCH  11  12
HETATM   12  C   UNL     1       8.645  -3.777   2.181  1.00  0.00    -0.000 C 
BRANCH  12  13
HETATM   13  C   UNL     1       7.969  -4.735   1.203  1.00  0.00    -0.005 C 
HETATM   14  C   UNL     1       8.430  -6.164   1.429  1.00  0.00     0.005 C 
ENDBRANCH  12  13
ENDBRANCH  11  12
ENDBRANCH  10  11
ENDBRANCH   9  10
ENDBRANCH   8   9
ENDBRANCH   7   8
ENDBRANCH   6   7
ENDBRANCH   5   6
ENDBRANCH   4   5
ENDBRANCH   1   4
BRANCH   3  15
HETATM   15  C   UNL     1      12.617   6.435   3.172  1.00  0.00     0.157 C 
BRANCH  15  16
HETATM   16  C   UNL     1      12.120   7.806   3.683  1.00  0.00     0.132 C 
HETATM   17  C   UNL     1      13.217   8.774   4.106  1.00  0.00     0.041 C 
BRANCH  16  18
HETATM   18  O   UNL     1      11.350   8.430   2.647  1.00  0.00    -0.394 OA
HETATM   19  H   UNL     1      11.963   8.755   1.962  1.00  0.00     0.210 HD
ENDBRANCH  16  18
ENDBRANCH  15  16
ENDBRANCH   3  15
BRANCH   3  20
HETATM   20  C   UNL     1      14.800   5.592   4.081  1.00  0.00     0.157 C 
BRANCH  20  21
HETATM   21  C   UNL     1      15.410   4.271   3.556  1.00  0.00     0.132 C 
HETATM   22  C   UNL     1      14.897   3.871   2.177  1.00  0.00     0.041 C 
BRANCH  21  23
HETATM   23  O   UNL     1      16.834   4.403   3.487  1.00  0.00    -0.394 OA
HETATM   24  H   UNL     1      17.051   5.017   2.762  1.00  0.00     0.210 HD
ENDBRANCH  21  23
ENDBRANCH  20  21
ENDBRANCH   3  20
TORSDOF 16
