REMARK  18 active torsions:
REMARK  status: ('A' for Active; 'I' for Inactive)
REMARK    1  A    between atoms: C_2  and  C_3 
REMARK    2  A    between atoms: C_3  and  C_4 
REMARK    3  A    between atoms: C_4  and  C_5 
REMARK    4  A    between atoms: C_5  and  C_6 
REMARK    5  A    between atoms: C_6  and  C_7 
REMARK    6  A    between atoms: C_7  and  C_8 
REMARK    7  A    between atoms: C_8  and  C_9 
REMARK    8  A    between atoms: C_9  and  C_10 
REMARK    9  A    between atoms: C_10  and  C_11 
REMARK   10  A    between atoms: C_11  and  C_12 
REMARK       I    between atoms: C_12  and  N_14 
REMARK   11  A    between atoms: N_14  and  C_15 
REMARK   12  A    between atoms: C_15  and  C_16 
REMARK   13  A    between atoms: C_16  and  C_17 
REMARK   14  A    between atoms: C_17  and  C_18 
REMARK   15  A    between atoms: C_18  and  C_19 
REMARK   16  A    between atoms: C_19  and  C_20 
REMARK   17  A    between atoms: C_19  and  N_23 
REMARK   18  A    between atoms: C_20  and  O_22 
ROOT
HETATM    1  C   UNK     1      12.829   2.120   6.802  1.00  0.00     0.217 C 
HETATM    2  O   UNK     1      13.440   1.841   5.774  1.00  0.00    -0.274 OA
HETATM    3  N   UNK     1      13.439   2.442   7.995  1.00  0.00    -0.361 N 
HETATM    4  H   UNK     1      12.875   2.707   8.794  1.00  0.00     0.162 HD
ENDROOT
BRANCH   3   5
HETATM    5  C   UNK     1      14.882   2.461   8.117  1.00  0.00     0.122 C 
BRANCH   5   6
HETATM    6  C   UNK     1      15.467   3.808   7.702  1.00  0.00     0.020 C 
BRANCH   6   7
HETATM    7  C   UNK     1      16.988   3.744   7.762  1.00  0.00     0.004 C 
BRANCH   7   8
HETATM    8  C   UNK     1      17.637   5.082   7.406  1.00  0.00     0.046 C 
BRANCH   8   9
HETATM    9  C   UNK     1      19.161   4.997   7.515  1.00  0.00     0.314 C 
BRANCH   9  10
HETATM   10  C   UNK     1      19.824   6.322   7.208  1.00  0.00     0.173 C 
HETATM   11  O   UNK     1      20.505   6.884   8.057  1.00  0.00    -0.648 OA
BRANCH  10  12
HETATM   12  O   UNK     1      19.652   6.792   5.957  1.00  0.00    -0.775 OA
HETATM   13  H   UNK     1      19.110   6.221   5.379  1.00  0.00     0.167 HD
ENDBRANCH  10  12
ENDBRANCH   9  10
BRANCH   9  14
HETATM   14  N   UNK     1      19.532   4.718   8.911  1.00  0.00     0.093 N 
HETATM   15  H   UNK     1      19.297   5.574   9.420  1.00  0.00     0.314 HD
HETATM   16  H   UNK     1      20.553   4.704   8.978  1.00  0.00     0.314 HD
ENDBRANCH   9  14
ENDBRANCH   8   9
ENDBRANCH   7   8
ENDBRANCH   6   7
ENDBRANCH   5   6
ENDBRANCH   3   5
BRANCH   1  17
HETATM   17  C   UNK     1      11.312   2.128   6.871  1.00  0.00     0.103 C 
BRANCH  17  18
HETATM   18  C   UNK     1      10.734   1.699   5.525  1.00  0.00     0.009 C 
BRANCH  18  19
HETATM   19  C   UNK     1       9.213   1.693   5.519  1.00  0.00     0.000 C 
BRANCH  19  20
HETATM   20  C   UNK     1       8.699   1.258   4.150  1.00  0.00     0.000 C 
BRANCH  20  21
HETATM   21  C   UNK     1       7.178   1.254   4.129  1.00  0.00     0.000 C 
BRANCH  21  22
HETATM   22  C   UNK     1       6.666   0.820   2.764  1.00  0.00     0.000 C 
BRANCH  22  23
HETATM   23  C   UNK     1       5.145   0.820   2.750  1.00  0.00     0.000 C 
BRANCH  23  24
HETATM   24  C   UNK     1       4.628   0.385   1.387  1.00  0.00     0.000 C 
BRANCH  24  25
HETATM   25  C   UNK     1       3.106   0.387   1.374  1.00  0.00    -0.000 C 
BRANCH  25  26
HETATM   26  C   UNK     1       2.579  -0.049   0.013  1.00  0.00    -0.005 C 
HETATM   27  C   UNK     1       1.062  -0.048   0.004  1.00  0.00     0.005 C 
ENDBRANCH  25  26
ENDBRANCH  24  25
ENDBRANCH  23  24
ENDBRANCH  22  23
ENDBRANCH  21  22
ENDBRANCH  20  21
ENDBRANCH  19  20
ENDBRANCH  18  19
ENDBRANCH  17  18
ENDBRANCH   1  17
TORSDOF 18
