REMARK  5 active torsions:
REMARK  status: ('A' for Active; 'I' for Inactive)
REMARK    1  A    between atoms: CG_2  and  CB_4 
REMARK    2  A    between atoms: CB_4  and  CA_5 
REMARK    3  A    between atoms: CA_5  and  C_6 
REMARK    4  A    between atoms: CA_5  and  N_9 
REMARK    5  A    between atoms: C_6  and  OXT_8 
ROOT
ATOM      1  CA  LEU A   1       4.519  -0.837   1.087  1.00  0.00     0.314 C 
ENDROOT
BRANCH   1   2
ATOM      2  CB  LEU A   1       2.993  -0.650   1.148  1.00  0.00     0.050 C 
BRANCH   2   3
ATOM      3  CG  LEU A   1       2.381   0.105  -0.052  1.00  0.00    -0.020 C 
ATOM      4  CD1 LEU A   1       2.648  -0.589  -1.388  1.00  0.00     0.009 C 
ATOM      5  CD2 LEU A   1       0.869   0.264   0.142  1.00  0.00     0.009 C 
ENDBRANCH   2   3
ENDBRANCH   1   2
BRANCH   1   6
ATOM      6  C   LEU A   1       5.275   0.503   1.033  1.00  0.00     0.173 C 
ATOM      7  O   LEU A   1       4.905   1.544   1.559  1.00  0.00    -0.648 OA
BRANCH   6   8
ATOM      8  OXT LEU A   1       6.478   0.396   0.414  1.00  0.00    -0.775 OA
ATOM      9  HXT LEU A   1       6.661  -0.501   0.072  1.00  0.00     0.167 HD
ENDBRANCH   6   8
ENDBRANCH   1   6
BRANCH   1  10
ATOM     10  N   LEU A   1       4.980  -1.592   2.273  1.00  0.00     0.093 N 
ATOM     11  H1  LEU A   1       4.685  -1.084   3.111  1.00  0.00     0.314 HD
ATOM     12  H2  LEU A   1       5.999  -1.598   2.315  1.00  0.00     0.314 HD
ENDBRANCH   1  10
TORSDOF 5
