REMARK  4 active torsions:
REMARK  status: ('A' for Active; 'I' for Inactive)
REMARK    1  A    between atoms: C_2  and  C_4 
REMARK    2  A    between atoms: C_4  and  C_5 
REMARK    3  A    between atoms: C_5  and  C_6 
REMARK    4  A    between atoms: C_6  and  O_8 
ROOT
HETATM    1  C   UNL     1       4.830  -0.494  -0.901  1.00  0.00     0.117 C 
ENDROOT
BRANCH   1   2
HETATM    2  C   UNL     1       3.317  -0.574  -1.073  1.00  0.00     0.088 C 
BRANCH   2   3
HETATM    3  C   UNL     1       2.584  -0.019   0.129  1.00  0.00     0.123 C 
HETATM    4  C   UNL     1       1.079  -0.045   0.068  1.00  0.00     0.091 C 
HETATM    5  O   UNL     1       3.178   0.431   1.108  1.00  0.00    -0.298 OA
ENDBRANCH   2   3
ENDBRANCH   1   2
BRANCH   1   6
HETATM    6  C   UNL     1       5.540  -1.049  -2.108  1.00  0.00     0.139 C 
HETATM    7  O   UNL     1       4.988  -1.502  -3.098  1.00  0.00    -0.650 OA
BRANCH   6   8
HETATM    8  O   UNL     1       6.886  -0.996  -1.989  1.00  0.00    -0.776 OA
HETATM    9  H   UNL     1       7.194  -0.610  -1.147  1.00  0.00     0.167 HD
ENDBRANCH   6   8
ENDBRANCH   1   6
TORSDOF 4
