REMARK  1 active torsions:
REMARK  status: ('A' for Active; 'I' for Inactive)
REMARK    1  A    between atoms: C_5  and  C_8 
ROOT
HETATM    1  C   UNL     1       2.547   0.098   0.099  1.00  0.00     0.043 C 
HETATM    2  C   UNL     1       1.048   0.073   0.033  1.00  0.00    -0.087 C 
HETATM    3  C   UNL     1       0.319   1.189  -0.138  1.00  0.00    -0.024 C 
HETATM    4  C   UNL     1      -1.184   1.210  -0.188  1.00  0.00     0.036 C 
HETATM    5  C   UNL     1      -1.857  -0.107   0.267  1.00  0.00     0.017 C 
HETATM    6  C   UNL     1      -1.061  -1.307  -0.284  1.00  0.00     0.013 C 
HETATM    7  C   UNL     1       0.404  -1.282   0.161  1.00  0.00     0.034 C 
ENDROOT
BRANCH   5   8
HETATM    8  C   UNL     1      -3.348  -0.116  -0.079  1.00  0.00    -0.089 C 
HETATM    9  C   UNL     1      -3.945  -1.009  -0.888  1.00  0.00     0.014 C 
HETATM   10  C   UNL     1      -4.201   0.948   0.566  1.00  0.00     0.043 C 
ENDBRANCH   5   8
TORSDOF 1
