REMARK  14 active torsions:
REMARK  status: ('A' for Active; 'I' for Inactive)
REMARK    1  A    between atoms: C_2  and  C_3 
REMARK    2  A    between atoms: C_4  and  C_5 
REMARK    3  A    between atoms: C_5  and  C_6 
REMARK    4  A    between atoms: C_7  and  C_8 
REMARK    5  A    between atoms: C_8  and  C_9 
REMARK    6  A    between atoms: C_10  and  C_11 
REMARK    7  A    between atoms: C_11  and  C_12 
REMARK    8  A    between atoms: C_12  and  C_13 
REMARK    9  A    between atoms: C_13  and  C_14 
REMARK   10  A    between atoms: C_14  and  C_15 
REMARK   11  A    between atoms: C_15  and  C_16 
REMARK   12  A    between atoms: C_16  and  C_17 
REMARK   13  A    between atoms: C_17  and  C_18 
REMARK   14  A    between atoms: C_18  and  O_20 
ROOT
HETATM    1  C   UNL     1      10.970   0.263   7.369  1.00  0.00     0.027 C 
ENDROOT
BRANCH   1   2
HETATM    2  C   UNL     1      10.450   0.230   5.969  1.00  0.00    -0.030 C 
HETATM    3  C   UNL     1       9.134   0.229   5.692  1.00  0.00    -0.027 C 
BRANCH   3   4
HETATM    4  C   UNL     1       8.608   0.191   4.294  1.00  0.00     0.053 C 
BRANCH   4   5
HETATM    5  C   UNL     1       7.756   1.383   3.991  1.00  0.00    -0.027 C 
HETATM    6  C   UNL     1       6.470   1.278   3.631  1.00  0.00    -0.027 C 
BRANCH   6   7
HETATM    7  C   UNL     1       5.620   2.469   3.311  1.00  0.00     0.053 C 
BRANCH   7   8
HETATM    8  C   UNL     1       4.432   2.568   4.215  1.00  0.00    -0.027 C 
HETATM    9  C   UNL     1       3.165   2.559   3.759  1.00  0.00    -0.031 C 
BRANCH   9  10
HETATM   10  C   UNL     1       1.980   2.666   4.666  1.00  0.00     0.022 C 
HETATM   11  C   UNL     1       1.082   1.445   4.553  1.00  0.00     0.009 C 
ENDBRANCH   9  10
ENDBRANCH   7   8
ENDBRANCH   6   7
ENDBRANCH   4   5
ENDBRANCH   3   4
ENDBRANCH   1   2
BRANCH   1  12
HETATM   12  C   UNL     1      11.826   1.502   7.607  1.00  0.00     0.004 C 
BRANCH  12  13
HETATM   13  C   UNL     1      12.349   1.520   9.039  1.00  0.00     0.000 C 
BRANCH  13  14
HETATM   14  C   UNL     1      13.206   2.756   9.283  1.00  0.00     0.000 C 
BRANCH  14  15
HETATM   15  C   UNL     1      13.732   2.781  10.717  1.00  0.00     0.001 C 
BRANCH  15  16
HETATM   16  C   UNL     1      14.585   4.024  10.945  1.00  0.00     0.010 C 
BRANCH  16  17
HETATM   17  C   UNL     1      15.137   4.096  12.366  1.00  0.00     0.110 C 
BRANCH  17  18
HETATM   18  C   UNL     1      15.974   5.338  12.550  1.00  0.00     0.139 C 
HETATM   19  O   UNL     1      16.189   6.180  11.689  1.00  0.00    -0.650 OA
BRANCH  18  20
HETATM   20  O   UNL     1      16.487   5.440  13.800  1.00  0.00    -0.776 OA
HETATM   21  H   UNL     1      16.242   4.708  14.387  1.00  0.00     0.167 HD
ENDBRANCH  18  20
ENDBRANCH  17  18
ENDBRANCH  16  17
ENDBRANCH  15  16
ENDBRANCH  14  15
ENDBRANCH  13  14
ENDBRANCH  12  13
ENDBRANCH   1  12
TORSDOF 14
