REMARK  17 active torsions:
REMARK  status: ('A' for Active; 'I' for Inactive)
REMARK    1  A    between atoms: C_1  and  C_2 
REMARK    2  A    between atoms: C_1  and  O_24 
REMARK    3  A    between atoms: C_3  and  O_23 
REMARK    4  A    between atoms: C_4  and  O_22 
REMARK    5  A    between atoms: C_5  and  O_21 
REMARK    6  A    between atoms: C_6  and  O_8 
REMARK    7  A    between atoms: O_8  and  C_9 
REMARK    8  A    between atoms: C_9  and  C_10 
REMARK    9  A    between atoms: C_9  and  C_14 
REMARK   10  A    between atoms: C_10  and  C_11 
REMARK   11  A    between atoms: C_10  and  O_13 
REMARK   12  A    between atoms: C_11  and  O_12 
REMARK   13  A    between atoms: C_14  and  C_15 
REMARK   14  A    between atoms: C_14  and  O_20 
REMARK   15  A    between atoms: C_15  and  C_16 
REMARK   16  A    between atoms: C_15  and  O_19 
REMARK   17  A    between atoms: C_16  and  O_18 
ROOT
HETATM    1  C   UNL     1      -0.648   3.244   3.354  1.00  0.00     0.187 C 
ENDROOT
BRANCH   1   2
HETATM    2  O   UNL     1      -1.088   2.897   2.016  1.00  0.00    -0.348 OA
BRANCH   2   3
HETATM    3  C   UNL     1      -0.132   2.261   1.152  1.00  0.00     0.292 C 
HETATM    4  C   UNL     1      -0.831   2.054  -0.208  1.00  0.00     0.204 C 
HETATM    5  C   UNL     1       0.139   1.370  -1.172  1.00  0.00     0.183 C 
HETATM    6  C   UNL     1       0.627   0.035  -0.583  1.00  0.00     0.180 C 
HETATM    7  C   UNL     1       1.174   0.241   0.851  1.00  0.00     0.179 C 
HETATM    8  O   UNL     1       0.274   1.002   1.691  1.00  0.00    -0.348 OA
BRANCH   4   9
HETATM    9  O   UNL     1      -2.000   1.212  -0.049  1.00  0.00    -0.388 OA
HETATM   10  H   UNL     1      -2.388   1.476   0.808  1.00  0.00     0.210 HD
ENDBRANCH   4   9
BRANCH   5  11
HETATM   11  O   UNL     1      -0.507   1.172  -2.433  1.00  0.00    -0.390 OA
HETATM   12  H   UNL     1      -1.348   0.716  -2.235  1.00  0.00     0.210 HD
ENDBRANCH   5  11
BRANCH   6  13
HETATM   13  O   UNL     1      -0.454  -0.915  -0.538  1.00  0.00    -0.390 OA
HETATM   14  H   UNL     1      -1.245  -0.444  -0.209  1.00  0.00     0.210 HD
ENDBRANCH   6  13
BRANCH   7  15
HETATM   15  C   UNL     1       2.587   0.849   0.872  1.00  0.00     0.198 C 
BRANCH  15  16
HETATM   16  O   UNL     1       3.527   0.040   0.180  1.00  0.00    -0.398 OA
HETATM   17  H   UNL     1       3.716  -0.741   0.730  1.00  0.00     0.209 HD
ENDBRANCH  15  16
ENDBRANCH   7  15
ENDBRANCH   2   3
ENDBRANCH   1   2
BRANCH   1  18
HETATM   18  C   UNL     1       0.561   4.231   3.354  1.00  0.00     0.173 C 
BRANCH  18  19
HETATM   19  C   UNL     1       0.984   4.798   4.717  1.00  0.00     0.198 C 
BRANCH  19  20
HETATM   20  O   UNL     1       2.178   5.573   4.560  1.00  0.00    -0.398 OA
HETATM   21  H   UNL     1       2.696   5.142   3.855  1.00  0.00     0.209 HD
ENDBRANCH  19  20
ENDBRANCH  18  19
BRANCH  18  22
HETATM   22  O   UNL     1       1.746   3.561   2.850  1.00  0.00    -0.391 OA
HETATM   23  H   UNL     1       1.897   2.779   3.414  1.00  0.00     0.210 HD
ENDBRANCH  18  22
ENDBRANCH   1  18
BRANCH   1  24
HETATM   24  C   UNL     1      -1.909   3.818   4.069  1.00  0.00     0.189 C 
BRANCH  24  25
HETATM   25  C   UNL     1      -3.129   2.873   4.043  1.00  0.00     0.246 C 
BRANCH  25  26
HETATM   26  C   UNL     1      -2.905   1.615   4.881  1.00  0.00     0.172 C 
HETATM   27  O   UNL     1      -1.838   1.273   5.365  1.00  0.00    -0.648 OA
BRANCH  26  28
HETATM   28  O   UNL     1      -4.063   0.949   5.104  1.00  0.00    -0.774 OA
HETATM   29  H   UNL     1      -4.823   1.469   4.760  1.00  0.00     0.167 HD
ENDBRANCH  26  28
ENDBRANCH  25  26
BRANCH  25  30
HETATM   30  O   UNL     1      -4.287   3.521   4.605  1.00  0.00    -0.382 OA
HETATM   31  H   UNL     1      -3.967   3.998   5.402  1.00  0.00     0.210 HD
ENDBRANCH  25  30
ENDBRANCH  24  25
BRANCH  24  32
HETATM   32  O   UNL     1      -1.687   4.213   5.428  1.00  0.00    -0.390 OA
HETATM   33  H   UNL     1      -1.337   3.438   5.918  1.00  0.00     0.210 HD
ENDBRANCH  24  32
ENDBRANCH   1  24
TORSDOF 17
