REMARK  11 active torsions:
REMARK  status: ('A' for Active; 'I' for Inactive)
REMARK    1  A    between atoms: C_1  and  C_2 
REMARK    2  A    between atoms: C_1  and  O_12 
REMARK    3  A    between atoms: C_2  and  C_3 
REMARK    4  A    between atoms: C_2  and  O_11 
REMARK    5  A    between atoms: C_3  and  C_4 
REMARK    6  A    between atoms: C_3  and  O_10 
REMARK    7  A    between atoms: C_4  and  C_5 
REMARK    8  A    between atoms: C_4  and  O_9 
REMARK    9  A    between atoms: C_5  and  C_6 
REMARK   10  A    between atoms: C_5  and  O_8 
REMARK   11  A    between atoms: C_6  and  O_7 
ROOT
HETATM    1  C   UNL     1       0.971   2.105  -1.388  1.00  0.00     0.180 C 
ENDROOT
BRANCH   1   2
HETATM    2  C   UNL     1       0.489   1.417  -0.077  1.00  0.00     0.173 C 
BRANCH   2   3
HETATM    3  C   UNL     1       1.037  -0.017   0.064  1.00  0.00     0.198 C 
BRANCH   3   4
HETATM    4  O   UNL     1       2.456  -0.064   0.134  1.00  0.00    -0.398 OA
HETATM    5  H   UNL     1       2.790   0.388  -0.670  1.00  0.00     0.209 HD
ENDBRANCH   3   4
ENDBRANCH   2   3
BRANCH   2   6
HETATM    6  O   UNL     1      -0.933   1.367   0.024  1.00  0.00    -0.391 OA
HETATM    7  H   UNL     1      -1.287   0.901  -0.751  1.00  0.00     0.210 HD
ENDBRANCH   2   6
ENDBRANCH   1   2
BRANCH   1   8
HETATM    8  C   UNL     1       0.466   3.570  -1.555  1.00  0.00     0.180 C 
BRANCH   8   9
HETATM    9  C   UNL     1       0.968   4.266  -2.846  1.00  0.00     0.173 C 
BRANCH   9  10
HETATM   10  C   UNL     1       0.391   5.685  -2.991  1.00  0.00     0.198 C 
BRANCH  10  11
HETATM   11  O   UNL     1       0.879   6.282  -4.194  1.00  0.00    -0.398 OA
HETATM   12  H   UNL     1       1.806   5.986  -4.288  1.00  0.00     0.209 HD
ENDBRANCH  10  11
ENDBRANCH   9  10
BRANCH   9  13
HETATM   13  O   UNL     1       2.394   4.379  -2.907  1.00  0.00    -0.391 OA
HETATM   14  H   UNL     1       2.695   4.884  -2.131  1.00  0.00     0.210 HD
ENDBRANCH   9  13
ENDBRANCH   8   9
BRANCH   8  15
HETATM   15  O   UNL     1      -0.961   3.633  -1.534  1.00  0.00    -0.390 OA
HETATM   16  H   UNL     1      -1.312   3.117  -2.281  1.00  0.00     0.210 HD
ENDBRANCH   8  15
ENDBRANCH   1   8
BRANCH   1  17
HETATM   17  O   UNL     1       2.403   2.036  -1.440  1.00  0.00    -0.390 OA
HETATM   18  H   UNL     1       2.758   2.638  -0.760  1.00  0.00     0.210 HD
ENDBRANCH   1  17
TORSDOF 11
