REMARK  24 active torsions:
REMARK  status: ('A' for Active; 'I' for Inactive)
REMARK    1  A    between atoms: C_1  and  C_2 
REMARK    2  A    between atoms: C_1  and  O_45 
REMARK    3  A    between atoms: C_3  and  O_44 
REMARK    4  A    between atoms: C_4  and  O_43 
REMARK    5  A    between atoms: C_5  and  O_42 
REMARK    6  A    between atoms: C_6  and  O_8 
REMARK    7  A    between atoms: O_8  and  C_9 
REMARK    8  A    between atoms: C_10  and  C_40 
REMARK    9  A    between atoms: C_12  and  O_17 
REMARK   10  A    between atoms: C_13  and  O_16 
REMARK   11  A    between atoms: C_14  and  O_15 
REMARK   12  A    between atoms: O_17  and  C_18 
REMARK   13  A    between atoms: C_19  and  C_38 
REMARK   14  A    between atoms: C_21  and  O_26 
REMARK   15  A    between atoms: C_22  and  O_25 
REMARK   16  A    between atoms: C_23  and  O_24 
REMARK   17  A    between atoms: O_26  and  C_27 
REMARK   18  A    between atoms: C_28  and  C_36 
REMARK   19  A    between atoms: C_30  and  O_35 
REMARK   20  A    between atoms: C_31  and  O_34 
REMARK   21  A    between atoms: C_32  and  O_33 
REMARK   22  A    between atoms: C_36  and  O_37 
REMARK   23  A    between atoms: C_38  and  O_39 
REMARK   24  A    between atoms: C_40  and  O_41 
ROOT
HETATM    1  O   UNL     1       3.996  -3.765   3.559  1.00  0.00    -0.348 OA
ENDROOT
BRANCH   1   2
HETATM    2  C   UNL     1       3.492  -3.251   2.295  1.00  0.00     0.292 C 
HETATM    3  O   UNL     1       2.708  -4.199   1.567  1.00  0.00    -0.348 OA
HETATM    4  C   UNL     1       3.372  -5.016   0.589  1.00  0.00     0.180 C 
HETATM    5  C   UNL     1       4.254  -4.211  -0.405  1.00  0.00     0.187 C 
HETATM    6  C   UNL     1       5.279  -3.429   0.429  1.00  0.00     0.183 C 
HETATM    7  C   UNL     1       4.560  -2.517   1.432  1.00  0.00     0.204 C 
BRANCH   4   8
HETATM    8  C   UNL     1       4.162  -6.168   1.253  1.00  0.00     0.198 C 
BRANCH   8   9
HETATM    9  O   UNL     1       4.741  -7.030   0.277  1.00  0.00    -0.398 OA
HETATM   10  H   UNL     1       4.117  -7.759   0.112  1.00  0.00     0.209 HD
ENDBRANCH   8   9
ENDBRANCH   4   8
BRANCH   5  11
HETATM   11  O   UNL     1       3.448  -3.355  -1.254  1.00  0.00    -0.348 OA
BRANCH  11  12
HETATM   12  C   UNL     1       4.018  -2.799  -2.479  1.00  0.00     0.292 C 
HETATM   13  C   UNL     1       4.846  -3.801  -3.335  1.00  0.00     0.204 C 
HETATM   14  C   UNL     1       5.393  -3.125  -4.593  1.00  0.00     0.183 C 
HETATM   15  C   UNL     1       6.204  -1.875  -4.211  1.00  0.00     0.180 C 
HETATM   16  C   UNL     1       5.368  -0.925  -3.333  1.00  0.00     0.179 C 
HETATM   17  O   UNL     1       4.738  -1.588  -2.203  1.00  0.00    -0.348 OA
BRANCH  13  18
HETATM   18  O   UNL     1       6.019  -4.323  -2.667  1.00  0.00    -0.388 OA
HETATM   19  H   UNL     1       6.228  -3.705  -1.924  1.00  0.00     0.210 HD
ENDBRANCH  13  18
BRANCH  14  20
HETATM   20  O   UNL     1       6.228  -4.040  -5.322  1.00  0.00    -0.390 OA
HETATM   21  H   UNL     1       6.426  -4.782  -4.715  1.00  0.00     0.210 HD
ENDBRANCH  14  20
BRANCH  15  22
HETATM   22  O   UNL     1       7.396  -2.201  -3.473  1.00  0.00    -0.390 OA
HETATM   23  H   UNL     1       7.423  -3.171  -3.366  1.00  0.00     0.210 HD
ENDBRANCH  15  22
BRANCH  16  24
HETATM   24  C   UNL     1       4.412  -0.066  -4.185  1.00  0.00     0.198 C 
BRANCH  24  25
HETATM   25  O   UNL     1       3.536  -0.857  -4.978  1.00  0.00    -0.398 OA
HETATM   26  H   UNL     1       3.538  -0.480  -5.878  1.00  0.00     0.209 HD
ENDBRANCH  24  25
ENDBRANCH  16  24
ENDBRANCH  11  12
ENDBRANCH   5  11
BRANCH   6  27
HETATM   27  O   UNL     1       6.172  -2.695  -0.419  1.00  0.00    -0.390 OA
HETATM   28  H   UNL     1       5.693  -1.886  -0.720  1.00  0.00     0.210 HD
ENDBRANCH   6  27
BRANCH   7  29
HETATM   29  O   UNL     1       5.495  -1.803   2.247  1.00  0.00    -0.388 OA
HETATM   30  H   UNL     1       6.062  -2.467   2.679  1.00  0.00     0.210 HD
ENDBRANCH   7  29
ENDBRANCH   1   2
BRANCH   1  31
HETATM   31  C   UNL     1       2.947  -4.270   4.459  1.00  0.00     0.187 C 
HETATM   32  C   UNL     1       1.834  -3.261   4.816  1.00  0.00     0.180 C 
HETATM   33  O   UNL     1       2.346  -2.154   5.564  1.00  0.00    -0.348 OA
HETATM   34  C   UNL     1       2.858  -2.453   6.859  1.00  0.00     0.292 C 
HETATM   35  C   UNL     1       3.864  -3.646   6.827  1.00  0.00     0.204 C 
HETATM   36  C   UNL     1       3.555  -4.766   5.798  1.00  0.00     0.183 C 
BRANCH  32  37
HETATM   37  C   UNL     1       0.604  -3.928   5.460  1.00  0.00     0.198 C 
BRANCH  37  38
HETATM   38  O   UNL     1       0.052  -4.904   4.583  1.00  0.00    -0.398 OA
HETATM   39  H   UNL     1      -0.341  -4.429   3.828  1.00  0.00     0.209 HD
ENDBRANCH  37  38
ENDBRANCH  32  37
BRANCH  34  40
HETATM   40  O   UNL     1       1.805  -2.512   7.879  1.00  0.00    -0.348 OA
BRANCH  40  41
HETATM   41  C   UNL     1       1.016  -1.266   7.892  1.00  0.00     0.187 C 
HETATM   42  C   UNL     1       1.750  -0.063   8.528  1.00  0.00     0.180 C 
HETATM   43  O   UNL     1       1.618  -0.033   9.958  1.00  0.00    -0.349 OA
HETATM   44  C   UNL     1       0.301   0.103  10.474  1.00  0.00     0.288 C 
HETATM   45  C   UNL     1      -0.608  -1.025   9.985  1.00  0.00     0.204 C 
HETATM   46  C   UNL     1      -0.408  -1.409   8.500  1.00  0.00     0.183 C 
BRANCH  42  47
HETATM   47  C   UNL     1       1.322   1.251   7.842  1.00  0.00     0.198 C 
BRANCH  47  48
HETATM   48  O   UNL     1       1.917   2.376   8.475  1.00  0.00    -0.398 OA
HETATM   49  H   UNL     1       1.588   2.357   9.396  1.00  0.00     0.209 HD
ENDBRANCH  47  48
ENDBRANCH  42  47
BRANCH  44  50
HETATM   50  O   UNL     1      -0.231   1.386  10.195  1.00  0.00    -0.369 OA
HETATM   51  H   UNL     1      -1.145   1.244   9.878  1.00  0.00     0.212 HD
ENDBRANCH  44  50
BRANCH  45  52
HETATM   52  O   UNL     1      -1.985  -0.606  10.168  1.00  0.00    -0.388 OA
HETATM   53  H   UNL     1      -2.152  -0.510  11.123  1.00  0.00     0.210 HD
ENDBRANCH  45  52
BRANCH  46  54
HETATM   54  O   UNL     1      -0.944  -2.718   8.246  1.00  0.00    -0.390 OA
HETATM   55  H   UNL     1      -0.401  -3.355   8.744  1.00  0.00     0.210 HD
ENDBRANCH  46  54
ENDBRANCH  40  41
ENDBRANCH  34  40
BRANCH  35  56
HETATM   56  O   UNL     1       4.081  -4.192   8.139  1.00  0.00    -0.388 OA
HETATM   57  H   UNL     1       3.349  -3.897   8.712  1.00  0.00     0.210 HD
ENDBRANCH  35  56
BRANCH  36  58
HETATM   58  O   UNL     1       4.737  -5.537   5.516  1.00  0.00    -0.390 OA
HETATM   59  H   UNL     1       5.274  -5.000   4.904  1.00  0.00     0.210 HD
ENDBRANCH  36  58
ENDBRANCH   1  31
TORSDOF 24
