REMARK  2 active torsions:
REMARK  status: ('A' for Active; 'I' for Inactive)
REMARK    1  A    between atoms: C_5  and  C_9 
REMARK    2  A    between atoms: C_6  and  O_8 
ROOT
HETATM    1  C   UNL     1       0.919  -0.016   0.250  1.00  0.00     0.010 C 
HETATM    2  C   UNL     1       2.440  -0.079   0.070  1.00  0.00    -0.016 C 
HETATM    3  C   UNL     1       2.920   0.956  -0.961  1.00  0.00     0.005 C 
HETATM    4  C   UNL     1       2.629   0.540  -2.407  1.00  0.00     0.008 C 
HETATM    5  C   UNL     1       3.213  -0.850  -2.751  1.00  0.00     0.018 C 
HETATM    6  C   UNL     1       2.584  -1.856  -1.756  1.00  0.00     0.122 C 
HETATM    7  C   UNL     1       2.901  -1.497  -0.299  1.00  0.00     0.036 C 
ENDROOT
BRANCH   5   8
HETATM    8  C   UNL     1       4.780  -0.841  -2.817  1.00  0.00    -0.016 C 
HETATM    9  C   UNL     1       5.392  -2.205  -3.158  1.00  0.00     0.010 C 
HETATM   10  C   UNL     1       5.297   0.174  -3.850  1.00  0.00     0.010 C 
ENDBRANCH   5   8
BRANCH   6  11
HETATM   11  O   UNL     1       2.941  -3.197  -2.053  1.00  0.00    -0.395 OA
HETATM   12  H   UNL     1       3.528  -3.529  -1.353  1.00  0.00     0.210 HD
ENDBRANCH   6  11
TORSDOF 2
