REMARK  5 active torsions:
REMARK  status: ('A' for Active; 'I' for Inactive)
REMARK    1  A    between atoms: C_5  and  C_14 
REMARK    2  A    between atoms: C_6  and  O_8 
REMARK    3  A    between atoms: O_8  and  C_9 
REMARK    4  A    between atoms: C_9  and  C_11 
REMARK    5  A    between atoms: C_11  and  O_13 
ROOT
HETATM    1  C   UNL     1       2.481  -0.071  -0.118  1.00  0.00     0.010 C 
HETATM    2  C   UNL     1       1.030  -0.052   0.358  1.00  0.00    -0.016 C 
HETATM    3  C   UNL     1       0.337   1.241  -0.094  1.00  0.00     0.005 C 
HETATM    4  C   UNL     1      -1.155   1.231   0.238  1.00  0.00     0.008 C 
HETATM    5  C   UNL     1      -1.885   0.014  -0.377  1.00  0.00     0.018 C 
HETATM    6  C   UNL     1      -1.217  -1.250   0.233  1.00  0.00     0.136 C 
HETATM    7  C   UNL     1       0.276  -1.308  -0.114  1.00  0.00     0.037 C 
ENDROOT
BRANCH   6   8
HETATM    8  O   UNL     1      -1.830  -2.472  -0.212  1.00  0.00    -0.314 OA
BRANCH   8   9
HETATM    9  C   UNL     1      -2.995  -2.830   0.397  1.00  0.00     0.287 C 
HETATM   10  O   UNL     1      -3.543  -2.219   1.308  1.00  0.00    -0.262 OA
BRANCH   9  11
HETATM   11  C   UNL     1      -3.553  -4.123  -0.210  1.00  0.00     0.213 C 
HETATM   12  C   UNL     1      -2.563  -5.264  -0.064  1.00  0.00     0.050 C 
BRANCH  11  13
HETATM   13  O   UNL     1      -4.782  -4.518   0.401  1.00  0.00    -0.386 OA
HETATM   14  H   UNL     1      -4.743  -4.215   1.330  1.00  0.00     0.210 HD
ENDBRANCH  11  13
ENDBRANCH   9  11
ENDBRANCH   8   9
ENDBRANCH   6   8
BRANCH   5  15
HETATM   15  C   UNL     1      -1.934   0.074  -1.945  1.00  0.00    -0.016 C 
HETATM   16  C   UNL     1      -2.647  -1.114  -2.601  1.00  0.00     0.010 C 
HETATM   17  C   UNL     1      -2.631   1.353  -2.434  1.00  0.00     0.010 C 
ENDBRANCH   5  15
TORSDOF 5
