REMARK  0 active torsions:
REMARK  status: ('A' for Active; 'I' for Inactive)
ROOT
HETATM    1  C   UNL     1       0.819  -0.007   0.374  1.00  0.00     0.000 C 
HETATM    2 SI   UNL     1       2.670  -0.142   0.233  1.00  0.00     0.000 Si
HETATM    3  C   UNL     1       3.293   1.107  -1.046  1.00  0.00     0.000 C 
HETATM    4  C   UNL     1       3.015   0.619  -2.474  1.00  0.00     0.002 C 
HETATM    5  C   UNL     1       3.522  -0.812  -2.718  1.00  0.00     0.029 C 
HETATM    6  C   UNL     1       2.875  -1.855  -1.789  1.00  0.00     0.210 C 
HETATM    7  O   UNL     1       3.128  -1.628  -0.399  1.00  0.00    -0.241 OA
ENDROOT
TORSDOF 0
