REMARK  0 active torsions:
REMARK  status: ('A' for Active; 'I' for Inactive)
ROOT
HETATM    1  C   UNL     1       0.886   0.166  -0.033  1.00  0.00     0.168 C 
HETATM    2  N   UNL     1       2.325   0.093  -0.031  1.00  0.00    -0.289 N 
HETATM    3  C   UNL     1       3.164   1.188  -0.034  1.00  0.00     0.253 A 
HETATM    4  O   UNL     1       2.858   2.370  -0.033  1.00  0.00    -0.268 OA
HETATM    5  C   UNL     1       4.571   0.732  -0.040  1.00  0.00     0.083 A 
HETATM    6  C   UNL     1       4.650  -0.602  -0.041  1.00  0.00     0.073 A 
HETATM    7  S   UNL     1       3.121  -1.408  -0.036  1.00  0.00    -0.022 SA
ENDROOT
TORSDOF 0
