REMARK  3 active torsions:
REMARK  status: ('A' for Active; 'I' for Inactive)
REMARK    1  A    between atoms: O_2  and  C_3 
REMARK    2  A    between atoms: C_3  and  C_5 
REMARK    3  A    between atoms: C_8  and  O_11 
ROOT
HETATM    1  C   UNL     1       4.546  -0.223   1.198  1.00  0.00     0.039 A 
HETATM    2  C   UNL     1       5.253   0.712   0.428  1.00  0.00     0.020 A 
HETATM    3  C   UNL     1       6.651   0.709   0.431  1.00  0.00     0.037 A 
HETATM    4  C   UNL     1       7.332  -0.224   1.209  1.00  0.00     0.065 A 
HETATM    5  C   UNL     1       6.642  -1.160   1.971  1.00  0.00     0.037 A 
HETATM    6  C   UNL     1       5.246  -1.165   1.963  1.00  0.00     0.020 A 
ENDROOT
BRANCH   1   7
HETATM    7  C   UNL     1       3.066  -0.262   1.219  1.00  0.00     0.292 C 
HETATM    8  O   UNL     1       2.418  -1.254   1.513  1.00  0.00    -0.259 OA
BRANCH   7   9
HETATM    9  O   UNL     1       2.561   0.962   0.921  1.00  0.00    -0.323 OA
HETATM   10  C   UNL     1       1.134   1.022   0.959  1.00  0.00     0.213 C 
ENDBRANCH   7   9
ENDBRANCH   1   7
BRANCH   4  11
HETATM   11  O   UNL     1       8.694  -0.256   1.249  1.00  0.00    -0.361 OA
HETATM   12  H   UNL     1       9.041   0.465   0.698  1.00  0.00     0.217 HD
ENDBRANCH   4  11
TORSDOF 3
