REMARK  12 active torsions:
REMARK  status: ('A' for Active; 'I' for Inactive)
REMARK    1  A    between atoms: O_2  and  C_3 
REMARK    2  A    between atoms: C_3  and  C_4 
REMARK    3  A    between atoms: C_5  and  O_30 
REMARK    4  A    between atoms: C_6  and  O_28 
REMARK    5  A    between atoms: C_7  and  O_26 
REMARK    6  A    between atoms: C_8  and  O_10 
REMARK    7  A    between atoms: O_10  and  C_11 
REMARK    8  A    between atoms: C_12  and  C_23 
REMARK    9  A    between atoms: C_14  and  O_21 
REMARK   10  A    between atoms: C_15  and  O_19 
REMARK   11  A    between atoms: C_16  and  O_17 
REMARK   12  A    between atoms: C_23  and  O_24 
ROOT
HETATM    1  O   UNL     1       5.196   0.981   4.248  1.00  0.00    -0.348 OA
ENDROOT
BRANCH   1   2
HETATM    2  C   UNL     1       4.703  -0.061   3.361  1.00  0.00     0.292 C 
HETATM    3  C   UNL     1       5.391  -1.416   3.605  1.00  0.00     0.207 C 
HETATM    4  C   UNL     1       4.827  -2.538   2.717  1.00  0.00     0.186 C 
HETATM    5  C   UNL     1       4.842  -2.132   1.230  1.00  0.00     0.183 C 
HETATM    6  C   UNL     1       4.458  -0.630   1.008  1.00  0.00     0.180 C 
HETATM    7  O   UNL     1       4.956   0.301   1.995  1.00  0.00    -0.348 OA
BRANCH   3   8
HETATM    8  O   UNL     1       6.838  -1.408   3.587  1.00  0.00    -0.383 OA
HETATM    9  C   UNL     1       7.545  -0.764   2.550  1.00  0.00     0.202 C 
ENDBRANCH   3   8
BRANCH   4  10
HETATM   10  O   UNL     1       5.707  -3.653   2.980  1.00  0.00    -0.385 OA
HETATM   11  C   UNL     1       5.174  -4.954   3.061  1.00  0.00     0.202 C 
ENDBRANCH   4  10
BRANCH   5  12
HETATM   12  O   UNL     1       3.963  -2.932   0.423  1.00  0.00    -0.385 OA
HETATM   13  C   UNL     1       4.420  -4.238   0.128  1.00  0.00     0.202 C 
ENDBRANCH   5  12
BRANCH   6  14
HETATM   14  C   UNL     1       2.929  -0.433   0.780  1.00  0.00     0.201 C 
BRANCH  14  15
HETATM   15  O   UNL     1       2.563   0.926   0.507  1.00  0.00    -0.393 OA
HETATM   16  C   UNL     1       3.020   1.382  -0.762  1.00  0.00     0.201 C 
ENDBRANCH  14  15
ENDBRANCH   6  14
ENDBRANCH   1   2
BRANCH   1  17
HETATM   17  C   UNL     1       4.591   1.059   5.576  1.00  0.00     0.187 C 
HETATM   18  C   UNL     1       5.217   0.026   6.557  1.00  0.00     0.180 C 
HETATM   19  O   UNL     1       4.843   0.271   7.914  1.00  0.00    -0.348 OA
HETATM   20  C   UNL     1       5.300   1.524   8.392  1.00  0.00     0.291 C 
HETATM   21  C   UNL     1       4.462   2.611   7.698  1.00  0.00     0.207 C 
HETATM   22  C   UNL     1       4.725   2.519   6.151  1.00  0.00     0.186 C 
BRANCH  18  23
HETATM   23  C   UNL     1       6.746  -0.162   6.477  1.00  0.00     0.201 C 
BRANCH  23  24
HETATM   24  O   UNL     1       7.120  -1.158   7.435  1.00  0.00    -0.393 OA
HETATM   25  C   UNL     1       8.477  -1.557   7.335  1.00  0.00     0.201 C 
ENDBRANCH  23  24
ENDBRANCH  18  23
BRANCH  20  26
HETATM   26  O   UNL     1       5.228   1.565   9.818  1.00  0.00    -0.363 OA
HETATM   27  C   UNL     1       6.092   0.569  10.381  1.00  0.00     0.204 C 
ENDBRANCH  20  26
BRANCH  21  28
HETATM   28  O   UNL     1       3.076   2.394   8.050  1.00  0.00    -0.383 OA
HETATM   29  C   UNL     1       2.224   3.499   7.792  1.00  0.00     0.202 C 
ENDBRANCH  21  28
BRANCH  22  30
HETATM   30  O   UNL     1       3.847   3.492   5.552  1.00  0.00    -0.385 OA
HETATM   31  C   UNL     1       3.885   3.621   4.146  1.00  0.00     0.202 C 
ENDBRANCH  22  30
ENDBRANCH   1  17
TORSDOF 12
