REMARK  3 active torsions:
REMARK  status: ('A' for Active; 'I' for Inactive)
REMARK    1  A    between atoms: C_2  and  C_4 
REMARK    2  A    between atoms: C_17  and  C_19 
REMARK    3  A    between atoms: C_19  and  O_21 
ROOT
HETATM    1  C   UNL     1       8.184   2.676   0.720  1.00  0.00    -0.076 C 
HETATM    2  C   UNL     1       7.148   1.895   0.341  1.00  0.00     0.010 C 
HETATM    3  C   UNL     1       7.018   0.511   0.828  1.00  0.00    -0.057 C 
HETATM    4  C   UNL     1       5.744   0.203   1.178  1.00  0.00    -0.019 C 
HETATM    5  C   UNL     1       5.381   0.349   2.653  1.00  0.00     0.034 C 
HETATM    6  C   UNL     1       6.571   0.942   3.456  1.00  0.00     0.016 C 
HETATM    7  C   UNL     1       7.837  -0.017   3.237  1.00  0.00    -0.031 C 
HETATM    8  C   UNL     1       8.177  -0.031   1.673  1.00  0.00     0.027 C 
HETATM    9  C   UNL     1       9.511   0.560   1.202  1.00  0.00     0.014 C 
HETATM   10  C   UNL     1       9.511   2.080   1.133  1.00  0.00     0.035 C 
HETATM   11  C   UNL     1       8.999   0.421   4.153  1.00  0.00     0.010 C 
HETATM   12  C   UNL     1       8.535   0.613   5.594  1.00  0.00     0.002 C 
HETATM   13  C   UNL     1       7.556   1.769   5.645  1.00  0.00     0.020 C 
HETATM   14  C   UNL     1       6.230   1.492   4.888  1.00  0.00     0.049 C 
HETATM   15  C   UNL     1       5.288   0.571   5.676  1.00  0.00     0.026 C 
HETATM   16  C   UNL     1       7.582  -1.518   3.586  1.00  0.00     0.016 C 
ENDROOT
BRANCH  14  17
HETATM   17  C   UNL     1       5.532   2.887   4.936  1.00  0.00     0.267 C 
HETATM   18  O   UNL     1       5.466   3.543   5.969  1.00  0.00    -0.264 OA
BRANCH  17  19
HETATM   19  O   UNL     1       4.976   3.283   3.761  1.00  0.00    -0.326 OA
HETATM   20  C   UNL     1       4.290   4.547   3.795  1.00  0.00     0.213 C 
ENDBRANCH  17  19
ENDBRANCH  14  17
BRANCH   1  21
HETATM   21  C   UNL     1       8.010   4.166   1.040  1.00  0.00     0.006 C 
HETATM   22  C   UNL     1       9.175   5.032   0.570  1.00  0.00     0.014 C 
HETATM   23  C   UNL     1       6.686   4.797   0.599  1.00  0.00     0.014 C 
ENDBRANCH   1  21
TORSDOF 3
