REMARK  16 active torsions:
REMARK  status: ('A' for Active; 'I' for Inactive)
REMARK    1  A    between atoms: C_2  and  C_3 
REMARK    2  A    between atoms: C_3  and  C_4 
REMARK    3  A    between atoms: C_4  and  C_5 
REMARK    4  A    between atoms: C_5  and  C_6 
REMARK    5  A    between atoms: C_6  and  C_7 
REMARK    6  A    between atoms: C_7  and  C_8 
REMARK    7  A    between atoms: C_8  and  C_9 
REMARK    8  A    between atoms: C_9  and  C_10 
REMARK    9  A    between atoms: C_10  and  C_11 
REMARK   10  A    between atoms: C_11  and  C_12 
REMARK   11  A    between atoms: C_12  and  C_13 
REMARK   12  A    between atoms: C_13  and  C_14 
REMARK   13  A    between atoms: C_14  and  O_15 
REMARK   14  A    between atoms: O_15  and  C_16 
REMARK   15  A    between atoms: C_16  and  C_18 
REMARK   16  A    between atoms: C_18  and  O_20 
ROOT
HETATM    1  C   UNL     1      11.264  -4.155   5.822  1.00  0.00     0.000 C 
ENDROOT
BRANCH   1   2
HETATM    2  C   UNL     1      10.701  -3.355   4.650  1.00  0.00     0.000 C 
BRANCH   2   3
HETATM    3  C   UNL     1       9.178  -3.361   4.641  1.00  0.00     0.000 C 
BRANCH   3   4
HETATM    4  C   UNL     1       8.661  -2.524   3.475  1.00  0.00     0.000 C 
BRANCH   4   5
HETATM    5  C   UNL     1       7.139  -2.501   3.457  1.00  0.00     0.000 C 
BRANCH   5   6
HETATM    6  C   UNL     1       6.626  -1.674   2.284  1.00  0.00     0.000 C 
BRANCH   6   7
HETATM    7  C   UNL     1       5.101  -1.657   2.267  1.00  0.00     0.000 C 
BRANCH   7   8
HETATM    8  C   UNL     1       4.577  -0.838   1.093  1.00  0.00     0.000 C 
BRANCH   8   9
HETATM    9  C   UNL     1       3.052  -0.825   1.084  1.00  0.00    -0.000 C 
BRANCH   9  10
HETATM   10  C   UNL     1       2.516  -0.007  -0.088  1.00  0.00    -0.005 C 
HETATM   11  C   UNL     1       0.997   0.008  -0.093  1.00  0.00     0.005 C 
ENDBRANCH   9  10
ENDBRANCH   8   9
ENDBRANCH   7   8
ENDBRANCH   6   7
ENDBRANCH   5   6
ENDBRANCH   4   5
ENDBRANCH   3   4
ENDBRANCH   2   3
ENDBRANCH   1   2
BRANCH   1  12
HETATM   12  C   UNL     1      12.795  -4.166   5.838  1.00  0.00     0.002 C 
BRANCH  12  13
HETATM   13  C   UNL     1      13.390  -2.768   5.988  1.00  0.00     0.027 C 
BRANCH  13  14
HETATM   14  C   UNL     1      14.912  -2.796   6.058  1.00  0.00     0.178 C 
BRANCH  14  15
HETATM   15  O   UNL     1      15.423  -1.459   6.202  1.00  0.00    -0.319 OA
BRANCH  15  16
HETATM   16  C   UNL     1      15.339  -0.936   7.454  1.00  0.00     0.287 C 
HETATM   17  O   UNL     1      14.900  -1.516   8.440  1.00  0.00    -0.262 OA
BRANCH  16  18
HETATM   18  C   UNL     1      15.841   0.509   7.483  1.00  0.00     0.213 C 
HETATM   19  C   UNL     1      14.984   1.409   6.612  1.00  0.00     0.050 C 
BRANCH  18  20
HETATM   20  O   UNL     1      15.823   1.038   8.812  1.00  0.00    -0.386 OA
HETATM   21  H   UNL     1      15.046   0.644   9.255  1.00  0.00     0.210 HD
ENDBRANCH  18  20
ENDBRANCH  16  18
ENDBRANCH  15  16
ENDBRANCH  14  15
ENDBRANCH  13  14
ENDBRANCH  12  13
ENDBRANCH   1  12
TORSDOF 16
