REMARK  16 active torsions:
REMARK  status: ('A' for Active; 'I' for Inactive)
REMARK    1  A    between atoms: C_2  and  C_3 
REMARK    2  A    between atoms: C_3  and  C_4 
REMARK    3  A    between atoms: C_4  and  C_5 
REMARK    4  A    between atoms: C_5  and  C_6 
REMARK    5  A    between atoms: C_5  and  C_8 
REMARK    6  A    between atoms: C_8  and  O_10 
REMARK    7  A    between atoms: O_10  and  C_11 
REMARK    8  A    between atoms: C_11  and  C_12 
REMARK    9  A    between atoms: C_12  and  C_15 
REMARK   10  A    between atoms: C_15  and  O_16 
REMARK   11  A    between atoms: O_16  and  C_17 
REMARK   12  A    between atoms: C_17  and  C_19 
REMARK   13  A    between atoms: C_19  and  C_20 
REMARK   14  A    between atoms: C_19  and  C_22 
REMARK   15  A    between atoms: C_22  and  C_23 
REMARK   16  A    between atoms: C_23  and  C_24 
ROOT
HETATM    1  C   UNL     1       9.048  -2.123   5.104  1.00  0.00    -0.004 C 
HETATM    2  C   UNL     1       8.534  -1.282   6.284  1.00  0.00     0.019 C 
HETATM    3  C   UNL     1       8.536  -3.569   5.268  1.00  0.00     0.019 C 
ENDROOT
BRANCH   1   4
HETATM    4  C   UNL     1       8.531  -1.538   3.769  1.00  0.00     0.189 C 
BRANCH   4   5
HETATM    5  O   UNL     1       7.087  -1.530   3.720  1.00  0.00    -0.320 OA
BRANCH   5   6
HETATM    6  C   UNL     1       6.503  -0.305   3.571  1.00  0.00     0.263 C 
HETATM    7  O   UNL     1       7.114   0.747   3.458  1.00  0.00    -0.265 OA
BRANCH   6   8
HETATM    8  C   UNL     1       4.983  -0.405   3.560  1.00  0.00     0.085 C 
BRANCH   8   9
HETATM    9  C   UNL     1       4.400   0.903   4.159  1.00  0.00     0.014 C 
BRANCH   9  10
HETATM   10  C   UNL     1       2.873   0.939   4.248  1.00  0.00     0.000 C 
BRANCH  10  11
HETATM   11  C   UNL     1       2.345   2.246   4.849  1.00  0.00    -0.005 C 
HETATM   12  C   UNL     1       0.824   2.219   4.919  1.00  0.00     0.005 C 
ENDBRANCH  10  11
ENDBRANCH   9  10
ENDBRANCH   8   9
BRANCH   8  13
HETATM   13  C   UNL     1       4.479  -0.758   2.148  1.00  0.00     0.010 C 
HETATM   14  C   UNL     1       4.830   0.241   1.050  1.00  0.00     0.006 C 
ENDBRANCH   8  13
ENDBRANCH   6   8
ENDBRANCH   5   6
ENDBRANCH   4   5
ENDBRANCH   1   4
BRANCH   1  15
HETATM   15  C   UNL     1      10.596  -2.124   5.113  1.00  0.00     0.189 C 
BRANCH  15  16
HETATM   16  O   UNL     1      11.131  -0.783   4.963  1.00  0.00    -0.320 OA
BRANCH  16  17
HETATM   17  C   UNL     1      11.918  -0.329   5.979  1.00  0.00     0.263 C 
HETATM   18  O   UNL     1      12.165  -0.965   7.002  1.00  0.00    -0.265 OA
BRANCH  17  19
HETATM   19  C   UNL     1      12.452   1.072   5.706  1.00  0.00     0.085 C 
BRANCH  19  20
HETATM   20  C   UNL     1      11.460   2.134   6.228  1.00  0.00     0.010 C 
HETATM   21  C   UNL     1      11.236   2.112   7.737  1.00  0.00     0.006 C 
ENDBRANCH  19  20
BRANCH  19  22
HETATM   22  C   UNL     1      13.856   1.262   6.325  1.00  0.00     0.014 C 
BRANCH  22  23
HETATM   23  C   UNL     1      14.912   0.303   5.762  1.00  0.00     0.000 C 
BRANCH  23  24
HETATM   24  C   UNL     1      16.276   0.517   6.424  1.00  0.00    -0.005 C 
HETATM   25  C   UNL     1      17.310  -0.455   5.878  1.00  0.00     0.005 C 
ENDBRANCH  23  24
ENDBRANCH  22  23
ENDBRANCH  19  22
ENDBRANCH  17  19
ENDBRANCH  16  17
ENDBRANCH  15  16
ENDBRANCH   1  15
TORSDOF 16
