REMARK  16 active torsions:
REMARK  status: ('A' for Active; 'I' for Inactive)
REMARK    1  A    between atoms: C_2  and  C_3 
REMARK    2  A    between atoms: C_3  and  C_4 
REMARK    3  A    between atoms: C_4  and  C_5 
REMARK    4  A    between atoms: C_5  and  C_6 
REMARK    5  A    between atoms: C_6  and  C_7 
REMARK    6  A    between atoms: C_7  and  O_9 
REMARK    7  A    between atoms: O_9  and  C_10 
REMARK    8  A    between atoms: C_10  and  C_11 
REMARK    9  A    between atoms: C_11  and  C_14 
REMARK   10  A    between atoms: C_14  and  O_15 
REMARK   11  A    between atoms: O_15  and  C_16 
REMARK   12  A    between atoms: C_16  and  C_18 
REMARK   13  A    between atoms: C_18  and  C_19 
REMARK   14  A    between atoms: C_19  and  C_20 
REMARK   15  A    between atoms: C_20  and  C_21 
REMARK   16  A    between atoms: C_21  and  C_22 
ROOT
HETATM    1  C   UNL     1      10.574   5.697  -1.546  1.00  0.00    -0.004 C 
HETATM    2  C   UNL     1      11.096   5.323  -0.149  1.00  0.00     0.019 C 
HETATM    3  C   UNL     1      11.086   4.656  -2.563  1.00  0.00     0.019 C 
ENDROOT
BRANCH   1   4
HETATM    4  C   UNL     1       9.029   5.710  -1.544  1.00  0.00     0.189 C 
BRANCH   4   5
HETATM    5  O   UNL     1       8.508   4.414  -1.180  1.00  0.00    -0.321 OA
BRANCH   5   6
HETATM    6  C   UNL     1       7.772   4.350  -0.038  1.00  0.00     0.258 C 
HETATM    7  O   UNL     1       7.515   5.295   0.698  1.00  0.00    -0.265 OA
BRANCH   6   8
HETATM    8  C   UNL     1       7.275   2.947   0.202  1.00  0.00     0.111 C 
BRANCH   8   9
HETATM    9  C   UNL     1       5.749   2.896   0.220  1.00  0.00     0.010 C 
BRANCH   9  10
HETATM   10  C   UNL     1       5.139   3.280  -1.130  1.00  0.00     0.000 C 
BRANCH  10  11
HETATM   11  C   UNL     1       3.613   3.220  -1.084  1.00  0.00    -0.000 C 
BRANCH  11  12
HETATM   12  C   UNL     1       3.005   3.620  -2.427  1.00  0.00    -0.005 C 
HETATM   13  C   UNL     1       1.487   3.561  -2.382  1.00  0.00     0.005 C 
ENDBRANCH  11  12
ENDBRANCH  10  11
ENDBRANCH   9  10
ENDBRANCH   8   9
ENDBRANCH   6   8
ENDBRANCH   5   6
ENDBRANCH   4   5
ENDBRANCH   1   4
BRANCH   1  14
HETATM   14  C   UNL     1      11.120   7.078  -1.969  1.00  0.00     0.189 C 
BRANCH  14  15
HETATM   15  O   UNL     1      10.683   8.158  -1.129  1.00  0.00    -0.321 OA
BRANCH  15  16
HETATM   16  C   UNL     1      11.647   8.747  -0.366  1.00  0.00     0.258 C 
HETATM   17  O   UNL     1      12.739   8.262  -0.102  1.00  0.00    -0.265 OA
BRANCH  16  18
HETATM   18  C   UNL     1      11.242  10.157  -0.007  1.00  0.00     0.111 C 
BRANCH  18  19
HETATM   19  C   UNL     1      12.189  11.170  -0.656  1.00  0.00     0.010 C 
BRANCH  19  20
HETATM   20  C   UNL     1      12.183  11.090  -2.188  1.00  0.00     0.000 C 
BRANCH  20  21
HETATM   21  C   UNL     1      13.143  12.109  -2.803  1.00  0.00    -0.000 C 
BRANCH  21  22
HETATM   22  C   UNL     1      13.154  12.012  -4.328  1.00  0.00    -0.005 C 
HETATM   23  C   UNL     1      14.108  13.023  -4.941  1.00  0.00     0.005 C 
ENDBRANCH  21  22
ENDBRANCH  20  21
ENDBRANCH  19  20
ENDBRANCH  18  19
ENDBRANCH  16  18
ENDBRANCH  15  16
ENDBRANCH  14  15
ENDBRANCH   1  14
TORSDOF 16
