REMARK WARNING: 32 MAX_TORS EXCEEDED!!!
REMARK  35 active torsions:
REMARK  status: ('A' for Active; 'I' for Inactive)
REMARK    1  A    between atoms: C_2  and  C_4 
REMARK    2  A    between atoms: C_4  and  C_5 
REMARK    3  A    between atoms: C_4  and  N_8 
REMARK       I    between atoms: C_5  and  N_7 
REMARK       I    between atoms: N_8  and  C_9 
REMARK    4  A    between atoms: C_9  and  C_11 
REMARK       I    between atoms: N_15  and  C_16 
REMARK    5  A    between atoms: C_16  and  C_18 
REMARK    6  A    between atoms: C_18  and  C_19 
REMARK    7  A    between atoms: C_18  and  N_24 
REMARK    8  A    between atoms: C_19  and  C_20 
REMARK    9  A    between atoms: C_20  and  C_21 
REMARK   10  A    between atoms: C_21  and  C_22 
REMARK   11  A    between atoms: C_22  and  N_23 
REMARK       I    between atoms: N_24  and  C_25 
REMARK   12  A    between atoms: C_25  and  C_27 
REMARK   13  A    between atoms: C_27  and  C_28 
REMARK   14  A    between atoms: C_27  and  N_35 
REMARK   15  A    between atoms: C_28  and  C_29 
REMARK       I    between atoms: N_35  and  C_36 
REMARK   16  A    between atoms: C_36  and  C_38 
REMARK   17  A    between atoms: C_38  and  C_39 
REMARK   18  A    between atoms: C_38  and  N_49 
REMARK   19  A    between atoms: C_39  and  C_40 
REMARK       I    between atoms: N_49  and  C_50 
REMARK   20  A    between atoms: C_50  and  C_52 
REMARK   21  A    between atoms: C_52  and  C_53 
REMARK   22  A    between atoms: C_52  and  N_61 
REMARK   23  A    between atoms: C_53  and  C_54 
REMARK   24  A    between atoms: C_54  and  C_55 
REMARK   25  A    between atoms: C_55  and  N_56 
REMARK       I    between atoms: N_56  and  C_58 
REMARK       I    between atoms: C_58  and  N_60 
REMARK       I    between atoms: N_61  and  C_62 
REMARK   26  A    between atoms: C_62  and  C_64 
REMARK   27  A    between atoms: C_64  and  C_65 
REMARK   28  A    between atoms: C_64  and  N_72 
REMARK   29  A    between atoms: C_65  and  C_66 
REMARK       I    between atoms: N_72  and  C_73 
REMARK   30  A    between atoms: C_73  and  C_75 
REMARK       I    between atoms: N_79  and  C_80 
REMARK   31  A    between atoms: C_80  and  C_82 
REMARK   32  A    between atoms: C_82  and  C_83 
REMARK   33  A    between atoms: C_82  and  N_87 
REMARK   34  A    between atoms: C_83  and  C_84 
REMARK   35  A    between atoms: C_84  and  S_85 
ROOT
HETATM    1  C   UNL     1      -0.547   8.728  -2.226  1.00  0.00     0.181 C 
ENDROOT
BRANCH   1   2
HETATM    2  C   UNL     1       0.883   8.553  -1.640  1.00  0.00     0.241 C 
HETATM    3  N   UNL     1       1.766   9.613  -1.875  1.00  0.00    -0.346 N 
HETATM    4  H   UNL     1       1.525  10.206  -2.664  1.00  0.00     0.163 HD
HETATM    5  O   UNL     1       1.249   7.513  -1.096  1.00  0.00    -0.271 OA
BRANCH   3   6
HETATM    6  C   UNL     1       3.181   9.506  -1.452  1.00  0.00     0.180 C 
BRANCH   6   7
HETATM    7  C   UNL     1       3.839   8.371  -2.377  1.00  0.00     0.241 C 
HETATM    8  N   UNL     1       5.107   8.525  -2.893  1.00  0.00    -0.347 N 
HETATM    9  H   UNL     1       5.651   9.364  -2.704  1.00  0.00     0.163 HD
HETATM   10  O   UNL     1       3.229   7.345  -2.671  1.00  0.00    -0.271 OA
BRANCH   8  11
HETATM   11  C   UNL     1       5.540   7.695  -4.038  1.00  0.00     0.171 C 
BRANCH  11  12
HETATM   12  C   UNL     1       5.944   6.142  -3.746  1.00  0.00     0.223 C 
HETATM   13  N   UNL     1       5.637   5.486  -2.552  1.00  0.00    -0.238 NA
HETATM   14  C   UNL     1       5.469   4.016  -2.676  1.00  0.00     0.158 C 
HETATM   15  C   UNL     1       6.495   5.711  -1.380  1.00  0.00     0.099 C 
HETATM   16  C   UNL     1       5.349   3.582  -1.220  1.00  0.00     0.031 C 
HETATM   17  C   UNL     1       6.394   4.438  -0.519  1.00  0.00     0.017 C 
HETATM   18  O   UNL     1       6.373   5.456  -4.686  1.00  0.00    -0.277 OA
BRANCH  14  19
HETATM   19  C   UNL     1       4.282   3.444  -3.514  1.00  0.00     0.236 C 
HETATM   20  N   UNL     1       3.047   4.072  -3.390  1.00  0.00    -0.346 N 
HETATM   21  H   UNL     1       3.143   5.066  -3.168  1.00  0.00     0.163 HD
HETATM   22  O   UNL     1       4.416   2.384  -4.129  1.00  0.00    -0.272 OA
BRANCH  20  23
HETATM   23  C   UNL     1       1.938   3.712  -4.310  1.00  0.00     0.179 C 
BRANCH  23  24
HETATM   24  C   UNL     1       0.943   2.545  -3.936  1.00  0.00     0.009 C 
HETATM   25  C   UNL     1       1.619   1.214  -3.602  1.00  0.00     0.012 C 
HETATM   26  C   UNL     1      -0.157   2.807  -2.892  1.00  0.00     0.012 C 
ENDBRANCH  23  24
BRANCH  23  27
HETATM   27  C   UNL     1       1.154   4.986  -4.675  1.00  0.00     0.238 C 
HETATM   28  O   UNL     1       1.092   5.446  -5.813  1.00  0.00    -0.271 OA
HETATM   29  N   UNL     1       0.457   5.589  -3.670  1.00  0.00    -0.368 N 
HETATM   30  H   UNL     1       0.770   5.520  -2.706  1.00  0.00     0.159 HD
HETATM   31  H   UNL     1      -0.081   6.398  -3.936  1.00  0.00     0.159 HD
ENDBRANCH  23  27
ENDBRANCH  20  23
ENDBRANCH  14  19
ENDBRANCH  11  12
BRANCH  11  32
HETATM   32  C   UNL     1       4.515   7.540  -5.277  1.00  0.00     0.034 C 
BRANCH  32  33
HETATM   33  C   UNL     1       3.995   8.138  -6.651  1.00  0.00     0.004 C 
BRANCH  33  34
HETATM   34  C   UNL     1       3.001   9.256  -7.169  1.00  0.00     0.030 C 
BRANCH  34  35
HETATM   35  C   UNL     1       3.293  10.718  -7.583  1.00  0.00     0.267 C 
BRANCH  35  36
HETATM   36  N   UNL     1       2.047  11.368  -7.415  1.00  0.00     0.078 N 
HETATM   37  H   UNL     1       1.342  11.080  -8.104  1.00  0.00     0.312 HD
HETATM   38  H   UNL     1       2.222  12.343  -7.609  1.00  0.00     0.312 HD
ENDBRANCH  35  36
ENDBRANCH  34  35
ENDBRANCH  33  34
ENDBRANCH  32  33
ENDBRANCH  11  32
ENDBRANCH   8  11
ENDBRANCH   6   7
BRANCH   6  39
HETATM   39  C   UNL     1       3.949  10.864  -1.400  1.00  0.00     0.073 C 
BRANCH  39  40
HETATM   40  C   UNL     1       3.353  12.137  -0.820  1.00  0.00    -0.056 A 
HETATM   41  C   UNL     1       2.515  12.122   0.298  1.00  0.00     0.007 A 
HETATM   42  C   UNL     1       2.132  13.309   0.929  1.00  0.00     0.001 A 
HETATM   43  C   UNL     1       2.593  14.550   0.465  1.00  0.00     0.000 A 
HETATM   44  C   UNL     1       3.407  14.597  -0.654  1.00  0.00     0.001 A 
HETATM   45  C   UNL     1       3.795  13.407  -1.284  1.00  0.00     0.007 A 
ENDBRANCH  39  40
ENDBRANCH   6  39
ENDBRANCH   3   6
ENDBRANCH   1   2
BRANCH   1  46
HETATM   46  C   UNL     1      -1.564   7.771  -1.590  1.00  0.00     0.075 C 
BRANCH  46  47
HETATM   47  C   UNL     1      -1.759   7.957  -0.116  1.00  0.00    -0.028 C 
HETATM   48  C   UNL     1      -0.865   7.547   0.856  1.00  0.00     0.096 C 
HETATM   49  N   UNL     1      -1.379   7.959   2.045  1.00  0.00    -0.365 N 
HETATM   50  C   UNL     1      -2.740   7.955   1.904  1.00  0.00     0.042 C 
HETATM   51  H   UNL     1      -0.877   8.543   2.698  1.00  0.00     0.165 HD
HETATM   52  C   UNL     1      -3.756   7.625   2.794  1.00  0.00     0.030 C 
HETATM   53  C   UNL     1      -2.964   8.314   0.577  1.00  0.00    -0.002 C 
HETATM   54  C   UNL     1      -5.058   7.785   2.323  1.00  0.00     0.002 C 
HETATM   55  C   UNL     1      -5.307   8.394   1.090  1.00  0.00     0.001 C 
HETATM   56  C   UNL     1      -4.263   8.693   0.202  1.00  0.00     0.014 C 
ENDBRANCH  46  47
ENDBRANCH   1  46
BRANCH   1  57
HETATM   57  N   UNL     1      -0.932  10.120  -2.088  1.00  0.00    -0.346 N 
HETATM   58  C   UNL     1      -2.078  10.647  -2.632  1.00  0.00     0.241 C 
HETATM   59  O   UNL     1      -2.899   9.967  -3.247  1.00  0.00    -0.271 OA
HETATM   60  H   UNL     1      -0.320  10.678  -1.514  1.00  0.00     0.163 HD
BRANCH  58  61
HETATM   61  C   UNL     1      -2.276  12.178  -2.454  1.00  0.00     0.176 C 
BRANCH  61  62
HETATM   62  C   UNL     1      -1.102  12.881  -1.738  1.00  0.00     0.036 C 
BRANCH  62  63
HETATM   63  C   UNL     1      -1.274  14.377  -1.515  1.00  0.00     0.022 C 
BRANCH  63  64
HETATM   64  C   UNL     1      -2.376  14.640  -0.493  1.00  0.00     0.122 C 
BRANCH  64  65
HETATM   65  N   UNL     1      -2.528  16.080  -0.309  1.00  0.00    -0.367 N 
HETATM   66  C   UNL     1      -3.462  16.446   0.488  1.00  0.00     0.143 C 
HETATM   67  N   UNL     1      -4.320  15.698   1.219  1.00  0.00    -0.376 N 
HETATM   68  N   UNL     1      -3.701  17.751   0.615  1.00  0.00    -0.274 NA
HETATM   69  H   UNL     1      -4.098  14.699   1.335  1.00  0.00     0.158 HD
HETATM   70  H   UNL     1      -4.823  16.161   1.946  1.00  0.00     0.158 HD
HETATM   71  H   UNL     1      -2.958  18.296   0.178  1.00  0.00     0.127 HD
HETATM   72  H   UNL     1      -3.911  18.074   1.543  1.00  0.00     0.127 HD
ATOM     73  HN  UNL     1      -1.928  16.753  -0.785  1.00  0.00     0.162 HD
ENDBRANCH  64  65
ENDBRANCH  63  64
ENDBRANCH  62  63
ENDBRANCH  61  62
BRANCH  61  74
HETATM   74  N   UNL     1      -2.604  12.732  -3.770  1.00  0.00    -0.346 N 
HETATM   75  C   UNL     1      -1.679  12.659  -4.792  1.00  0.00     0.241 C 
HETATM   76  O   UNL     1      -0.546  12.250  -4.548  1.00  0.00    -0.271 OA
HETATM   77  H   UNL     1      -3.581  12.848  -3.987  1.00  0.00     0.163 HD
BRANCH  75  78
HETATM   78  C   UNL     1      -2.084  13.065  -6.236  1.00  0.00     0.180 C 
BRANCH  78  79
HETATM   79  C   UNL     1      -3.509  13.611  -6.470  1.00  0.00     0.073 C 
BRANCH  79  80
HETATM   80  C   UNL     1      -3.883  14.959  -5.902  1.00  0.00    -0.056 A 
HETATM   81  C   UNL     1      -3.048  15.680  -5.040  1.00  0.00     0.007 A 
HETATM   82  C   UNL     1      -3.386  16.961  -4.619  1.00  0.00     0.001 A 
HETATM   83  C   UNL     1      -4.577  17.541  -5.039  1.00  0.00     0.000 A 
HETATM   84  C   UNL     1      -5.452  16.819  -5.847  1.00  0.00     0.001 A 
HETATM   85  C   UNL     1      -5.112  15.532  -6.270  1.00  0.00     0.007 A 
ENDBRANCH  79  80
ENDBRANCH  78  79
BRANCH  78  86
HETATM   86  N   UNL     1      -1.006  13.916  -6.814  1.00  0.00    -0.346 N 
HETATM   87  C   UNL     1      -0.009  13.364  -7.590  1.00  0.00     0.241 C 
HETATM   88  O   UNL     1      -0.178  12.235  -8.056  1.00  0.00    -0.271 OA
HETATM   89  H   UNL     1      -0.874  14.843  -6.436  1.00  0.00     0.163 HD
BRANCH  87  90
HETATM   90  C   UNL     1       1.291  14.257  -7.910  1.00  0.00     0.179 C 
HETATM   91  C   UNL     1       1.545  13.964  -9.424  1.00  0.00     0.037 C 
HETATM   92  C   UNL     1       2.969  14.367  -9.694  1.00  0.00     0.022 C 
HETATM   93  C   UNL     1       3.718  14.181  -8.401  1.00  0.00     0.127 C 
HETATM   94  N   UNL     1       2.707  14.060  -7.362  1.00  0.00    -0.337 N 
HETATM   95  C   UNL     1       3.209  13.943  -6.077  1.00  0.00     0.253 C 
HETATM   96  O   UNL     1       4.338  14.337  -5.762  1.00  0.00    -0.271 OA
BRANCH  95  97
HETATM   97  C   UNL     1       2.412  13.118  -5.092  1.00  0.00     0.309 C 
BRANCH  97  98
HETATM   98  C   UNL     1       3.339  12.035  -4.444  1.00  0.00     0.055 C 
BRANCH  98  99
HETATM   99  C   UNL     1       4.192  10.811  -5.045  1.00  0.00     0.076 C 
BRANCH  99 100
HETATM  100  S   UNL     1       6.001  10.685  -6.113  1.00  0.00    -0.173 SA
HETATM  101  C   UNL     1       5.869   9.974  -8.019  1.00  0.00     0.089 C 
ENDBRANCH  99 100
ENDBRANCH  98  99
ENDBRANCH  97  98
BRANCH  97 102
HETATM  102  N   UNL     1       1.847  14.077  -4.100  1.00  0.00     0.092 N 
HETATM  103  H   UNL     1       2.604  14.547  -3.603  1.00  0.00     0.313 HD
HETATM  104  H   UNL     1       1.315  13.560  -3.403  1.00  0.00     0.313 HD
ENDBRANCH  97 102
ENDBRANCH  95  97
ENDBRANCH  87  90
ENDBRANCH  78  86
ENDBRANCH  75  78
ENDBRANCH  61  74
ENDBRANCH  58  61
ENDBRANCH   1  57
TORSDOF 35
