REMARK  21 active torsions:
REMARK  status: ('A' for Active; 'I' for Inactive)
REMARK    1  A    between atoms: C_2  and  C_3 
REMARK    2  A    between atoms: C_3  and  C_4 
REMARK    3  A    between atoms: C_4  and  C_5 
REMARK    4  A    between atoms: C_5  and  C_6 
REMARK    5  A    between atoms: C_6  and  C_7 
REMARK    6  A    between atoms: C_7  and  C_8 
REMARK    7  A    between atoms: C_8  and  C_9 
REMARK    8  A    between atoms: C_9  and  C_10 
REMARK    9  A    between atoms: C_10  and  C_11 
REMARK   10  A    between atoms: C_11  and  C_12 
REMARK   11  A    between atoms: C_11  and  C_20 
REMARK   12  A    between atoms: C_12  and  C_13 
REMARK   13  A    between atoms: C_13  and  C_14 
REMARK   14  A    between atoms: C_14  and  C_15 
REMARK   15  A    between atoms: C_15  and  C_16 
REMARK   16  A    between atoms: C_16  and  C_17 
REMARK   17  A    between atoms: C_17  and  C_18 
REMARK   18  A    between atoms: C_20  and  O_21 
REMARK   19  A    between atoms: O_21  and  C_22 
REMARK   20  A    between atoms: C_22  and  C_24 
REMARK   21  A    between atoms: C_24  and  O_26 
ROOT
HETATM    1  C   UNL     1      11.262   3.846  -5.916  1.00  0.00     0.010 C 
ENDROOT
BRANCH   1   2
HETATM    2  C   UNL     1      10.759   2.998  -4.726  1.00  0.00     0.007 C 
BRANCH   2   3
HETATM    3  C   UNL     1       9.232   2.972  -4.628  1.00  0.00     0.000 C 
BRANCH   3   4
HETATM    4  C   UNL     1       8.724   2.077  -3.497  1.00  0.00     0.000 C 
BRANCH   4   5
HETATM    5  C   UNL     1       7.194   2.080  -3.492  1.00  0.00     0.000 C 
BRANCH   5   6
HETATM    6  C   UNL     1       6.618   1.246  -2.352  1.00  0.00     0.000 C 
BRANCH   6   7
HETATM    7  C   UNL     1       5.088   1.276  -2.384  1.00  0.00     0.000 C 
BRANCH   7   8
HETATM    8  C   UNL     1       4.497   0.448  -1.246  1.00  0.00     0.000 C 
BRANCH   8   9
HETATM    9  C   UNL     1       2.969   0.472  -1.269  1.00  0.00    -0.000 C 
BRANCH   9  10
HETATM   10  C   UNL     1       2.396  -0.362  -0.124  1.00  0.00    -0.005 C 
HETATM   11  C   UNL     1       0.877  -0.355  -0.132  1.00  0.00     0.005 C 
ENDBRANCH   9  10
ENDBRANCH   8   9
ENDBRANCH   7   8
ENDBRANCH   6   7
ENDBRANCH   5   6
ENDBRANCH   4   5
ENDBRANCH   3   4
ENDBRANCH   2   3
ENDBRANCH   1   2
BRANCH   1  12
HETATM   12  C   UNL     1      10.780   5.314  -5.892  1.00  0.00     0.007 C 
BRANCH  12  13
HETATM   13  C   UNL     1      11.266   6.126  -4.686  1.00  0.00     0.000 C 
BRANCH  13  14
HETATM   14  C   UNL     1      10.741   7.564  -4.668  1.00  0.00     0.000 C 
BRANCH  14  15
HETATM   15  C   UNL     1       9.216   7.636  -4.598  1.00  0.00     0.000 C 
BRANCH  15  16
HETATM   16  C   UNL     1       8.723   9.077  -4.507  1.00  0.00     0.000 C 
BRANCH  16  17
HETATM   17  C   UNL     1       7.195   9.118  -4.493  1.00  0.00    -0.000 C 
BRANCH  17  18
HETATM   18  C   UNL     1       6.681  10.553  -4.426  1.00  0.00    -0.005 C 
HETATM   19  C   UNL     1       5.162  10.592  -4.405  1.00  0.00     0.005 C 
ENDBRANCH  17  18
ENDBRANCH  16  17
ENDBRANCH  15  16
ENDBRANCH  14  15
ENDBRANCH  13  14
ENDBRANCH  12  13
ENDBRANCH   1  12
BRANCH   1  20
HETATM   20  C   UNL     1      12.792   3.745  -6.025  1.00  0.00     0.183 C 
BRANCH  20  21
HETATM   21  O   UNL     1      13.281   4.537  -7.119  1.00  0.00    -0.319 OA
BRANCH  21  22
HETATM   22  C   UNL     1      13.253   3.942  -8.342  1.00  0.00     0.287 C 
HETATM   23  O   UNL     1      12.870   2.799  -8.571  1.00  0.00    -0.262 OA
BRANCH  22  24
HETATM   24  C   UNL     1      13.772   4.890  -9.425  1.00  0.00     0.213 C 
HETATM   25  C   UNL     1      15.220   5.267  -9.163  1.00  0.00     0.050 C 
BRANCH  24  26
HETATM   26  O   UNL     1      13.694   4.298 -10.723  1.00  0.00    -0.386 OA
HETATM   27  H   UNL     1      13.770   3.332 -10.594  1.00  0.00     0.210 HD
ENDBRANCH  24  26
ENDBRANCH  22  24
ENDBRANCH  21  22
ENDBRANCH  20  21
ENDBRANCH   1  20
TORSDOF 21
