REMARK WARNING: 32 MAX_TORS EXCEEDED!!!
REMARK  53 active torsions:
REMARK  status: ('A' for Active; 'I' for Inactive)
REMARK    1  A    between atoms: C_2  and  C_3 
REMARK    2  A    between atoms: C_3  and  C_4 
REMARK    3  A    between atoms: C_4  and  C_5 
REMARK    4  A    between atoms: C_5  and  C_6 
REMARK    5  A    between atoms: C_6  and  C_7 
REMARK    6  A    between atoms: C_7  and  C_8 
REMARK    7  A    between atoms: C_8  and  C_9 
REMARK    8  A    between atoms: C_9  and  C_10 
REMARK    9  A    between atoms: C_10  and  C_11 
REMARK   10  A    between atoms: C_11  and  C_12 
REMARK   11  A    between atoms: C_12  and  C_13 
REMARK   12  A    between atoms: C_13  and  C_14 
REMARK   13  A    between atoms: C_14  and  C_15 
REMARK   14  A    between atoms: C_15  and  C_16 
REMARK   15  A    between atoms: C_16  and  C_17 
REMARK   16  A    between atoms: C_17  and  C_18 
REMARK   17  A    between atoms: C_18  and  O_20 
REMARK   18  A    between atoms: O_20  and  C_21 
REMARK   19  A    between atoms: C_21  and  C_22 
REMARK   20  A    between atoms: C_21  and  C_28 
REMARK   21  A    between atoms: C_22  and  C_23 
REMARK   22  A    between atoms: C_23  and  C_24 
REMARK   23  A    between atoms: C_24  and  C_25 
REMARK   24  A    between atoms: C_25  and  C_26 
REMARK   25  A    between atoms: C_28  and  C_29 
REMARK   26  A    between atoms: C_29  and  C_30 
REMARK   27  A    between atoms: C_30  and  C_31 
REMARK   28  A    between atoms: C_31  and  C_32 
REMARK   29  A    between atoms: C_32  and  C_33 
REMARK   30  A    between atoms: C_33  and  C_34 
REMARK   31  A    between atoms: C_34  and  C_35 
REMARK   32  A    between atoms: C_35  and  C_36 
REMARK   33  A    between atoms: C_36  and  C_37 
REMARK   34  A    between atoms: C_37  and  C_38 
REMARK   35  A    between atoms: C_38  and  O_40 
REMARK   36  A    between atoms: O_40  and  C_41 
REMARK   37  A    between atoms: C_41  and  C_42 
REMARK   38  A    between atoms: C_42  and  C_43 
REMARK   39  A    between atoms: C_42  and  C_51 
REMARK   40  A    between atoms: C_43  and  C_44 
REMARK   41  A    between atoms: C_44  and  C_45 
REMARK   42  A    between atoms: C_45  and  C_46 
REMARK   43  A    between atoms: C_46  and  C_47 
REMARK   44  A    between atoms: C_47  and  C_48 
REMARK   45  A    between atoms: C_48  and  C_49 
REMARK   46  A    between atoms: C_51  and  C_52 
REMARK   47  A    between atoms: C_52  and  C_53 
REMARK   48  A    between atoms: C_53  and  C_54 
REMARK   49  A    between atoms: C_54  and  C_55 
REMARK   50  A    between atoms: C_55  and  C_56 
REMARK   51  A    between atoms: C_56  and  C_57 
REMARK   52  A    between atoms: C_57  and  C_58 
REMARK   53  A    between atoms: C_58  and  C_59 
ROOT
HETATM    1  C   UNL     1      23.326  12.850   8.655  1.00  0.00     0.000 C 
ENDROOT
BRANCH   1   2
HETATM    2  C   UNL     1      22.818  11.656   7.856  1.00  0.00     0.002 C 
BRANCH   2   3
HETATM    3  C   UNL     1      21.298  11.600   7.848  1.00  0.00     0.032 C 
BRANCH   3   4
HETATM    4  C   UNL     1      20.751  10.406   7.043  1.00  0.00     0.132 C 
BRANCH   4   5
HETATM    5  O   UNL     1      21.218   9.175   7.642  1.00  0.00    -0.316 OA
BRANCH   5   6
HETATM    6  C   UNL     1      21.193   8.072   6.830  1.00  0.00     0.259 C 
HETATM    7  O   UNL     1      20.824   8.060   5.677  1.00  0.00    -0.265 OA
BRANCH   6   8
HETATM    8  C   UNL     1      21.730   6.852   7.554  1.00  0.00     0.111 C 
BRANCH   8   9
HETATM    9  C   UNL     1      22.924   6.251   6.811  1.00  0.00     0.010 C 
BRANCH   9  10
HETATM   10  C   UNL     1      24.082   7.239   6.738  1.00  0.00     0.000 C 
BRANCH  10  11
HETATM   11  C   UNL     1      25.266   6.626   6.005  1.00  0.00     0.000 C 
BRANCH  11  12
HETATM   12  C   UNL     1      26.407   7.628   5.934  1.00  0.00     0.000 C 
BRANCH  12  13
HETATM   13  C   UNL     1      27.594   7.026   5.202  1.00  0.00     0.000 C 
BRANCH  13  14
HETATM   14  C   UNL     1      28.729   8.034   5.139  1.00  0.00     0.000 C 
BRANCH  14  15
HETATM   15  C   UNL     1      29.917   7.435   4.409  1.00  0.00     0.000 C 
BRANCH  15  16
HETATM   16  C   UNL     1      31.051   8.443   4.347  1.00  0.00     0.000 C 
BRANCH  16  17
HETATM   17  C   UNL     1      32.238   7.840   3.618  1.00  0.00     0.000 C 
BRANCH  17  18
HETATM   18  C   UNL     1      33.374   8.845   3.554  1.00  0.00     0.000 C 
BRANCH  18  19
HETATM   19  C   UNL     1      34.562   8.242   2.826  1.00  0.00     0.000 C 
BRANCH  19  20
HETATM   20  C   UNL     1      35.696   9.252   2.765  1.00  0.00     0.000 C 
BRANCH  20  21
HETATM   21  C   UNL     1      36.888   8.656   2.036  1.00  0.00     0.000 C 
BRANCH  21  22
HETATM   22  C   UNL     1      38.025   9.665   1.974  1.00  0.00    -0.000 C 
BRANCH  22  23
HETATM   23  C   UNL     1      39.224   9.075   1.245  1.00  0.00    -0.005 C 
HETATM   24  C   UNL     1      40.357  10.082   1.180  1.00  0.00     0.005 C 
ENDBRANCH  22  23
ENDBRANCH  21  22
ENDBRANCH  20  21
ENDBRANCH  19  20
ENDBRANCH  18  19
ENDBRANCH  17  18
ENDBRANCH  16  17
ENDBRANCH  15  16
ENDBRANCH  14  15
ENDBRANCH  13  14
ENDBRANCH  12  13
ENDBRANCH  11  12
ENDBRANCH  10  11
ENDBRANCH   9  10
ENDBRANCH   8   9
ENDBRANCH   6   8
ENDBRANCH   5   6
ENDBRANCH   4   5
BRANCH   4  25
HETATM   25  C   UNL     1      19.215  10.417   7.060  1.00  0.00     0.032 C 
BRANCH  25  26
HETATM   26  C   UNL     1      18.659  11.680   6.424  1.00  0.00     0.002 C 
BRANCH  26  27
HETATM   27  C   UNL     1      17.152  11.732   6.445  1.00  0.00     0.000 C 
BRANCH  27  28
HETATM   28  C   UNL     1      16.722  13.044   5.806  1.00  0.00    -0.000 C 
BRANCH  28  29
HETATM   29  C   UNL     1      15.211  13.156   5.786  1.00  0.00    -0.005 C 
HETATM   30  C   UNL     1      14.781  14.460   5.147  1.00  0.00     0.005 C 
ENDBRANCH  28  29
ENDBRANCH  27  28
ENDBRANCH  26  27
ENDBRANCH  25  26
ENDBRANCH   4  25
ENDBRANCH   3   4
ENDBRANCH   2   3
ENDBRANCH   1   2
BRANCH   1  31
HETATM   31  C   UNL     1      24.849  12.859   8.647  1.00  0.00     0.000 C 
BRANCH  31  32
HETATM   32  C   UNL     1      25.378  14.045   9.437  1.00  0.00     0.000 C 
BRANCH  32  33
HETATM   33  C   UNL     1      26.900  14.049   9.424  1.00  0.00     0.000 C 
BRANCH  33  34
HETATM   34  C   UNL     1      27.433  15.233  10.217  1.00  0.00     0.000 C 
BRANCH  34  35
HETATM   35  C   UNL     1      28.959  15.245  10.210  1.00  0.00     0.000 C 
BRANCH  35  36
HETATM   36  C   UNL     1      29.462  16.437  11.014  1.00  0.00     0.010 C 
BRANCH  36  37
HETATM   37  C   UNL     1      30.988  16.529  11.065  1.00  0.00     0.111 C 
BRANCH  37  38
HETATM   38  C   UNL     1      31.414  17.751  11.869  1.00  0.00     0.258 C 
HETATM   39  O   UNL     1      30.648  18.558  12.381  1.00  0.00    -0.265 OA
BRANCH  38  40
HETATM   40  O   UNL     1      32.768  17.855  11.841  1.00  0.00    -0.321 OA
BRANCH  40  41
HETATM   41  C   UNL     1      33.225  19.094  11.302  1.00  0.00     0.183 C 
BRANCH  41  42
HETATM   42  C   UNL     1      34.016  19.952  12.303  1.00  0.00     0.010 C 
BRANCH  42  43
HETATM   43  C   UNL     1      35.230  19.194  12.866  1.00  0.00     0.007 C 
BRANCH  43  44
HETATM   44  C   UNL     1      35.989  20.022  13.898  1.00  0.00     0.000 C 
BRANCH  44  45
HETATM   45  C   UNL     1      37.187  19.272  14.440  1.00  0.00     0.000 C 
BRANCH  45  46
HETATM   46  C   UNL     1      37.905  20.176  15.425  1.00  0.00     0.000 C 
BRANCH  46  47
HETATM   47  C   UNL     1      39.105  19.454  16.000  1.00  0.00     0.000 C 
BRANCH  47  48
HETATM   48  C   UNL     1      39.818  20.352  16.995  1.00  0.00    -0.000 C 
BRANCH  48  49
HETATM   49  C   UNL     1      41.023  19.629  17.575  1.00  0.00    -0.005 C 
HETATM   50  C   UNL     1      41.741  20.512  18.573  1.00  0.00     0.005 C 
ENDBRANCH  48  49
ENDBRANCH  47  48
ENDBRANCH  46  47
ENDBRANCH  45  46
ENDBRANCH  44  45
ENDBRANCH  43  44
ENDBRANCH  42  43
BRANCH  42  51
HETATM   51  C   UNL     1      34.480  21.261  11.632  1.00  0.00     0.007 C 
BRANCH  51  52
HETATM   52  C   UNL     1      33.325  22.113  11.138  1.00  0.00     0.000 C 
BRANCH  52  53
HETATM   53  C   UNL     1      33.830  23.390  10.495  1.00  0.00     0.000 C 
BRANCH  53  54
HETATM   54  C   UNL     1      32.642  24.199   9.998  1.00  0.00     0.000 C 
BRANCH  54  55
HETATM   55  C   UNL     1      33.124  25.483   9.356  1.00  0.00     0.000 C 
BRANCH  55  56
HETATM   56  C   UNL     1      31.943  26.299   8.860  1.00  0.00     0.000 C 
BRANCH  56  57
HETATM   57  C   UNL     1      32.435  27.584   8.211  1.00  0.00     0.000 C 
BRANCH  57  58
HETATM   58  C   UNL     1      31.256  28.405   7.713  1.00  0.00    -0.000 C 
BRANCH  58  59
HETATM   59  C   UNL     1      31.736  29.695   7.062  1.00  0.00    -0.005 C 
HETATM   60  C   UNL     1      30.558  30.512   6.564  1.00  0.00     0.005 C 
ENDBRANCH  58  59
ENDBRANCH  57  58
ENDBRANCH  56  57
ENDBRANCH  55  56
ENDBRANCH  54  55
ENDBRANCH  53  54
ENDBRANCH  52  53
ENDBRANCH  51  52
ENDBRANCH  42  51
ENDBRANCH  41  42
ENDBRANCH  40  41
ENDBRANCH  38  40
ENDBRANCH  37  38
ENDBRANCH  36  37
ENDBRANCH  35  36
ENDBRANCH  34  35
ENDBRANCH  33  34
ENDBRANCH  32  33
ENDBRANCH  31  32
ENDBRANCH   1  31
TORSDOF 53
