REMARK WARNING: 32 MAX_TORS EXCEEDED!!!
REMARK  34 active torsions:
REMARK  status: ('A' for Active; 'I' for Inactive)
REMARK    1  A    between atoms: C_2  and  C_3 
REMARK    2  A    between atoms: C_3  and  C_4 
REMARK    3  A    between atoms: C_4  and  C_5 
REMARK    4  A    between atoms: C_5  and  C_6 
REMARK    5  A    between atoms: C_6  and  C_7 
REMARK    6  A    between atoms: C_7  and  C_8 
REMARK    7  A    between atoms: C_8  and  C_9 
REMARK    8  A    between atoms: C_9  and  C_10 
REMARK    9  A    between atoms: C_10  and  C_11 
REMARK   10  A    between atoms: C_11  and  C_12 
REMARK   11  A    between atoms: C_11  and  C_20 
REMARK   12  A    between atoms: C_12  and  C_13 
REMARK   13  A    between atoms: C_13  and  C_14 
REMARK   14  A    between atoms: C_14  and  C_15 
REMARK   15  A    between atoms: C_15  and  C_16 
REMARK   16  A    between atoms: C_16  and  C_17 
REMARK   17  A    between atoms: C_17  and  C_18 
REMARK   18  A    between atoms: C_20  and  O_21 
REMARK   19  A    between atoms: O_21  and  C_22 
REMARK   20  A    between atoms: C_22  and  C_24 
REMARK   21  A    between atoms: C_24  and  C_25 
REMARK   22  A    between atoms: C_25  and  C_26 
REMARK   23  A    between atoms: C_26  and  C_27 
REMARK   24  A    between atoms: C_27  and  C_28 
REMARK   25  A    between atoms: C_28  and  C_29 
REMARK   26  A    between atoms: C_29  and  C_30 
REMARK   27  A    between atoms: C_30  and  C_31 
REMARK   28  A    between atoms: C_32  and  C_33 
REMARK   29  A    between atoms: C_33  and  C_34 
REMARK   30  A    between atoms: C_34  and  C_35 
REMARK   31  A    between atoms: C_35  and  C_36 
REMARK   32  A    between atoms: C_36  and  C_37 
REMARK   33  A    between atoms: C_37  and  C_38 
REMARK   34  A    between atoms: C_38  and  C_39 
ROOT
HETATM    1  C   UNL     1      12.745  -1.545   7.081  1.00  0.00     0.183 C 
ENDROOT
BRANCH   1   2
HETATM    2  C   UNL     1      11.212  -1.598   7.038  1.00  0.00     0.010 C 
BRANCH   2   3
HETATM    3  C   UNL     1      10.758  -1.188   5.606  1.00  0.00     0.007 C 
BRANCH   3   4
HETATM    4  C   UNL     1       9.246  -1.163   5.422  1.00  0.00     0.000 C 
BRANCH   4   5
HETATM    5  C   UNL     1       8.740  -0.741   4.051  1.00  0.00     0.000 C 
BRANCH   5   6
HETATM    6  C   UNL     1       7.209  -0.768   4.119  1.00  0.00     0.000 C 
BRANCH   6   7
HETATM    7  C   UNL     1       6.614  -0.380   2.785  1.00  0.00     0.000 C 
BRANCH   7   8
HETATM    8  C   UNL     1       5.095  -0.400   2.841  1.00  0.00     0.000 C 
BRANCH   8   9
HETATM    9  C   UNL     1       4.547  -0.005   1.479  1.00  0.00     0.000 C 
BRANCH   9  10
HETATM   10  C   UNL     1       3.027  -0.009   1.481  1.00  0.00    -0.000 C 
BRANCH  10  11
HETATM   11  C   UNL     1       2.496   0.389   0.109  1.00  0.00    -0.005 C 
HETATM   12  C   UNL     1       0.979   0.389   0.104  1.00  0.00     0.005 C 
ENDBRANCH  10  11
ENDBRANCH   9  10
ENDBRANCH   8   9
ENDBRANCH   7   8
ENDBRANCH   6   7
ENDBRANCH   5   6
ENDBRANCH   4   5
ENDBRANCH   3   4
ENDBRANCH   2   3
BRANCH   2  13
HETATM   13  C   UNL     1      10.734  -3.000   7.504  1.00  0.00     0.007 C 
BRANCH  13  14
HETATM   14  C   UNL     1      11.172  -3.349   8.933  1.00  0.00     0.000 C 
BRANCH  14  15
HETATM   15  C   UNL     1      10.780  -4.735   9.421  1.00  0.00     0.000 C 
BRANCH  15  16
HETATM   16  C   UNL     1      11.350  -5.782   8.485  1.00  0.00     0.000 C 
BRANCH  16  17
HETATM   17  C   UNL     1      10.957  -7.166   8.943  1.00  0.00     0.000 C 
BRANCH  17  18
HETATM   18  C   UNL     1      11.524  -8.218   8.009  1.00  0.00    -0.000 C 
BRANCH  18  19
HETATM   19  C   UNL     1      11.112  -9.598   8.492  1.00  0.00    -0.005 C 
HETATM   20  C   UNL     1      11.653 -10.683   7.585  1.00  0.00     0.005 C 
ENDBRANCH  18  19
ENDBRANCH  17  18
ENDBRANCH  16  17
ENDBRANCH  15  16
ENDBRANCH  14  15
ENDBRANCH  13  14
ENDBRANCH   2  13
ENDBRANCH   1   2
BRANCH   1  21
HETATM   21  O   UNL     1      13.257  -0.245   6.773  1.00  0.00    -0.321 OA
BRANCH  21  22
HETATM   22  C   UNL     1      13.939   0.333   7.786  1.00  0.00     0.258 C 
HETATM   23  O   UNL     1      13.802   0.053   8.991  1.00  0.00    -0.265 OA
BRANCH  22  24
HETATM   24  C   UNL     1      14.959   1.292   7.256  1.00  0.00     0.111 C 
BRANCH  24  25
HETATM   25  C   UNL     1      15.780   1.899   8.394  1.00  0.00     0.010 C 
BRANCH  25  26
HETATM   26  C   UNL     1      16.816   2.902   7.898  1.00  0.00     0.000 C 
BRANCH  26  27
HETATM   27  C   UNL     1      16.141   4.057   7.163  1.00  0.00     0.000 C 
BRANCH  27  28
HETATM   28  C   UNL     1      17.161   5.066   6.660  1.00  0.00     0.000 C 
BRANCH  28  29
HETATM   29  C   UNL     1      16.462   6.203   5.923  1.00  0.00     0.004 C 
BRANCH  29  30
HETATM   30  C   UNL     1      17.481   7.217   5.417  1.00  0.00     0.027 C 
BRANCH  30  31
HETATM   31  C   UNL     1      16.807   8.337   4.697  1.00  0.00    -0.031 C 
HETATM   32  C   UNL     1      16.911   9.610   5.101  1.00  0.00    -0.031 C 
BRANCH  32  33
HETATM   33  C   UNL     1      16.238  10.732   4.380  1.00  0.00     0.027 C 
BRANCH  33  34
HETATM   34  C   UNL     1      17.263  11.740   3.879  1.00  0.00     0.004 C 
BRANCH  34  35
HETATM   35  C   UNL     1      16.573  12.884   3.146  1.00  0.00     0.000 C 
BRANCH  35  36
HETATM   36  C   UNL     1      17.600  13.891   2.645  1.00  0.00     0.000 C 
BRANCH  36  37
HETATM   37  C   UNL     1      16.916  15.039   1.913  1.00  0.00     0.000 C 
BRANCH  37  38
HETATM   38  C   UNL     1      17.947  16.045   1.413  1.00  0.00    -0.000 C 
BRANCH  38  39
HETATM   39  C   UNL     1      17.273  17.200   0.679  1.00  0.00    -0.005 C 
HETATM   40  C   UNL     1      18.300  18.202   0.183  1.00  0.00     0.005 C 
ENDBRANCH  38  39
ENDBRANCH  37  38
ENDBRANCH  36  37
ENDBRANCH  35  36
ENDBRANCH  34  35
ENDBRANCH  33  34
ENDBRANCH  32  33
ENDBRANCH  30  31
ENDBRANCH  29  30
ENDBRANCH  28  29
ENDBRANCH  27  28
ENDBRANCH  26  27
ENDBRANCH  25  26
ENDBRANCH  24  25
ENDBRANCH  22  24
ENDBRANCH  21  22
ENDBRANCH   1  21
TORSDOF 34
