REMARK  18 active torsions:
REMARK  status: ('A' for Active; 'I' for Inactive)
REMARK    1  A    between atoms: C_2  and  C_3 
REMARK    2  A    between atoms: C_3  and  C_4 
REMARK    3  A    between atoms: C_4  and  C_5 
REMARK    4  A    between atoms: C_5  and  C_6 
REMARK    5  A    between atoms: C_6  and  C_7 
REMARK    6  A    between atoms: C_7  and  C_8 
REMARK    7  A    between atoms: C_8  and  C_9 
REMARK    8  A    between atoms: C_9  and  C_10 
REMARK    9  A    between atoms: C_10  and  C_11 
REMARK   10  A    between atoms: C_11  and  C_12 
REMARK   11  A    between atoms: C_11  and  C_20 
REMARK   12  A    between atoms: C_12  and  C_13 
REMARK   13  A    between atoms: C_13  and  C_14 
REMARK   14  A    between atoms: C_14  and  C_15 
REMARK   15  A    between atoms: C_15  and  C_16 
REMARK   16  A    between atoms: C_16  and  C_17 
REMARK   17  A    between atoms: C_17  and  C_18 
REMARK   18  A    between atoms: C_20  and  O_21 
ROOT
HETATM    1  C   UNL     1      11.243  -3.551  -6.293  1.00  0.00     0.009 C 
ENDROOT
BRANCH   1   2
HETATM    2  C   UNL     1      10.704  -2.834  -5.027  1.00  0.00     0.007 C 
BRANCH   2   3
HETATM    3  C   UNL     1       9.176  -2.772  -4.965  1.00  0.00     0.000 C 
BRANCH   3   4
HETATM    4  C   UNL     1       8.673  -2.167  -3.653  1.00  0.00     0.000 C 
BRANCH   4   5
HETATM    5  C   UNL     1       7.144  -2.164  -3.638  1.00  0.00     0.000 C 
BRANCH   5   6
HETATM    6  C   UNL     1       6.576  -1.527  -2.372  1.00  0.00     0.000 C 
BRANCH   6   7
HETATM    7  C   UNL     1       5.046  -1.546  -2.407  1.00  0.00     0.000 C 
BRANCH   7   8
HETATM    8  C   UNL     1       4.451  -0.902  -1.157  1.00  0.00     0.000 C 
BRANCH   8   9
HETATM    9  C   UNL     1       2.923  -0.926  -1.199  1.00  0.00    -0.000 C 
BRANCH   9  10
HETATM   10  C   UNL     1       2.330  -0.278   0.052  1.00  0.00    -0.005 C 
HETATM   11  C   UNL     1       0.811  -0.292   0.021  1.00  0.00     0.005 C 
ENDBRANCH   9  10
ENDBRANCH   8   9
ENDBRANCH   7   8
ENDBRANCH   6   7
ENDBRANCH   5   6
ENDBRANCH   4   5
ENDBRANCH   3   4
ENDBRANCH   2   3
ENDBRANCH   1   2
BRANCH   1  12
HETATM   12  C   UNL     1      10.809  -2.827  -7.589  1.00  0.00     0.007 C 
BRANCH  12  13
HETATM   13  C   UNL     1      11.218  -3.506  -8.905  1.00  0.00     0.000 C 
BRANCH  13  14
HETATM   14  C   UNL     1      10.688  -4.931  -9.097  1.00  0.00     0.000 C 
BRANCH  14  15
HETATM   15  C   UNL     1       9.161  -4.989  -9.136  1.00  0.00     0.000 C 
BRANCH  15  16
HETATM   16  C   UNL     1       8.645  -6.412  -9.357  1.00  0.00     0.000 C 
BRANCH  16  17
HETATM   17  C   UNL     1       7.115  -6.427  -9.385  1.00  0.00    -0.000 C 
BRANCH  17  18
HETATM   18  C   UNL     1       6.570  -7.839  -9.582  1.00  0.00    -0.005 C 
HETATM   19  C   UNL     1       5.050  -7.844  -9.614  1.00  0.00     0.005 C 
ENDBRANCH  17  18
ENDBRANCH  16  17
ENDBRANCH  15  16
ENDBRANCH  14  15
ENDBRANCH  13  14
ENDBRANCH  12  13
ENDBRANCH   1  12
BRANCH   1  20
HETATM   20  C   UNL     1      12.776  -3.674  -6.222  1.00  0.00     0.168 C 
BRANCH  20  21
HETATM   21  O   UNL     1      13.181  -4.475  -5.118  1.00  0.00    -0.400 OA
HETATM   22  H   UNL     1      13.057  -3.952  -4.309  1.00  0.00     0.209 HD
ENDBRANCH  20  21
ENDBRANCH   1  20
TORSDOF 18
