REMARK  21 active torsions:
REMARK  status: ('A' for Active; 'I' for Inactive)
REMARK    1  A    between atoms: C_2  and  C_3 
REMARK    2  A    between atoms: C_3  and  C_4 
REMARK    3  A    between atoms: C_4  and  C_5 
REMARK    4  A    between atoms: C_5  and  C_6 
REMARK    5  A    between atoms: C_6  and  C_7 
REMARK    6  A    between atoms: C_7  and  C_8 
REMARK    7  A    between atoms: C_8  and  C_9 
REMARK    8  A    between atoms: C_10  and  C_11 
REMARK    9  A    between atoms: C_11  and  C_12 
REMARK   10  A    between atoms: C_12  and  C_13 
REMARK   11  A    between atoms: C_13  and  C_14 
REMARK   12  A    between atoms: C_14  and  C_15 
REMARK   13  A    between atoms: C_15  and  C_16 
REMARK   14  A    between atoms: C_16  and  C_17 
REMARK   15  A    between atoms: C_17  and  C_18 
REMARK       I    between atoms: C_18  and  N_20 
REMARK   16  A    between atoms: N_20  and  C_21 
REMARK   17  A    between atoms: C_21  and  C_22 
REMARK   18  A    between atoms: C_22  and  C_23 
REMARK   19  A    between atoms: C_23  and  N_24 
REMARK   20  A    between atoms: N_24  and  C_27 
REMARK   21  A    between atoms: C_27  and  C_28 
ROOT
HETATM    1  C   UNL     1      16.456   9.890   3.152  1.00  0.00     0.009 C 
ENDROOT
BRANCH   1   2
HETATM    2  C   UNL     1      14.941   9.886   3.153  1.00  0.00     0.000 C 
BRANCH   2   3
HETATM    3  C   UNL     1      14.428   8.516   2.715  1.00  0.00     0.000 C 
BRANCH   3   4
HETATM    4  C   UNL     1      12.912   8.494   2.709  1.00  0.00     0.000 C 
BRANCH   4   5
HETATM    5  C   UNL     1      12.396   7.128   2.273  1.00  0.00     0.004 C 
BRANCH   5   6
HETATM    6  C   UNL     1      10.872   7.116   2.268  1.00  0.00     0.027 C 
BRANCH   6   7
HETATM    7  C   UNL     1      10.360   5.781   1.849  1.00  0.00    -0.031 C 
HETATM    8  C   UNL     1       9.586   5.028   2.638  1.00  0.00    -0.031 C 
BRANCH   8   9
HETATM    9  C   UNL     1       9.072   3.693   2.217  1.00  0.00     0.027 C 
BRANCH   9  10
HETATM   10  C   UNL     1       7.550   3.687   2.211  1.00  0.00     0.004 C 
BRANCH  10  11
HETATM   11  C   UNL     1       7.035   2.322   1.777  1.00  0.00     0.000 C 
BRANCH  11  12
HETATM   12  C   UNL     1       5.514   2.312   1.768  1.00  0.00     0.000 C 
BRANCH  12  13
HETATM   13  C   UNL     1       4.996   0.947   1.337  1.00  0.00     0.000 C 
BRANCH  13  14
HETATM   14  C   UNL     1       3.474   0.938   1.329  1.00  0.00    -0.000 C 
BRANCH  14  15
HETATM   15  C   UNL     1       2.945  -0.424   0.898  1.00  0.00    -0.005 C 
HETATM   16  C   UNL     1       1.428  -0.431   0.893  1.00  0.00     0.005 C 
ENDBRANCH  14  15
ENDBRANCH  13  14
ENDBRANCH  12  13
ENDBRANCH  11  12
ENDBRANCH  10  11
ENDBRANCH   9  10
ENDBRANCH   8   9
ENDBRANCH   6   7
ENDBRANCH   5   6
ENDBRANCH   4   5
ENDBRANCH   3   4
ENDBRANCH   2   3
ENDBRANCH   1   2
BRANCH   1  17
HETATM   17  C   UNL     1      17.025  11.238   3.586  1.00  0.00     0.103 C 
BRANCH  17  18
HETATM   18  C   UNL     1      18.526  11.147   3.604  1.00  0.00     0.217 C 
HETATM   19  O   UNL     1      19.124  10.115   3.307  1.00  0.00    -0.274 OA
HETATM   20  N   UNL     1      19.156  12.316   3.971  1.00  0.00    -0.361 N 
HETATM   21  H   UNL     1      18.618  13.167   4.127  1.00  0.00     0.162 HD
BRANCH  20  22
HETATM   22  C   UNL     1      20.600  12.373   3.985  1.00  0.00     0.124 C 
BRANCH  22  23
HETATM   23  C   UNL     1      21.204  12.086   2.619  1.00  0.00     0.048 C 
BRANCH  23  24
HETATM   24  C   UNL     1      20.769  13.090   1.539  1.00  0.00     0.238 C 
BRANCH  24  25
HETATM   25  N   UNL     1      21.381  12.727   0.194  1.00  0.00    -0.065 N 
HETATM   26  C   UNL     1      22.905  12.715   0.276  1.00  0.00     0.272 C 
HETATM   27  C   UNL     1      20.811  11.407  -0.295  1.00  0.00     0.272 C 
BRANCH  25  28
HETATM   28  C   UNL     1      20.978  13.842  -0.901  1.00  0.00     0.349 C 
BRANCH  28  29
HETATM   29  C   UNL     1      19.501  14.153  -1.312  1.00  0.00     0.199 C 
HETATM   30  O   UNL     1      18.617  14.035  -0.410  1.00  0.00    -0.647 OA
HETATM   31  O   UNL     1      19.362  14.552  -2.508  1.00  0.00    -0.647 OA
ENDBRANCH  28  29
ENDBRANCH  25  28
ENDBRANCH  24  25
ENDBRANCH  23  24
ENDBRANCH  22  23
ENDBRANCH  20  22
ENDBRANCH  17  18
ENDBRANCH   1  17
TORSDOF 21
