REMARK  4 active torsions:
REMARK  status: ('A' for Active; 'I' for Inactive)
REMARK    1  A    between atoms: C_4  and  O_7 
REMARK    2  A    between atoms: O_7  and  C_8 
REMARK    3  A    between atoms: C_8  and  C_9 
REMARK    4  A    between atoms: C_9  and  O_10 
ROOT
HETATM    1  C   UNL     1       1.366  -0.182   0.026  1.00  0.00     0.000 A 
HETATM    2  C   UNL     1       0.514  -1.284   0.013  1.00  0.00     0.003 A 
HETATM    3  C   UNL     1      -0.872  -1.103  -0.012  1.00  0.00     0.037 A 
HETATM    4  C   UNL     1      -1.412   0.185  -0.026  1.00  0.00     0.068 A 
HETATM    5  C   UNL     1      -0.549   1.286  -0.033  1.00  0.00     0.037 A 
HETATM    6  C   UNL     1       0.834   1.106   0.002  1.00  0.00     0.003 A 
ENDROOT
BRANCH   4   7
HETATM    7  O   UNL     1      -2.745   0.487  -0.080  1.00  0.00    -0.349 OA
BRANCH   7   8
HETATM    8  C   UNL     1      -3.631  -0.496   0.472  1.00  0.00     0.201 C 
BRANCH   8   9
HETATM    9  C   UNL     1      -5.056   0.043   0.369  1.00  0.00     0.190 C 
BRANCH   9  10
HETATM   10  O   UNL     1      -5.429   0.202  -0.999  1.00  0.00    -0.399 OA
HETATM   11  H   UNL     1      -4.742   0.768  -1.401  1.00  0.00     0.209 HD
ENDBRANCH   9  10
ENDBRANCH   8   9
ENDBRANCH   7   8
ENDBRANCH   4   7
TORSDOF 4
