REMARK  5 active torsions:
REMARK  status: ('A' for Active; 'I' for Inactive)
REMARK    1  A    between atoms: CG_4  and  CB_7 
REMARK    2  A    between atoms: CB_7  and  CA_8 
REMARK    3  A    between atoms: CA_8  and  C_9 
REMARK    4  A    between atoms: CA_8  and  N_12 
REMARK    5  A    between atoms: C_9  and  OXT_11 
ROOT
ATOM      1  CA  PHE A   1      -3.579  -0.944  -0.161  1.00  0.00     0.318 C 
ENDROOT
BRANCH   1   2
ATOM      2  CB  PHE A   1      -2.753   0.352  -0.175  1.00  0.00     0.085 C 
BRANCH   2   3
ATOM      3  CG  PHE A   1      -1.256   0.148  -0.208  1.00  0.00    -0.056 A 
ATOM      4  CD1 PHE A   1      -0.637  -0.539  -1.264  1.00  0.00     0.007 A 
ATOM      5  CE1 PHE A   1       0.736  -0.788  -1.232  1.00  0.00     0.001 A 
ATOM      6  CZ  PHE A   1       1.506  -0.331  -0.164  1.00  0.00     0.000 A 
ATOM      7  CE2 PHE A   1       0.907   0.386   0.869  1.00  0.00     0.001 A 
ATOM      8  CD2 PHE A   1      -0.467   0.624   0.848  1.00  0.00     0.007 A 
ENDBRANCH   2   3
ENDBRANCH   1   2
BRANCH   1   9
ATOM      9  C   PHE A   1      -3.370  -1.797   1.110  1.00  0.00     0.174 C 
ATOM     10  O   PHE A   1      -4.254  -1.996   1.938  1.00  0.00    -0.648 OA
BRANCH   9  11
ATOM     11  OXT PHE A   1      -2.159  -2.382   1.223  1.00  0.00    -0.775 OA
ATOM     12  HXT PHE A   1      -1.514  -2.154   0.529  1.00  0.00     0.167 HD
ENDBRANCH   9  11
ENDBRANCH   1   9
BRANCH   1  13
ATOM     13  N   PHE A   1      -5.020  -0.573  -0.258  1.00  0.00     0.093 N 
ATOM     14  H1  PHE A   1      -5.277  -0.105   0.617  1.00  0.00     0.314 HD
ATOM     15  H2  PHE A   1      -5.566  -1.440  -0.212  1.00  0.00     0.314 HD
ENDBRANCH   1  13
TORSDOF 5
