REMARK  7 active torsions:
REMARK  status: ('A' for Active; 'I' for Inactive)
REMARK    1  A    between atoms: C_2  and  C_3 
REMARK    2  A    between atoms: C_3  and  C_4 
REMARK    3  A    between atoms: C_3  and  C_28 
REMARK    4  A    between atoms: C_4  and  C_5 
REMARK    5  A    between atoms: C_5  and  C_6 
REMARK    6  A    between atoms: C_6  and  C_8 
REMARK    7  A    between atoms: C_23  and  O_25 
ROOT
HETATM    1  C   UNL     1      -1.046   1.136   3.672  1.00  0.00    -0.002 C 
HETATM    2  C   UNL     1       0.138   1.977   3.126  1.00  0.00     0.006 C 
HETATM    3  C   UNL     1       1.172   0.932   2.641  1.00  0.00     0.006 C 
HETATM    4  C   UNL     1       0.458  -0.431   2.703  1.00  0.00    -0.001 C 
HETATM    5  C   UNL     1      -0.355  -0.254   4.048  1.00  0.00    -0.036 C 
HETATM    6  C   UNL     1      -0.907  -1.686   4.239  1.00  0.00     0.010 C 
HETATM    7  C   UNL     1      -1.891  -2.282   3.225  1.00  0.00     0.007 C 
HETATM    8  C   UNL     1      -1.675  -1.896   1.742  1.00  0.00     0.003 C 
HETATM    9  C   UNL     1      -0.610  -0.760   1.555  1.00  0.00    -0.001 C 
HETATM   10  C   UNL     1      -0.319  -0.398   0.111  1.00  0.00     0.033 C 
HETATM   11  C   UNL     1      -1.636   0.011  -0.523  1.00  0.00    -0.023 C 
HETATM   12  C   UNL     1      -2.851  -0.395  -0.093  1.00  0.00    -0.072 C 
HETATM   13  C   UNL     1      -3.076  -1.469   1.006  1.00  0.00    -0.017 C 
HETATM   14  C   UNL     1      -3.714  -2.661   0.225  1.00  0.00     0.016 C 
HETATM   15  C   UNL     1      -5.012  -2.241  -0.516  1.00  0.00     0.033 C 
HETATM   16  C   UNL     1      -4.747  -1.099  -1.505  1.00  0.00     0.122 C 
HETATM   17  C   UNL     1      -4.093   0.093  -0.807  1.00  0.00     0.066 C 
HETATM   18  C   UNL     1      -4.159  -1.025   2.054  1.00  0.00     0.020 C 
HETATM   19  C   UNL     1       0.430   0.012   5.360  1.00  0.00     0.016 C 
ENDROOT
BRANCH   1  20
HETATM   20  C   UNL     1      -2.267   1.834   4.275  1.00  0.00    -0.014 C 
HETATM   21  C   UNL     1      -2.959   2.702   3.163  1.00  0.00     0.010 C 
BRANCH  20  22
HETATM   22  C   UNL     1      -2.006   2.695   5.497  1.00  0.00     0.005 C 
BRANCH  22  23
HETATM   23  C   UNL     1      -3.330   3.280   6.023  1.00  0.00     0.005 C 
BRANCH  23  24
HETATM   24  C   UNL     1      -3.215   4.034   7.357  1.00  0.00    -0.012 C 
BRANCH  24  25
HETATM   25  C   UNL     1      -2.376   5.328   7.211  1.00  0.00     0.000 C 
HETATM   26  C   UNL     1      -2.857   6.304   6.136  1.00  0.00     0.005 C 
ENDBRANCH  24  25
BRANCH  24  27
HETATM   27  C   UNL     1      -2.687   3.109   8.496  1.00  0.00    -0.019 C 
HETATM   28  C   UNL     1      -2.703   3.805   9.858  1.00  0.00     0.010 C 
HETATM   29  C   UNL     1      -3.484   1.800   8.612  1.00  0.00     0.010 C 
ENDBRANCH  24  27
ENDBRANCH  23  24
ENDBRANCH  22  23
ENDBRANCH  20  22
ENDBRANCH   1  20
BRANCH  16  30
HETATM   30  O   UNL     1      -5.955  -0.700  -2.145  1.00  0.00    -0.395 OA
HETATM   31  H   UNL     1      -6.539  -0.305  -1.476  1.00  0.00     0.210 HD
ENDBRANCH  16  30
TORSDOF 7
