REMARK  24 active torsions:
REMARK  status: ('A' for Active; 'I' for Inactive)
REMARK    1  A    between atoms: C_1  and  O_32 
REMARK    2  A    between atoms: C_2  and  O_27 
REMARK    3  A    between atoms: C_3  and  O_22 
REMARK    4  A    between atoms: C_4  and  O_17 
REMARK    5  A    between atoms: C_5  and  O_12 
REMARK    6  A    between atoms: C_6  and  O_7 
REMARK    7  A    between atoms: O_7  and  P_8 
REMARK    8  A    between atoms: P_8  and  O_10 
REMARK    9  A    between atoms: P_8  and  O_11 
REMARK   10  A    between atoms: O_12  and  P_13 
REMARK   11  A    between atoms: P_13  and  O_15 
REMARK   12  A    between atoms: P_13  and  O_16 
REMARK   13  A    between atoms: O_17  and  P_18 
REMARK   14  A    between atoms: P_18  and  O_20 
REMARK   15  A    between atoms: P_18  and  O_21 
REMARK   16  A    between atoms: O_22  and  P_23 
REMARK   17  A    between atoms: P_23  and  O_25 
REMARK   18  A    between atoms: P_23  and  O_26 
REMARK   19  A    between atoms: O_27  and  P_28 
REMARK   20  A    between atoms: P_28  and  O_30 
REMARK   21  A    between atoms: P_28  and  O_31 
REMARK   22  A    between atoms: O_32  and  P_33 
REMARK   23  A    between atoms: P_33  and  O_35 
REMARK   24  A    between atoms: P_33  and  O_36 
ROOT
HETATM    1  C   UNL     1      -1.400   0.314  -0.262  1.00  0.00     0.198 C 
HETATM    2  C   UNL     1      -1.046  -1.139   0.166  1.00  0.00     0.198 C 
HETATM    3  C   UNL     1       0.403  -1.480  -0.277  1.00  0.00     0.198 C 
HETATM    4  C   UNL     1       1.378  -0.521   0.423  1.00  0.00     0.198 C 
HETATM    5  C   UNL     1       1.130   0.922  -0.105  1.00  0.00     0.198 C 
HETATM    6  C   UNL     1      -0.325   1.327   0.225  1.00  0.00     0.198 C 
ENDROOT
BRANCH   1   7
HETATM    7  O   UNL     1      -2.644   0.708   0.321  1.00  0.00    -0.286 OA
BRANCH   7   8
HETATM    8  P   UNL     1      -3.641   1.658  -0.492  1.00  0.00     0.391 P 
HETATM    9  O   UNL     1      -4.376   1.067  -1.649  1.00  0.00    -0.632 OA
BRANCH   8  10
HETATM   10  O   UNL     1      -4.538   2.346   0.633  1.00  0.00    -0.307 OA
HETATM   11  H   UNL     1      -3.987   2.856   1.262  1.00  0.00     0.222 HD
ENDBRANCH   8  10
BRANCH   8  12
HETATM   12  O   UNL     1      -2.785   2.934  -0.936  1.00  0.00    -0.307 OA
HETATM   13  H   UNL     1      -3.340   3.504  -1.504  1.00  0.00     0.222 HD
ENDBRANCH   8  12
ENDBRANCH   7   8
ENDBRANCH   1   7
BRANCH   2  14
HETATM   14  O   UNL     1      -1.841  -2.117  -0.493  1.00  0.00    -0.286 OA
BRANCH  14  15
HETATM   15  P   UNL     1      -3.191  -2.754   0.061  1.00  0.00     0.391 P 
HETATM   16  O   UNL     1      -3.520  -4.105  -0.474  1.00  0.00    -0.632 OA
BRANCH  15  17
HETATM   17  O   UNL     1      -3.145  -2.751   1.658  1.00  0.00    -0.307 OA
HETATM   18  H   UNL     1      -3.808  -3.383   2.000  1.00  0.00     0.222 HD
ENDBRANCH  15  17
BRANCH  15  19
HETATM   19  O   UNL     1      -4.320  -1.691  -0.286  1.00  0.00    -0.307 OA
HETATM   20  H   UNL     1      -4.696  -1.863  -1.172  1.00  0.00     0.222 HD
ENDBRANCH  15  19
ENDBRANCH  14  15
ENDBRANCH   2  14
BRANCH   6  21
HETATM   21  O   UNL     1      -0.436   1.444   1.650  1.00  0.00    -0.286 OA
BRANCH  21  22
HETATM   22  P   UNL     1       0.545   2.699   2.325  1.00  0.00     0.391 P 
HETATM   23  O   UNL     1      -0.676   3.563   2.619  1.00  0.00    -0.632 OA
BRANCH  22  24
HETATM   24  O   UNL     1       0.830   1.814   3.653  1.00  0.00    -0.307 OA
HETATM   25  H   UNL     1       1.716   1.415   3.680  1.00  0.00     0.222 HD
ENDBRANCH  22  24
BRANCH  22  26
HETATM   26  O   UNL     1       1.526   3.953   3.000  1.00  0.00    -0.307 OA
HETATM   27  H   UNL     1       0.933   4.338   3.680  1.00  0.00     0.222 HD
ENDBRANCH  22  26
ENDBRANCH  21  22
ENDBRANCH   6  21
BRANCH   3  28
HETATM   28  O   UNL     1       0.482  -1.300  -1.694  1.00  0.00    -0.286 OA
BRANCH  28  29
HETATM   29  P   UNL     1       1.458  -2.138  -2.620  1.00  0.00     0.391 P 
HETATM   30  O   UNL     1       1.236  -3.605  -2.660  1.00  0.00    -0.632 OA
BRANCH  29  31
HETATM   31  O   UNL     1       1.356  -1.367  -4.024  1.00  0.00    -0.307 OA
HETATM   32  H   UNL     1       1.512  -0.413  -3.883  1.00  0.00     0.222 HD
ENDBRANCH  29  31
BRANCH  29  33
HETATM   33  O   UNL     1       2.954  -1.768  -2.214  1.00  0.00    -0.307 OA
HETATM   34  H   UNL     1       3.576  -2.488  -2.447  1.00  0.00     0.222 HD
ENDBRANCH  29  33
ENDBRANCH  28  29
ENDBRANCH   3  28
BRANCH   5  35
HETATM   35  O   UNL     1       1.456   1.022  -1.485  1.00  0.00    -0.286 OA
BRANCH  35  36
HETATM   36  P   UNL     1       1.206   2.375  -2.289  1.00  0.00     0.391 P 
HETATM   37  O   UNL     1       1.084   3.614  -1.478  1.00  0.00    -0.632 OA
BRANCH  36  38
HETATM   38  O   UNL     1       2.407   2.365  -3.333  1.00  0.00    -0.307 OA
HETATM   39  H   UNL     1       3.250   2.625  -2.915  1.00  0.00     0.222 HD
ENDBRANCH  36  38
BRANCH  36  40
HETATM   40  O   UNL     1      -0.033   2.008  -3.218  1.00  0.00    -0.307 OA
HETATM   41  H   UNL     1      -0.262   2.725  -3.840  1.00  0.00     0.222 HD
ENDBRANCH  36  40
ENDBRANCH  35  36
ENDBRANCH   5  35
BRANCH   4  42
HETATM   42  O   UNL     1       2.728  -0.872   0.200  1.00  0.00    -0.286 OA
BRANCH  42  43
HETATM   43  P   UNL     1       3.431  -2.121   0.911  1.00  0.00     0.391 P 
HETATM   44  O   UNL     1       4.460  -2.866   0.135  1.00  0.00    -0.632 OA
BRANCH  43  45
HETATM   45  O   UNL     1       3.901  -1.582   2.335  1.00  0.00    -0.307 OA
HETATM   46  H   UNL     1       3.159  -1.514   2.957  1.00  0.00     0.222 HD
ENDBRANCH  43  45
BRANCH  43  47
HETATM   47  O   UNL     1       2.256  -3.096   1.376  1.00  0.00    -0.307 OA
HETATM   48  H   UNL     1       2.390  -3.986   0.984  1.00  0.00     0.222 HD
ENDBRANCH  43  47
ENDBRANCH  42  43
ENDBRANCH   4  42
TORSDOF 24
