REMARK  13 active torsions:
REMARK  status: ('A' for Active; 'I' for Inactive)
REMARK    1  A    between atoms: C_2  and  C_3 
REMARK    2  A    between atoms: C_3  and  C_4 
REMARK    3  A    between atoms: C_4  and  O_5 
REMARK    4  A    between atoms: O_5  and  C_6 
REMARK    5  A    between atoms: C_6  and  C_7 
REMARK    6  A    between atoms: C_7  and  O_8 
REMARK    7  A    between atoms: O_8  and  C_9 
REMARK    8  A    between atoms: C_9  and  C_10 
REMARK    9  A    between atoms: C_10  and  O_12 
REMARK   10  A    between atoms: O_12  and  C_13 
REMARK   11  A    between atoms: C_13  and  C_14 
REMARK   12  A    between atoms: C_14  and  C_15 
REMARK   13  A    between atoms: C_15  and  O_16 
ROOT
HETATM    1  C   UNL     1       8.846  -4.323  -3.397  1.00  0.00     0.199 C 
ENDROOT
BRANCH   1   2
HETATM    2  O   UNL     1       8.363  -3.238  -2.611  1.00  0.00    -0.387 OA
BRANCH   2   3
HETATM    3  C   UNL     1       6.941  -3.157  -2.688  1.00  0.00     0.193 C 
BRANCH   3   4
HETATM    4  C   UNL     1       6.475  -1.967  -1.868  1.00  0.00     0.193 C 
BRANCH   4   5
HETATM    5  O   UNL     1       5.053  -1.888  -1.922  1.00  0.00    -0.389 OA
BRANCH   5   6
HETATM    6  C   UNL     1       4.577  -0.790  -1.150  1.00  0.00     0.167 C 
BRANCH   6   7
HETATM    7  C   UNL     1       3.058  -0.766  -1.237  1.00  0.00     0.026 C 
BRANCH   7   8
HETATM    8  C   UNL     1       2.483   0.392  -0.429  1.00  0.00    -0.002 C 
HETATM    9  C   UNL     1       0.967   0.427  -0.508  1.00  0.00     0.005 C 
ENDBRANCH   7   8
ENDBRANCH   6   7
ENDBRANCH   5   6
ENDBRANCH   4   5
ENDBRANCH   3   4
ENDBRANCH   2   3
ENDBRANCH   1   2
BRANCH   1  10
HETATM   10  C   UNL     1      10.382  -4.359  -3.392  1.00  0.00     0.141 C 
HETATM   11  C   UNL     1      10.913  -4.548  -1.975  1.00  0.00     0.042 C 
BRANCH  10  12
HETATM   12  O   UNL     1      10.882  -5.440  -4.198  1.00  0.00    -0.384 OA
BRANCH  12  13
HETATM   13  C   UNL     1      10.649  -5.235  -5.593  1.00  0.00     0.170 C 
BRANCH  13  14
HETATM   14  C   UNL     1      11.234  -6.389  -6.394  1.00  0.00     0.052 C 
BRANCH  14  15
HETATM   15  C   UNL     1      10.835  -6.275  -7.861  1.00  0.00     0.169 C 
BRANCH  15  16
HETATM   16  O   UNL     1      11.320  -5.038  -8.378  1.00  0.00    -0.396 OA
HETATM   17  C   UNL     1      10.912  -4.825  -9.723  1.00  0.00     0.201 C 
ENDBRANCH  15  16
ENDBRANCH  14  15
ENDBRANCH  13  14
ENDBRANCH  12  13
ENDBRANCH  10  12
ENDBRANCH   1  10
TORSDOF 13
