REMARK  9 active torsions:
REMARK  status: ('A' for Active; 'I' for Inactive)
REMARK    1  A    between atoms: C_2  and  C_3 
REMARK    2  A    between atoms: C_3  and  C_4 
REMARK    3  A    between atoms: C_4  and  O_5 
REMARK    4  A    between atoms: O_5  and  C_6 
REMARK    5  A    between atoms: C_6  and  C_7 
REMARK    6  A    between atoms: C_7  and  O_9 
REMARK    7  A    between atoms: O_9  and  C_10 
REMARK    8  A    between atoms: C_10  and  C_11 
REMARK    9  A    between atoms: C_11  and  O_12 
ROOT
HETATM    1  C   UNL     1       6.980  -3.460   2.361  1.00  0.00     0.141 C 
HETATM    2  C   UNL     1       6.476  -4.786   1.790  1.00  0.00     0.042 C 
ENDROOT
BRANCH   1   3
HETATM    3  C   UNL     1       6.454  -2.277   1.532  1.00  0.00     0.199 C 
BRANCH   3   4
HETATM    4  O   UNL     1       5.029  -2.234   1.538  1.00  0.00    -0.389 OA
BRANCH   4   5
HETATM    5  C   UNL     1       4.558  -1.098   0.813  1.00  0.00     0.167 C 
BRANCH   5   6
HETATM    6  C   UNL     1       3.039  -1.073   0.876  1.00  0.00     0.026 C 
BRANCH   6   7
HETATM    7  C   UNL     1       2.475   0.120   0.116  1.00  0.00    -0.002 C 
HETATM    8  C   UNL     1       0.957   0.144   0.164  1.00  0.00     0.005 C 
ENDBRANCH   6   7
ENDBRANCH   5   6
ENDBRANCH   4   5
ENDBRANCH   3   4
ENDBRANCH   1   3
BRANCH   1   9
HETATM    9  O   UNL     1       8.419  -3.511   2.359  1.00  0.00    -0.382 OA
BRANCH   9  10
HETATM   10  C   UNL     1       9.027  -2.413   3.052  1.00  0.00     0.194 C 
BRANCH  10  11
HETATM   11  C   UNL     1      10.538  -2.599   3.039  1.00  0.00     0.190 C 
BRANCH  11  12
HETATM   12  O   UNL     1      11.002  -2.668   1.689  1.00  0.00    -0.399 OA
HETATM   13  H   UNL     1      10.430  -3.333   1.258  1.00  0.00     0.209 HD
ENDBRANCH  11  12
ENDBRANCH  10  11
ENDBRANCH   9  10
ENDBRANCH   1   9
TORSDOF 9
