REMARK  20 active torsions:
REMARK  status: ('A' for Active; 'I' for Inactive)
REMARK    1  A    between atoms: C_2  and  C_3 
REMARK    2  A    between atoms: C_3  and  C_4 
REMARK    3  A    between atoms: C_4  and  C_5 
REMARK    4  A    between atoms: C_5  and  C_6 
REMARK    5  A    between atoms: C_6  and  C_7 
REMARK    6  A    between atoms: C_7  and  C_8 
REMARK    7  A    between atoms: C_8  and  C_9 
REMARK    8  A    between atoms: C_9  and  C_10 
REMARK    9  A    between atoms: C_10  and  C_11 
REMARK   10  A    between atoms: C_11  and  C_12 
REMARK   11  A    between atoms: C_12  and  C_13 
REMARK   12  A    between atoms: C_13  and  C_14 
REMARK   13  A    between atoms: C_14  and  C_15 
REMARK   14  A    between atoms: C_15  and  C_16 
REMARK   15  A    between atoms: C_16  and  C_17 
REMARK   16  A    between atoms: C_17  and  C_18 
REMARK   17  A    between atoms: C_18  and  O_20 
REMARK   18  A    between atoms: O_20  and  C_21 
REMARK   19  A    between atoms: C_21  and  C_22 
REMARK   20  A    between atoms: C_22  and  O_24 
ROOT
HETATM    1  C   UNL     1      13.243  -7.500   4.083  1.00  0.00     0.000 C 
ENDROOT
BRANCH   1   2
HETATM    2  C   UNL     1      12.731  -6.245   3.397  1.00  0.00     0.000 C 
BRANCH   2   3
HETATM    3  C   UNL     1      11.212  -6.238   3.393  1.00  0.00     0.000 C 
BRANCH   3   4
HETATM    4  C   UNL     1      10.700  -4.985   2.706  1.00  0.00     0.000 C 
BRANCH   4   5
HETATM    5  C   UNL     1       9.182  -4.980   2.701  1.00  0.00     0.000 C 
BRANCH   5   6
HETATM    6  C   UNL     1       8.670  -3.729   2.013  1.00  0.00     0.000 C 
BRANCH   6   7
HETATM    7  C   UNL     1       7.153  -3.724   2.010  1.00  0.00     0.000 C 
BRANCH   7   8
HETATM    8  C   UNL     1       6.641  -2.470   1.323  1.00  0.00     0.000 C 
BRANCH   8   9
HETATM    9  C   UNL     1       5.123  -2.462   1.319  1.00  0.00     0.000 C 
BRANCH   9  10
HETATM   10  C   UNL     1       4.609  -1.208   0.631  1.00  0.00     0.000 C 
BRANCH  10  11
HETATM   11  C   UNL     1       3.090  -1.199   0.626  1.00  0.00    -0.000 C 
BRANCH  11  12
HETATM   12  C   UNL     1       2.565   0.053  -0.061  1.00  0.00    -0.005 C 
HETATM   13  C   UNL     1       1.049   0.061  -0.063  1.00  0.00     0.005 C 
ENDBRANCH  11  12
ENDBRANCH  10  11
ENDBRANCH   9  10
ENDBRANCH   8   9
ENDBRANCH   7   8
ENDBRANCH   6   7
ENDBRANCH   5   6
ENDBRANCH   4   5
ENDBRANCH   3   4
ENDBRANCH   2   3
ENDBRANCH   1   2
BRANCH   1  14
HETATM   14  C   UNL     1      14.764  -7.516   4.091  1.00  0.00     0.000 C 
BRANCH  14  15
HETATM   15  C   UNL     1      15.279  -8.776   4.780  1.00  0.00     0.000 C 
BRANCH  15  16
HETATM   16  C   UNL     1      16.801  -8.784   4.787  1.00  0.00     0.010 C 
BRANCH  16  17
HETATM   17  C   UNL     1      17.370 -10.024   5.468  1.00  0.00     0.111 C 
BRANCH  17  18
HETATM   18  C   UNL     1      18.875  -9.972   5.451  1.00  0.00     0.258 C 
HETATM   19  O   UNL     1      19.534  -9.444   4.553  1.00  0.00    -0.265 OA
BRANCH  18  20
HETATM   20  O   UNL     1      19.400 -10.672   6.492  1.00  0.00    -0.319 OA
BRANCH  20  21
HETATM   21  C   UNL     1      20.709 -11.201   6.229  1.00  0.00     0.210 C 
BRANCH  21  22
HETATM   22  C   UNL     1      21.810 -10.142   6.306  1.00  0.00     0.138 C 
HETATM   23  C   UNL     1      21.870  -9.505   7.683  1.00  0.00     0.041 C 
BRANCH  22  24
HETATM   24  O   UNL     1      23.076 -10.720   5.987  1.00  0.00    -0.394 OA
HETATM   25  H   UNL     1      23.296 -11.375   6.671  1.00  0.00     0.210 HD
ENDBRANCH  22  24
ENDBRANCH  21  22
ENDBRANCH  20  21
ENDBRANCH  18  20
ENDBRANCH  17  18
ENDBRANCH  16  17
ENDBRANCH  15  16
ENDBRANCH  14  15
ENDBRANCH   1  14
TORSDOF 20
