REMARK  0 active torsions:
REMARK  status: ('A' for Active; 'I' for Inactive)
ROOT
HETATM    1  C   UNL     1       1.112  -0.034  -0.022  1.00  0.00     0.042 C 
HETATM    2  C   UNL     1       2.626  -0.087  -0.059  1.00  0.00     0.154 C 
HETATM    3  C   UNL     1       3.202  -1.303   0.602  1.00  0.00     0.213 C 
HETATM    4  O   UNL     1       4.469  -0.847   1.044  1.00  0.00    -0.296 OA
HETATM    5  C   UNL     1       4.376   0.509   1.186  1.00  0.00     0.406 C 
HETATM    6  O   UNL     1       5.238   1.212   1.680  1.00  0.00    -0.229 OA
HETATM    7  O   UNL     1       3.185   0.972   0.700  1.00  0.00    -0.291 OA
ENDROOT
TORSDOF 0
