REMARK  1 active torsions:
REMARK  status: ('A' for Active; 'I' for Inactive)
REMARK    1  A    between atoms: C_2  and  N_3 
ROOT
HETATM    1  N   UNL     1       3.086  -1.106  -0.707  1.00  0.00    -0.329 N 
HETATM    2  C   UNL     1       4.304  -1.707  -0.224  1.00  0.00     0.131 C 
HETATM    3  C   UNL     1       4.852  -2.452  -1.424  1.00  0.00     0.029 C 
HETATM    4  C   UNL     1       3.612  -2.834  -2.213  1.00  0.00     0.105 C 
HETATM    5  C   UNL     1       2.638  -1.731  -1.878  1.00  0.00     0.223 C 
HETATM    6  O   UNL     1       1.615  -1.493  -2.503  1.00  0.00    -0.273 OA
ENDROOT
BRANCH   1   7
HETATM    7  C   UNL     1       2.369  -0.134  -0.052  1.00  0.00     0.083 C 
HETATM    8  C   UNL     1       2.705   0.408   1.122  1.00  0.00     0.030 C 
ENDBRANCH   1   7
TORSDOF 1
