REMARK  2 active torsions:
REMARK  status: ('A' for Active; 'I' for Inactive)
REMARK    1  A    between atoms: C_2  and  C_4 
REMARK    2  A    between atoms: C_4  and  O_6 
ROOT
HETATM    1  C   UNL     1       3.224   0.968   0.902  1.00  0.00     0.213 C 
HETATM    2  O   UNL     1       2.611   1.771   1.574  1.00  0.00    -0.644 OA
ENDROOT
BRANCH   1   3
HETATM    3  C   UNL     1       2.547  -0.081   0.026  1.00  0.00     0.218 C 
HETATM    4  C   UNL     1       1.051  -0.091   0.018  1.00  0.00     0.103 C 
HETATM    5  O   UNL     1       3.269  -0.844  -0.611  1.00  0.00    -0.286 OA
ENDBRANCH   1   3
BRANCH   1   6
HETATM    6  O   UNL     1       4.564   0.865   0.814  1.00  0.00    -0.771 OA
HETATM    7  H   UNL     1       4.792   0.129   0.199  1.00  0.00     0.168 HD
ENDBRANCH   1   6
TORSDOF 2
