REMARK  5 active torsions:
REMARK  status: ('A' for Active; 'I' for Inactive)
REMARK    1  A    between atoms: C_4  and  N_7 
REMARK    2  A    between atoms: N_9  and  C_11 
REMARK    3  A    between atoms: C_14  and  N_17 
REMARK    4  A    between atoms: N_19  and  C_21 
REMARK    5  A    between atoms: C_22  and  O_31 
ROOT
HETATM    1  C   UNL     1      -5.119  -0.202  -0.570  1.00  0.00     0.048 A 
HETATM    2  C   UNL     1      -5.516   0.758  -1.513  1.00  0.00     0.033 A 
HETATM    3  C   UNL     1      -6.877   0.962  -1.833  1.00  0.00     0.033 A 
HETATM    4  C   UNL     1      -7.885   0.206  -1.229  1.00  0.00     0.048 A 
HETATM    5  C   UNL     1      -7.492  -0.768  -0.285  1.00  0.00     0.033 A 
HETATM    6  C   UNL     1      -6.123  -0.956   0.042  1.00  0.00     0.033 A 
ENDROOT
BRANCH   4   7
HETATM    7  N   UNL     1      -9.267   0.314  -1.525  1.00  0.00    -0.300 N 
HETATM    8  N   UNL     1      -9.638   1.447  -1.923  1.00  0.00    -0.297 N 
ATOM      9  HN  UNL     1      -9.013   2.202  -2.206  1.00  0.00     0.187 HD
ATOM     10  HN  UNL     1      -9.912  -0.469  -1.423  1.00  0.00     0.187 HD
BRANCH   8  11
HETATM   11  C   UNL     1     -11.064   1.521  -1.921  1.00  0.00     0.092 C 
HETATM   12  C   UNL     1     -11.766   1.810  -3.110  1.00  0.00     0.094 C 
HETATM   13  C   UNL     1     -13.155   1.877  -3.138  1.00  0.00     0.040 C 
HETATM   14  C   UNL     1     -13.876   1.503  -2.008  1.00  0.00     0.015 C 
HETATM   15  C   UNL     1     -13.215   1.222  -0.808  1.00  0.00    -0.024 C 
HETATM   16  C   UNL     1     -13.954   0.851   0.319  1.00  0.00     0.012 C 
HETATM   17  C   UNL     1     -11.813   1.379  -0.716  1.00  0.00     0.005 C 
HETATM   18  C   UNL     1     -13.412   1.011   1.587  1.00  0.00     0.001 C 
HETATM   19  C   UNL     1     -12.070   1.340   1.723  1.00  0.00     0.001 C 
HETATM   20  C   UNL     1     -11.259   1.421   0.586  1.00  0.00     0.014 C 
BRANCH  12  21
HETATM   21  O   UNL     1     -11.128   2.044  -4.302  1.00  0.00    -0.358 OA
HETATM   22  H   UNL     1     -10.199   1.790  -4.163  1.00  0.00     0.217 HD
ENDBRANCH  12  21
ENDBRANCH   8  11
ENDBRANCH   4   7
BRANCH   1  23
HETATM   23  N   UNL     1      -3.767  -0.503  -0.267  1.00  0.00    -0.300 N 
HETATM   24  N   UNL     1      -2.999   0.461  -0.466  1.00  0.00    -0.300 N 
ATOM     25  HN  UNL     1      -3.327   1.387  -0.742  1.00  0.00     0.187 HD
ATOM     26  HN  UNL     1      -3.455  -1.411   0.077  1.00  0.00     0.187 HD
BRANCH  24  27
HETATM   27  C   UNL     1      -1.627   0.150  -0.273  1.00  0.00     0.048 A 
HETATM   28  C   UNL     1      -1.059  -1.099  -0.574  1.00  0.00     0.031 A 
HETATM   29  C   UNL     1       0.318  -1.320  -0.439  1.00  0.00     0.002 A 
HETATM   30  C   UNL     1       1.151  -0.290  -0.008  1.00  0.00     0.000 A 
HETATM   31  C   UNL     1       0.609   0.957   0.293  1.00  0.00     0.002 A 
HETATM   32  C   UNL     1      -0.768   1.172   0.159  1.00  0.00     0.031 A 
ENDBRANCH  24  27
ENDBRANCH   1  23
TORSDOF 5
