REMARK  4 active torsions:
REMARK  status: ('A' for Active; 'I' for Inactive)
REMARK    1  A    between atoms: C_4  and  C_27 
REMARK    2  A    between atoms: C_5  and  C_7 
REMARK    3  A    between atoms: C_18  and  O_23 
REMARK    4  A    between atoms: C_27  and  O_29 
ROOT
HETATM    1  C   UNL     1      -2.134   1.394   1.758  1.00  0.00     0.001 C 
HETATM    2  C   UNL     1      -2.528   0.930   2.986  1.00  0.00     0.013 C 
HETATM    3  C   UNL     1      -3.253  -0.318   3.215  1.00  0.00     0.038 C 
HETATM    4  C   UNL     1      -3.651  -0.640   4.461  1.00  0.00     0.063 C 
HETATM    5  C   UNL     1      -3.188   0.183   5.637  1.00  0.00     0.209 C 
HETATM    6  O   UNL     1      -3.299  -0.233   6.787  1.00  0.00    -0.285 OA
HETATM    7  C   UNL     1      -2.757   1.588   5.338  1.00  0.00     0.097 C 
HETATM    8  C   UNL     1      -2.791   1.923   4.038  1.00  0.00     0.108 C 
HETATM    9  O   UNL     1      -3.490   3.053   3.652  1.00  0.00    -0.306 OA
HETATM   10  C   UNL     1      -3.914   3.026   2.349  1.00  0.00     0.107 C 
HETATM   11  C   UNL     1      -5.239   3.262   1.998  1.00  0.00     0.080 C 
HETATM   12  C   UNL     1      -5.561   3.425   0.652  1.00  0.00     0.103 C 
HETATM   13  C   UNL     1      -4.536   3.445  -0.293  1.00  0.00     0.046 C 
HETATM   14  C   UNL     1      -3.269   2.972   0.057  1.00  0.00     0.037 C 
HETATM   15  C   UNL     1      -3.009   2.597   1.379  1.00  0.00     0.013 C 
HETATM   16 BR   UNL     1      -4.844   3.975  -2.084  1.00  0.00    -0.048 Br
HETATM   17 BR   UNL     1      -6.611   3.088   3.302  1.00  0.00    -0.045 Br
HETATM   18 BR   UNL     1      -2.725   2.826   6.732  1.00  0.00    -0.044 Br
HETATM   19 BR   UNL     1      -4.984  -1.918   4.753  1.00  0.00    -0.047 Br
ENDROOT
BRANCH   1  20
HETATM   20  C   UNL     1      -1.397   0.592   0.698  1.00  0.00    -0.007 C 
HETATM   21  C   UNL     1      -0.477   1.203  -0.176  1.00  0.00     0.048 C 
HETATM   22  C   UNL     1      -0.125   0.576  -1.400  1.00  0.00     0.019 C 
HETATM   23  C   UNL     1      -0.529  -0.728  -1.662  1.00  0.00     0.001 C 
HETATM   24  C   UNL     1      -1.225  -1.421  -0.683  1.00  0.00     0.001 C 
HETATM   25  C   UNL     1      -1.691  -0.756   0.454  1.00  0.00     0.013 C 
BRANCH  21  26
HETATM   26  C   UNL     1       0.239   2.475   0.165  1.00  0.00     0.177 C 
HETATM   27  O   UNL     1      -0.249   3.430   0.729  1.00  0.00    -0.646 OA
BRANCH  26  28
HETATM   28  O   UNL     1       1.547   2.430  -0.184  1.00  0.00    -0.773 OA
HETATM   29  H   UNL     1       1.880   1.555  -0.465  1.00  0.00     0.167 HD
ENDBRANCH  26  28
ENDBRANCH  21  26
ENDBRANCH   1  20
BRANCH  12  30
HETATM   30  O   UNL     1      -6.861   3.507   0.233  1.00  0.00    -0.358 OA
HETATM   31  H   UNL     1      -7.429   3.155   0.943  1.00  0.00     0.217 HD
ENDBRANCH  12  30
TORSDOF 4
