REMARK  12 active torsions:
REMARK  status: ('A' for Active; 'I' for Inactive)
REMARK    1  A    between atoms: C_3  and  C_10 
REMARK    2  A    between atoms: C_11  and  C_12 
REMARK    3  A    between atoms: C_13  and  C_14 
REMARK    4  A    between atoms: C_15  and  C_16 
REMARK    5  A    between atoms: C_17  and  C_18 
REMARK    6  A    between atoms: C_18  and  O_19 
REMARK    7  A    between atoms: O_19  and  C_20 
REMARK    8  A    between atoms: C_20  and  C_22 
REMARK    9  A    between atoms: C_23  and  C_25 
REMARK   10  A    between atoms: C_26  and  C_27 
REMARK   11  A    between atoms: C_28  and  C_30 
REMARK   12  A    between atoms: C_31  and  C_32 
ROOT
HETATM    1  O   UNL     1      -3.463  -0.401  -0.058  1.00  0.00    -0.314 OA
ENDROOT
BRANCH   1   2
HETATM    2  C   UNL     1      -3.263  -1.511   0.874  1.00  0.00     0.207 C 
BRANCH   2   3
HETATM    3  C   UNL     1      -4.516  -2.207   1.363  1.00  0.00     0.006 C 
HETATM    4  C   UNL     1      -4.927  -2.521   2.618  1.00  0.00    -0.064 C 
HETATM    5  C   UNL     1      -6.109  -3.461   2.783  1.00  0.00     0.048 C 
BRANCH   4   6
HETATM    6  C   UNL     1      -4.344  -2.109   3.896  1.00  0.00     0.006 C 
HETATM    7  C   UNL     1      -4.325  -0.832   4.342  1.00  0.00     0.001 C 
BRANCH   7   8
HETATM    8  C   UNL     1      -3.918  -0.396   5.671  1.00  0.00     0.007 C 
HETATM    9  C   UNL     1      -4.644   0.378   6.516  1.00  0.00    -0.062 C 
HETATM   10  C   UNL     1      -4.098   0.852   7.841  1.00  0.00     0.048 C 
BRANCH   9  11
HETATM   11  C   UNL     1      -6.014   0.782   6.277  1.00  0.00     0.007 C 
HETATM   12  C   UNL     1      -6.389   1.647   5.324  1.00  0.00     0.009 C 
BRANCH  12  13
HETATM   13  C   UNL     1      -7.782   1.801   4.925  1.00  0.00    -0.048 C 
HETATM   14  C   UNL     1      -8.741   2.344   5.715  1.00  0.00    -0.077 C 
HETATM   15  C   UNL     1      -8.475   3.054   7.017  1.00  0.00     0.044 C 
HETATM   16  C   UNL     1     -10.212   2.303   5.348  1.00  0.00     0.034 C 
HETATM   17  C   UNL     1     -10.550   1.514   4.085  1.00  0.00     0.005 C 
HETATM   18  C   UNL     1      -9.466   1.721   3.040  1.00  0.00     0.014 C 
HETATM   19  C   UNL     1      -8.096   1.206   3.539  1.00  0.00    -0.020 C 
HETATM   20  C   UNL     1      -7.075   1.634   2.455  1.00  0.00     0.020 C 
HETATM   21  C   UNL     1      -8.112  -0.332   3.672  1.00  0.00     0.020 C 
ENDBRANCH  12  13
ENDBRANCH   9  11
ENDBRANCH   7   8
ENDBRANCH   4   6
ENDBRANCH   2   3
ENDBRANCH   1   2
BRANCH   1  22
HETATM   22  C   UNL     1      -3.103   0.805   0.448  1.00  0.00     0.283 C 
HETATM   23  O   UNL     1      -3.033   1.048   1.650  1.00  0.00    -0.260 OA
BRANCH  22  24
HETATM   24  C   UNL     1      -2.479   1.777  -0.487  1.00  0.00     0.089 C 
HETATM   25  C   UNL     1      -2.416   2.169  -1.784  1.00  0.00    -0.056 C 
HETATM   26  C   UNL     1      -3.207   1.757  -2.992  1.00  0.00     0.048 C 
BRANCH  25  27
HETATM   27  C   UNL     1      -1.344   3.102  -2.182  1.00  0.00     0.007 C 
HETATM   28  C   UNL     1      -0.064   2.801  -1.931  1.00  0.00     0.001 C 
BRANCH  28  29
HETATM   29  C   UNL     1       1.054   3.461  -2.570  1.00  0.00     0.007 C 
HETATM   30  C   UNL     1       2.357   3.205  -2.336  1.00  0.00    -0.062 C 
HETATM   31  C   UNL     1       2.888   2.323  -1.232  1.00  0.00     0.048 C 
BRANCH  30  32
HETATM   32  C   UNL     1       3.335   3.853  -3.203  1.00  0.00     0.007 C 
HETATM   33  C   UNL     1       4.671   3.739  -3.134  1.00  0.00     0.009 C 
BRANCH  33  34
HETATM   34  C   UNL     1       5.553   4.518  -3.997  1.00  0.00    -0.048 C 
HETATM   35  C   UNL     1       5.558   5.869  -3.936  1.00  0.00    -0.077 C 
HETATM   36  C   UNL     1       6.379   6.723  -4.871  1.00  0.00     0.034 C 
HETATM   37  C   UNL     1       4.772   6.700  -2.941  1.00  0.00     0.044 C 
HETATM   38  C   UNL     1       6.941   5.964  -6.066  1.00  0.00     0.005 C 
HETATM   39  C   UNL     1       7.522   4.631  -5.618  1.00  0.00     0.014 C 
HETATM   40  C   UNL     1       6.457   3.712  -4.961  1.00  0.00    -0.020 C 
HETATM   41  C   UNL     1       7.225   2.587  -4.232  1.00  0.00     0.020 C 
HETATM   42  C   UNL     1       5.595   3.061  -6.067  1.00  0.00     0.020 C 
ENDBRANCH  33  34
ENDBRANCH  30  32
ENDBRANCH  28  29
ENDBRANCH  25  27
ENDBRANCH  22  24
ENDBRANCH   1  22
TORSDOF 12
