REMARK  5 active torsions:
REMARK  status: ('A' for Active; 'I' for Inactive)
REMARK    1  A    between atoms: C_3  and  C_10 
REMARK    2  A    between atoms: C_11  and  C_12 
REMARK    3  A    between atoms: C_13  and  C_14 
REMARK    4  A    between atoms: C_15  and  C_16 
REMARK    5  A    between atoms: C_17  and  C_18 
ROOT
HETATM    1  C   UNL     1       0.451  -2.441   0.055  1.00  0.00     0.009 C 
HETATM    2  C   UNL     1       1.163  -3.221   0.891  1.00  0.00     0.007 C 
ENDROOT
BRANCH   2   3
HETATM    3  C   UNL     1       1.107  -4.687   0.921  1.00  0.00    -0.062 C 
HETATM    4  C   UNL     1       0.844  -5.415   2.033  1.00  0.00     0.007 C 
HETATM    5  C   UNL     1       1.417  -5.401  -0.374  1.00  0.00     0.048 C 
BRANCH   4   6
HETATM    6  C   UNL     1       0.486  -4.875   3.334  1.00  0.00     0.001 C 
HETATM    7  C   UNL     1       0.209  -5.577   4.451  1.00  0.00     0.007 C 
BRANCH   7   8
HETATM    8  C   UNL     1      -0.284  -4.947   5.679  1.00  0.00    -0.059 C 
HETATM    9  C   UNL     1      -0.160  -5.418   6.937  1.00  0.00     0.048 C 
HETATM   10  C   UNL     1      -1.073  -3.662   5.532  1.00  0.00     0.048 C 
BRANCH   9  11
HETATM   11  C   UNL     1       0.511  -6.642   7.423  1.00  0.00     0.259 C 
HETATM   12  O   UNL     1       0.566  -6.892   8.620  1.00  0.00    -0.302 OA
ENDBRANCH   9  11
ENDBRANCH   7   8
ENDBRANCH   4   6
ENDBRANCH   2   3
BRANCH   1  13
HETATM   13  C   UNL     1       0.507  -0.970  -0.026  1.00  0.00    -0.048 C 
HETATM   14  C   UNL     1       1.639  -0.308  -0.378  1.00  0.00    -0.077 C 
HETATM   15  C   UNL     1       2.943  -0.959  -0.774  1.00  0.00     0.044 C 
HETATM   16  C   UNL     1       1.718   1.205  -0.477  1.00  0.00     0.034 C 
HETATM   17  C   UNL     1       0.534   1.957   0.112  1.00  0.00     0.005 C 
HETATM   18  C   UNL     1      -0.760   1.265  -0.271  1.00  0.00     0.014 C 
HETATM   19  C   UNL     1      -0.821  -0.207   0.234  1.00  0.00    -0.020 C 
HETATM   20  C   UNL     1      -2.025  -0.840  -0.501  1.00  0.00     0.020 C 
HETATM   21  C   UNL     1      -1.112  -0.194   1.751  1.00  0.00     0.020 C 
ENDBRANCH   1  13
TORSDOF 5
