REMARK WARNING: 32 MAX_TORS EXCEEDED!!!
REMARK  46 active torsions:
REMARK  status: ('A' for Active; 'I' for Inactive)
REMARK    1  A    between atoms: C_3  and  O_78 
REMARK    2  A    between atoms: C_4  and  O_70 
REMARK    3  A    between atoms: C_5  and  O_62 
REMARK    4  A    between atoms: C_6  and  O_8 
REMARK    5  A    between atoms: O_8  and  C_9 
REMARK    6  A    between atoms: C_9  and  C_10 
REMARK    7  A    between atoms: C_11  and  O_54 
REMARK    8  A    between atoms: C_12  and  O_46 
REMARK    9  A    between atoms: C_13  and  O_38 
REMARK   10  A    between atoms: C_14  and  O_16 
REMARK   11  A    between atoms: O_16  and  C_17 
REMARK   12  A    between atoms: C_18  and  C_30 
REMARK   13  A    between atoms: C_22  and  O_29 
REMARK   14  A    between atoms: C_24  and  O_28 
REMARK   15  A    between atoms: C_32  and  O_37 
REMARK   16  A    between atoms: C_33  and  O_36 
REMARK   17  A    between atoms: O_38  and  C_39 
REMARK   18  A    between atoms: C_39  and  C_41 
REMARK   19  A    between atoms: C_41  and  C_42 
REMARK   20  A    between atoms: C_42  and  C_43 
REMARK   21  A    between atoms: C_43  and  O_45 
REMARK   22  A    between atoms: O_46  and  C_47 
REMARK   23  A    between atoms: C_47  and  C_49 
REMARK   24  A    between atoms: C_49  and  C_50 
REMARK   25  A    between atoms: C_50  and  C_51 
REMARK   26  A    between atoms: C_51  and  O_53 
REMARK   27  A    between atoms: O_54  and  C_55 
REMARK   28  A    between atoms: C_55  and  C_57 
REMARK   29  A    between atoms: C_57  and  C_58 
REMARK   30  A    between atoms: C_58  and  C_59 
REMARK   31  A    between atoms: C_59  and  O_61 
REMARK   32  A    between atoms: O_62  and  C_63 
REMARK   33  A    between atoms: C_63  and  C_65 
REMARK   34  A    between atoms: C_65  and  C_66 
REMARK   35  A    between atoms: C_66  and  C_67 
REMARK   36  A    between atoms: C_67  and  O_69 
REMARK   37  A    between atoms: O_70  and  C_71 
REMARK   38  A    between atoms: C_71  and  C_73 
REMARK   39  A    between atoms: C_73  and  C_74 
REMARK   40  A    between atoms: C_74  and  C_75 
REMARK   41  A    between atoms: C_75  and  O_77 
REMARK   42  A    between atoms: O_78  and  C_79 
REMARK   43  A    between atoms: C_79  and  C_81 
REMARK   44  A    between atoms: C_81  and  C_82 
REMARK   45  A    between atoms: C_82  and  C_83 
REMARK   46  A    between atoms: C_83  and  O_85 
ROOT
HETATM    1  C   UNL     1       3.530  -4.440  -3.569  1.00  0.00     0.180 C 
HETATM    2  C   UNL     1       3.016  -5.885  -3.763  1.00  0.00     0.195 C 
HETATM    3  C   UNL     1       2.474  -6.502  -2.465  1.00  0.00     0.198 C 
HETATM    4  C   UNL     1       3.530  -6.484  -1.360  1.00  0.00     0.219 C 
HETATM    5  C   UNL     1       3.918  -4.959  -1.219  1.00  0.00     0.299 C 
HETATM    6  O   UNL     1       4.395  -4.353  -2.427  1.00  0.00    -0.348 OA
ENDROOT
BRANCH   1   7
HETATM    7  C   UNL     1       2.466  -3.335  -3.481  1.00  0.00     0.205 C 
BRANCH   7   8
HETATM    8  O   UNL     1       1.556  -3.658  -2.446  1.00  0.00    -0.356 OA
BRANCH   8   9
HETATM    9  C   UNL     1       0.806  -2.583  -1.886  1.00  0.00     0.292 C 
HETATM   10  C   UNL     1      -0.418  -2.259  -2.750  1.00  0.00     0.219 C 
HETATM   11  C   UNL     1      -1.234  -1.193  -2.005  1.00  0.00     0.198 C 
HETATM   12  C   UNL     1      -0.387   0.054  -1.709  1.00  0.00     0.192 C 
HETATM   13  C   UNL     1       0.883  -0.370  -0.924  1.00  0.00     0.152 C 
HETATM   14  C   UNL     1       0.578  -0.726   0.537  1.00  0.00     0.042 C 
HETATM   15  O   UNL     1       1.596  -1.439  -1.572  1.00  0.00    -0.351 OA
BRANCH  10  16
HETATM   16  O   UNL     1       0.022  -1.833  -4.067  1.00  0.00    -0.308 OA
BRANCH  16  17
HETATM   17  C   UNL     1      -0.824  -2.046  -5.105  1.00  0.00     0.259 C 
HETATM   18  O   UNL     1      -2.005  -2.351  -5.012  1.00  0.00    -0.265 OA
BRANCH  17  19
HETATM   19  C   UNL     1      -0.078  -2.118  -6.407  1.00  0.00     0.121 C 
BRANCH  19  20
HETATM   20  C   UNL     1       0.080  -3.606  -6.709  1.00  0.00     0.119 C 
BRANCH  20  21
HETATM   21  C   UNL     1       0.768  -3.871  -8.014  1.00  0.00     0.139 C 
HETATM   22  O   UNL     1       1.143  -3.018  -8.798  1.00  0.00    -0.650 OA
BRANCH  21  23
HETATM   23  O   UNL     1       0.950  -5.196  -8.229  1.00  0.00    -0.776 OA
HETATM   24  H   UNL     1       0.560  -5.773  -7.541  1.00  0.00     0.167 HD
ENDBRANCH  21  23
ENDBRANCH  20  21
ENDBRANCH  19  20
ENDBRANCH  17  19
ENDBRANCH  16  17
ENDBRANCH  10  16
BRANCH  11  25
HETATM   25  O   UNL     1      -2.415  -0.960  -2.788  1.00  0.00    -0.310 OA
BRANCH  25  26
HETATM   26  C   UNL     1      -3.451  -0.320  -2.201  1.00  0.00     0.259 C 
HETATM   27  O   UNL     1      -3.343   0.528  -1.331  1.00  0.00    -0.265 OA
BRANCH  26  28
HETATM   28  C   UNL     1      -4.757  -0.816  -2.778  1.00  0.00     0.121 C 
BRANCH  28  29
HETATM   29  C   UNL     1      -4.762  -2.331  -3.006  1.00  0.00     0.119 C 
BRANCH  29  30
HETATM   30  C   UNL     1      -4.332  -3.078  -1.766  1.00  0.00     0.139 C 
HETATM   31  O   UNL     1      -4.570  -2.709  -0.626  1.00  0.00    -0.650 OA
BRANCH  30  32
HETATM   32  O   UNL     1      -3.637  -4.206  -2.021  1.00  0.00    -0.776 OA
HETATM   33  H   UNL     1      -3.506  -4.401  -2.971  1.00  0.00     0.167 HD
ENDBRANCH  30  32
ENDBRANCH  29  30
ENDBRANCH  28  29
ENDBRANCH  26  28
ENDBRANCH  25  26
ENDBRANCH  11  25
BRANCH  12  34
HETATM   34  O   UNL     1      -0.060   0.659  -2.979  1.00  0.00    -0.311 OA
BRANCH  34  35
HETATM   35  C   UNL     1       0.523   1.879  -2.960  1.00  0.00     0.259 C 
HETATM   36  O   UNL     1       0.832   2.508  -1.957  1.00  0.00    -0.265 OA
BRANCH  35  37
HETATM   37  C   UNL     1       0.779   2.361  -4.362  1.00  0.00     0.121 C 
BRANCH  37  38
HETATM   38  C   UNL     1       2.273   2.520  -4.598  1.00  0.00     0.119 C 
BRANCH  38  39
HETATM   39  C   UNL     1       2.984   1.188  -4.559  1.00  0.00     0.139 C 
HETATM   40  O   UNL     1       2.478   0.123  -4.878  1.00  0.00    -0.650 OA
BRANCH  39  41
HETATM   41  O   UNL     1       4.277   1.289  -4.185  1.00  0.00    -0.776 OA
HETATM   42  H   UNL     1       4.568   2.192  -3.955  1.00  0.00     0.167 HD
ENDBRANCH  39  41
ENDBRANCH  38  39
ENDBRANCH  37  38
ENDBRANCH  35  37
ENDBRANCH  34  35
ENDBRANCH  12  34
ENDBRANCH   8   9
ENDBRANCH   7   8
ENDBRANCH   1   7
BRANCH   2  43
HETATM   43  O   UNL     1       4.051  -6.735  -4.373  1.00  0.00    -0.311 OA
BRANCH  43  44
HETATM   44  C   UNL     1       5.384  -6.647  -4.117  1.00  0.00     0.259 C 
HETATM   45  O   UNL     1       5.958  -5.937  -3.309  1.00  0.00    -0.265 OA
BRANCH  44  46
HETATM   46  C   UNL     1       6.179  -7.647  -4.877  1.00  0.00     0.121 C 
BRANCH  46  47
HETATM   47  C   UNL     1       5.444  -8.215  -6.065  1.00  0.00     0.119 C 
BRANCH  47  48
HETATM   48  C   UNL     1       6.362  -9.136  -6.813  1.00  0.00     0.139 C 
HETATM   49  O   UNL     1       7.480  -9.462  -6.450  1.00  0.00    -0.650 OA
BRANCH  48  50
HETATM   50  O   UNL     1       5.796  -9.600  -7.953  1.00  0.00    -0.776 OA
HETATM   51  H   UNL     1       4.889  -9.257  -8.086  1.00  0.00     0.167 HD
ENDBRANCH  48  50
ENDBRANCH  47  48
ENDBRANCH  46  47
ENDBRANCH  44  46
ENDBRANCH  43  44
ENDBRANCH   2  43
BRANCH   3  52
HETATM   52  O   UNL     1       1.945  -7.828  -2.614  1.00  0.00    -0.310 OA
BRANCH  52  53
HETATM   53  C   UNL     1       0.608  -8.030  -2.612  1.00  0.00     0.259 C 
HETATM   54  O   UNL     1      -0.235  -7.182  -2.860  1.00  0.00    -0.265 OA
BRANCH  53  55
HETATM   55  C   UNL     1       0.318  -9.459  -2.197  1.00  0.00     0.121 C 
BRANCH  55  56
HETATM   56  C   UNL     1      -0.670 -10.139  -3.124  1.00  0.00     0.119 C 
BRANCH  56  57
HETATM   57  C   UNL     1      -0.213 -10.082  -4.560  1.00  0.00     0.139 C 
HETATM   58  O   UNL     1      -0.821  -9.500  -5.444  1.00  0.00    -0.650 OA
BRANCH  57  59
HETATM   59  O   UNL     1       0.943 -10.739  -4.796  1.00  0.00    -0.776 OA
HETATM   60  H   UNL     1       1.346 -11.172  -4.018  1.00  0.00     0.167 HD
ENDBRANCH  57  59
ENDBRANCH  56  57
ENDBRANCH  55  56
ENDBRANCH  53  55
ENDBRANCH  52  53
ENDBRANCH   3  52
BRANCH   5  61
HETATM   61  O   UNL     1       4.922  -4.790  -0.223  1.00  0.00    -0.311 OA
BRANCH  61  62
HETATM   62  C   UNL     1       4.496  -4.725   1.096  1.00  0.00     0.157 C 
HETATM   63  C   UNL     1       5.403  -4.415   2.042  1.00  0.00     0.124 C 
HETATM   64  O   UNL     1       5.198  -4.477   3.391  1.00  0.00    -0.306 OA
HETATM   65  C   UNL     1       3.951  -4.677   3.858  1.00  0.00     0.096 A 
HETATM   66  C   UNL     1       3.845  -4.571   5.242  1.00  0.00     0.075 A 
HETATM   67  C   UNL     1       2.867  -4.950   3.029  1.00  0.00     0.084 A 
HETATM   68  C   UNL     1       2.589  -4.694   5.803  1.00  0.00     0.071 A 
HETATM   69  C   UNL     1       1.481  -4.983   5.007  1.00  0.00     0.074 A 
HETATM   70  C   UNL     1       1.616  -5.122   3.625  1.00  0.00     0.085 A 
HETATM   71  C   UNL     1       3.098  -4.997   1.573  1.00  0.00     0.223 C 
HETATM   72  O   UNL     1       2.173  -5.205   0.799  1.00  0.00    -0.284 OA
BRANCH  63  73
HETATM   73  C   UNL     1       6.740  -3.874   1.825  1.00  0.00     0.004 A 
HETATM   74  C   UNL     1       7.851  -4.715   1.936  1.00  0.00     0.053 A 
HETATM   75  C   UNL     1       9.047  -4.169   2.391  1.00  0.00     0.099 A 
HETATM   76  C   UNL     1       9.139  -2.798   2.649  1.00  0.00     0.098 A 
HETATM   77  C   UNL     1       8.068  -1.946   2.427  1.00  0.00     0.040 A 
HETATM   78  C   UNL     1       6.860  -2.486   2.015  1.00  0.00     0.017 A 
BRANCH  75  79
HETATM   79  O   UNL     1      10.096  -4.984   2.708  1.00  0.00    -0.358 OA
HETATM   80  H   UNL     1       9.853  -5.900   2.490  1.00  0.00     0.217 HD
ENDBRANCH  75  79
BRANCH  76  81
HETATM   81  O   UNL     1      10.240  -2.246   3.238  1.00  0.00    -0.358 OA
HETATM   82  H   UNL     1      10.288  -2.668   4.114  1.00  0.00     0.217 HD
ENDBRANCH  76  81
ENDBRANCH  63  73
BRANCH  68  83
HETATM   83  O   UNL     1       2.405  -4.532   7.143  1.00  0.00    -0.361 OA
HETATM   84  H   UNL     1       3.256  -4.277   7.538  1.00  0.00     0.217 HD
ENDBRANCH  68  83
BRANCH  70  85
HETATM   85  O   UNL     1       0.514  -5.403   2.874  1.00  0.00    -0.360 OA
HETATM   86  H   UNL     1      -0.244  -5.580   3.444  1.00  0.00     0.217 HD
ENDBRANCH  70  85
ENDBRANCH  61  62
ENDBRANCH   5  61
BRANCH   4  87
HETATM   87  O   UNL     1       4.730  -7.361  -1.465  1.00  0.00    -0.308 OA
BRANCH  87  88
HETATM   88  C   UNL     1       4.719  -8.676  -1.826  1.00  0.00     0.259 C 
HETATM   89  O   UNL     1       3.802  -9.282  -2.365  1.00  0.00    -0.265 OA
BRANCH  88  90
HETATM   90  C   UNL     1       6.030  -9.403  -1.585  1.00  0.00     0.121 C 
BRANCH  90  91
HETATM   91  C   UNL     1       6.927  -8.846  -0.507  1.00  0.00     0.119 C 
BRANCH  91  92
HETATM   92  C   UNL     1       6.189  -8.802   0.798  1.00  0.00     0.139 C 
HETATM   93  O   UNL     1       5.995  -9.776   1.507  1.00  0.00    -0.650 OA
BRANCH  92  94
HETATM   94  O   UNL     1       5.701  -7.579   1.085  1.00  0.00    -0.776 OA
HETATM   95  H   UNL     1       5.826  -6.937   0.349  1.00  0.00     0.167 HD
ENDBRANCH  92  94
ENDBRANCH  91  92
ENDBRANCH  90  91
ENDBRANCH  88  90
ENDBRANCH  87  88
ENDBRANCH   4  87
TORSDOF 46
