REMARK  16 active torsions:
REMARK  status: ('A' for Active; 'I' for Inactive)
REMARK    1  A    between atoms: C_3  and  O_43 
REMARK    2  A    between atoms: C_4  and  O_42 
REMARK    3  A    between atoms: C_5  and  O_41 
REMARK    4  A    between atoms: C_6  and  O_8 
REMARK    5  A    between atoms: O_8  and  C_9 
REMARK    6  A    between atoms: C_9  and  C_10 
REMARK    7  A    between atoms: C_11  and  O_40 
REMARK    8  A    between atoms: C_12  and  O_39 
REMARK    9  A    between atoms: C_13  and  O_38 
REMARK   10  A    between atoms: C_14  and  O_16 
REMARK   11  A    between atoms: O_16  and  C_17 
REMARK   12  A    between atoms: C_18  and  C_30 
REMARK   13  A    between atoms: C_22  and  O_29 
REMARK   14  A    between atoms: C_24  and  O_28 
REMARK   15  A    between atoms: C_32  and  O_37 
REMARK   16  A    between atoms: C_33  and  O_36 
ROOT
HETATM    1  C   UNL     1       3.262  -4.290  -3.759  1.00  0.00     0.180 C 
HETATM    2  C   UNL     1       2.538  -5.636  -3.783  1.00  0.00     0.180 C 
HETATM    3  C   UNL     1       2.041  -6.032  -2.392  1.00  0.00     0.183 C 
HETATM    4  C   UNL     1       3.182  -6.043  -1.362  1.00  0.00     0.205 C 
HETATM    5  C   UNL     1       3.948  -4.698  -1.414  1.00  0.00     0.298 C 
HETATM    6  O   UNL     1       4.205  -4.184  -2.698  1.00  0.00    -0.348 OA
ENDROOT
BRANCH   5   7
HETATM    7  O   UNL     1       5.166  -4.730  -0.632  1.00  0.00    -0.311 OA
BRANCH   7   8
HETATM    8  C   UNL     1       6.237  -5.510  -1.066  1.00  0.00     0.157 C 
HETATM    9  C   UNL     1       7.093  -6.065  -0.181  1.00  0.00     0.124 C 
HETATM   10  O   UNL     1       8.179  -6.867  -0.510  1.00  0.00    -0.306 OA
HETATM   11  C   UNL     1       8.256  -7.380  -1.770  1.00  0.00     0.096 A 
HETATM   12  C   UNL     1       9.188  -8.392  -1.994  1.00  0.00     0.075 A 
HETATM   13  C   UNL     1       7.454  -6.924  -2.803  1.00  0.00     0.084 A 
HETATM   14  C   UNL     1       9.294  -8.945  -3.264  1.00  0.00     0.071 A 
HETATM   15  C   UNL     1       8.474  -8.520  -4.306  1.00  0.00     0.074 A 
HETATM   16  C   UNL     1       7.541  -7.516  -4.070  1.00  0.00     0.085 A 
HETATM   17  C   UNL     1       6.570  -5.794  -2.515  1.00  0.00     0.223 C 
HETATM   18  O   UNL     1       6.151  -5.157  -3.475  1.00  0.00    -0.284 OA
BRANCH   9  19
HETATM   19  C   UNL     1       7.028  -5.905   1.279  1.00  0.00     0.004 A 
HETATM   20  C   UNL     1       7.861  -4.952   1.884  1.00  0.00     0.053 A 
HETATM   21  C   UNL     1       8.124  -5.047   3.245  1.00  0.00     0.099 A 
HETATM   22  C   UNL     1       7.527  -6.045   4.011  1.00  0.00     0.098 A 
HETATM   23  C   UNL     1       6.628  -6.936   3.445  1.00  0.00     0.040 A 
HETATM   24  C   UNL     1       6.382  -6.872   2.070  1.00  0.00     0.017 A 
BRANCH  21  25
HETATM   25  O   UNL     1       9.031  -4.228   3.861  1.00  0.00    -0.358 OA
HETATM   26  H   UNL     1       9.429  -3.655   3.182  1.00  0.00     0.217 HD
ENDBRANCH  21  25
BRANCH  22  27
HETATM   27  O   UNL     1       7.876  -6.193   5.324  1.00  0.00    -0.358 OA
HETATM   28  H   UNL     1       8.586  -5.534   5.464  1.00  0.00     0.217 HD
ENDBRANCH  22  27
ENDBRANCH   9  19
BRANCH  14  29
HETATM   29  O   UNL     1      10.187  -9.937  -3.540  1.00  0.00    -0.361 OA
HETATM   30  H   UNL     1      10.685 -10.146  -2.732  1.00  0.00     0.217 HD
ENDBRANCH  14  29
BRANCH  16  31
HETATM   31  O   UNL     1       6.688  -7.153  -5.077  1.00  0.00    -0.360 OA
HETATM   32  H   UNL     1       6.925  -7.618  -5.896  1.00  0.00     0.217 HD
ENDBRANCH  16  31
ENDBRANCH   7   8
ENDBRANCH   5   7
BRANCH   4  33
HETATM   33  O   UNL     1       4.024  -7.190  -1.591  1.00  0.00    -0.388 OA
HETATM   34  H   UNL     1       4.422  -7.077  -2.472  1.00  0.00     0.210 HD
ENDBRANCH   4  33
BRANCH   3  35
HETATM   35  O   UNL     1       1.447  -7.336  -2.457  1.00  0.00    -0.390 OA
HETATM   36  H   UNL     1       2.184  -7.931  -2.714  1.00  0.00     0.210 HD
ENDBRANCH   3  35
BRANCH   1  37
HETATM   37  C   UNL     1       2.372  -3.054  -3.740  1.00  0.00     0.205 C 
BRANCH  37  38
HETATM   38  O   UNL     1       3.267  -1.934  -3.734  1.00  0.00    -0.356 OA
BRANCH  38  39
HETATM   39  C   UNL     1       2.610  -0.687  -3.599  1.00  0.00     0.291 C 
HETATM   40  C   UNL     1       3.698   0.401  -3.586  1.00  0.00     0.204 C 
HETATM   41  C   UNL     1       2.992   1.755  -3.483  1.00  0.00     0.183 C 
HETATM   42  C   UNL     1       2.102   1.811  -2.236  1.00  0.00     0.178 C 
HETATM   43  C   UNL     1       1.189   0.570  -2.123  1.00  0.00     0.152 C 
HETATM   44  C   UNL     1      -0.041   0.625  -3.020  1.00  0.00     0.042 C 
HETATM   45  O   UNL     1       1.897  -0.654  -2.363  1.00  0.00    -0.351 OA
BRANCH  40  46
HETATM   46  O   UNL     1       4.553   0.223  -2.430  1.00  0.00    -0.388 OA
HETATM   47  H   UNL     1       4.630  -0.750  -2.323  1.00  0.00     0.210 HD
ENDBRANCH  40  46
BRANCH  41  48
HETATM   48  O   UNL     1       3.968   2.810  -3.463  1.00  0.00    -0.390 OA
HETATM   49  H   UNL     1       4.521   2.624  -2.677  1.00  0.00     0.210 HD
ENDBRANCH  41  48
BRANCH  42  50
HETATM   50  O   UNL     1       2.923   1.880  -1.053  1.00  0.00    -0.390 OA
HETATM   51  H   UNL     1       3.507   1.093  -1.072  1.00  0.00     0.210 HD
ENDBRANCH  42  50
ENDBRANCH  38  39
ENDBRANCH  37  38
ENDBRANCH   1  37
BRANCH   2  52
HETATM   52  O   UNL     1       3.437  -6.675  -4.242  1.00  0.00    -0.390 OA
HETATM   53  H   UNL     1       4.338  -6.296  -4.340  1.00  0.00     0.210 HD
ENDBRANCH   2  52
TORSDOF 16
