REMARK  3 active torsions:
REMARK  status: ('A' for Active; 'I' for Inactive)
REMARK    1  A    between atoms: C_4  and  O_10 
REMARK    2  A    between atoms: C_5  and  C_7 
REMARK    3  A    between atoms: C_7  and  O_9 
ROOT
HETATM    1  C   UNL     1      -1.845   0.060  -0.009  1.00  0.00     0.001 A 
HETATM    2  C   UNL     1      -1.179  -1.164  -0.005  1.00  0.00     0.003 A 
HETATM    3  C   UNL     1       0.216  -1.202   0.007  1.00  0.00     0.037 A 
HETATM    4  C   UNL     1       0.945  -0.010   0.016  1.00  0.00     0.082 A 
HETATM    5  C   UNL     1       0.290   1.230   0.021  1.00  0.00     0.070 A 
HETATM    6  C   UNL     1      -1.114   1.250   0.005  1.00  0.00     0.021 A 
ENDROOT
BRANCH   5   7
HETATM    7  C   UNL     1       0.993   2.547   0.041  1.00  0.00     0.178 C 
HETATM    8  O   UNL     1       0.390   3.610   0.043  1.00  0.00    -0.646 OA
BRANCH   7   9
HETATM    9  O   UNL     1       2.341   2.487   0.059  1.00  0.00    -0.773 OA
HETATM   10  H   UNL     1       2.672   1.562   0.052  1.00  0.00     0.167 HD
ENDBRANCH   7   9
ENDBRANCH   5   7
BRANCH   4  11
HETATM   11  O   UNL     1       2.316  -0.062   0.020  1.00  0.00    -0.360 OA
HETATM   12  H   UNL     1       2.591  -0.998  -0.018  1.00  0.00     0.217 HD
ENDBRANCH   4  11
TORSDOF 3
