REMARK  5 active torsions:
REMARK  status: ('A' for Active; 'I' for Inactive)
REMARK    1  A    between atoms: C_1  and  CA_2 
REMARK    2  A    between atoms: C_1  and  O_7 
REMARK    3  A    between atoms: CA_2  and  C_3 
REMARK    4  A    between atoms: CA_2  and  N_6 
REMARK    5  A    between atoms: C_3  and  O_5 
ROOT
HETATM    1  CA  UNL     1       0.533  -1.378   0.686  1.00  0.00     0.337 C 
ENDROOT
BRANCH   1   2
HETATM    2  C   UNL     1       1.136  -0.129   0.032  1.00  0.00     0.210 C 
BRANCH   2   3
HETATM    3  O   UNL     1       2.567  -0.204   0.106  1.00  0.00    -0.398 OA
HETATM    4  H   UNL     1       2.872   0.660   0.449  1.00  0.00     0.209 HD
ENDBRANCH   2   3
ENDBRANCH   1   2
BRANCH   1   5
HETATM    5  C   UNL     1       0.992  -1.440   2.153  1.00  0.00     0.176 C 
HETATM    6  O   UNL     1       0.232  -1.441   3.108  1.00  0.00    -0.648 OA
BRANCH   5   7
HETATM    7  O   UNL     1       2.338  -1.512   2.294  1.00  0.00    -0.775 OA
HETATM    8  H   UNL     1       2.792  -1.404   1.426  1.00  0.00     0.167 HD
ENDBRANCH   5   7
ENDBRANCH   1   5
BRANCH   1   9
HETATM    9  N   UNL     1      -0.943  -1.374   0.605  1.00  0.00     0.095 N 
HETATM   10  H1  UNL     1      -1.293  -0.610   1.186  1.00  0.00     0.314 HD
HETATM   11  H2  UNL     1      -1.278  -2.208   1.097  1.00  0.00     0.314 HD
ENDBRANCH   1   9
TORSDOF 5
