REMARK  2 active torsions:
REMARK  status: ('A' for Active; 'I' for Inactive)
REMARK    1  A    between atoms: C_14  and  O_28 
REMARK    2  A    between atoms: C_20  and  O_25 
ROOT
HETATM    1  C   UNL     1       3.992  -0.772  -1.117  1.00  0.00     0.001 A 
HETATM    2  C   UNL     1       2.953  -0.551  -2.037  1.00  0.00     0.001 A 
HETATM    3  C   UNL     1       1.647  -0.315  -1.599  1.00  0.00     0.012 A 
HETATM    4  C   UNL     1       1.409  -0.303  -0.231  1.00  0.00     0.003 A 
HETATM    5  C   UNL     1       2.438  -0.527   0.661  1.00  0.00     0.049 A 
HETATM    6  C   UNL     1       3.738  -0.763   0.255  1.00  0.00     0.018 A 
HETATM    7  C   UNL     1       1.912  -0.457   2.016  1.00  0.00     0.295 A 
HETATM    8  O   UNL     1       2.540  -0.622   3.043  1.00  0.00    -0.259 OA
HETATM    9  O   UNL     1       0.580  -0.176   1.914  1.00  0.00    -0.291 OA
HETATM   10  C   UNL     1       0.147  -0.055   0.534  1.00  0.00     0.159 A 
HETATM   11  C   UNL     1      -0.897  -1.122   0.282  1.00  0.00     0.023 A 
HETATM   12  C   UNL     1      -0.623  -2.482   0.540  1.00  0.00     0.036 A 
HETATM   13  C   UNL     1      -1.566  -3.467   0.257  1.00  0.00     0.046 A 
HETATM   14  C   UNL     1      -2.807  -3.117  -0.272  1.00  0.00     0.103 A 
HETATM   15  C   UNL     1      -3.101  -1.770  -0.520  1.00  0.00     0.080 A 
HETATM   16  C   UNL     1      -2.144  -0.773  -0.247  1.00  0.00     0.106 A 
HETATM   17  O   UNL     1      -2.485   0.526  -0.539  1.00  0.00    -0.306 OA
HETATM   18  C   UNL     1      -1.637   1.560  -0.223  1.00  0.00     0.106 A 
HETATM   19  C   UNL     1      -2.082   2.868  -0.490  1.00  0.00     0.080 A 
HETATM   20  C   UNL     1      -1.262   3.970  -0.210  1.00  0.00     0.103 A 
HETATM   21  C   UNL     1      -0.003   3.769   0.350  1.00  0.00     0.046 A 
HETATM   22  C   UNL     1       0.436   2.474   0.624  1.00  0.00     0.036 A 
HETATM   23  C   UNL     1      -0.369   1.352   0.326  1.00  0.00     0.023 A 
HETATM   24 BR   UNL     1       1.166   5.212   0.731  1.00  0.00    -0.048 Br
HETATM   25 BR   UNL     1      -3.800   3.167  -1.260  1.00  0.00    -0.045 Br
HETATM   26 BR   UNL     1      -4.800  -1.291  -1.240  1.00  0.00    -0.045 Br
HETATM   27 BR   UNL     1      -1.117  -5.280   0.584  1.00  0.00    -0.048 Br
ENDROOT
BRANCH  14  28
HETATM   28  O   UNL     1      -3.738  -4.082  -0.557  1.00  0.00    -0.358 OA
HETATM   29  H   UNL     1      -3.366  -4.948  -0.310  1.00  0.00     0.217 HD
ENDBRANCH  14  28
BRANCH  20  30
HETATM   30  O   UNL     1      -1.672   5.248  -0.484  1.00  0.00    -0.358 OA
HETATM   31  H   UNL     1      -2.570   5.208  -0.858  1.00  0.00     0.217 HD
ENDBRANCH  20  30
TORSDOF 2
