REMARK  2 active torsions:
REMARK  status: ('A' for Active; 'I' for Inactive)
REMARK    1  A    between atoms: C_14  and  O_17 
REMARK    2  A    between atoms: C_24  and  O_27 
ROOT
HETATM    1  C   UNL     1       3.988  -0.767  -1.108  1.00  0.00     0.001 A 
HETATM    2  C   UNL     1       2.950  -0.543  -2.029  1.00  0.00     0.001 A 
HETATM    3  C   UNL     1       1.644  -0.305  -1.591  1.00  0.00     0.012 A 
HETATM    4  C   UNL     1       1.404  -0.296  -0.225  1.00  0.00     0.003 A 
HETATM    5  C   UNL     1       2.431  -0.522   0.669  1.00  0.00     0.049 A 
HETATM    6  C   UNL     1       3.732  -0.761   0.263  1.00  0.00     0.018 A 
HETATM    7  C   UNL     1       1.903  -0.450   2.024  1.00  0.00     0.295 A 
HETATM    8  O   UNL     1       2.533  -0.606   3.051  1.00  0.00    -0.259 OA
HETATM    9  O   UNL     1       0.572  -0.163   1.919  1.00  0.00    -0.291 OA
HETATM   10  C   UNL     1       0.140  -0.051   0.538  1.00  0.00     0.159 A 
HETATM   11  C   UNL     1      -0.899  -1.122   0.286  1.00  0.00     0.022 A 
HETATM   12  C   UNL     1      -2.146  -0.776  -0.245  1.00  0.00     0.106 A 
HETATM   13  C   UNL     1      -3.095  -1.777  -0.519  1.00  0.00     0.078 A 
HETATM   14  C   UNL     1      -2.789  -3.118  -0.269  1.00  0.00     0.085 A 
HETATM   15  C   UNL     1      -1.557  -3.474   0.259  1.00  0.00     0.039 A 
HETATM   16  C   UNL     1      -0.620  -2.482   0.541  1.00  0.00     0.017 A 
HETATM   17 BR   UNL     1      -4.802  -1.338  -1.238  1.00  0.00    -0.045 Br
HETATM   18  O   UNL     1      -2.495   0.520  -0.538  1.00  0.00    -0.306 OA
HETATM   19  C   UNL     1      -1.649   1.558  -0.227  1.00  0.00     0.106 A 
HETATM   20  C   UNL     1      -0.380   1.356   0.325  1.00  0.00     0.022 A 
HETATM   21  C   UNL     1       0.420   2.481   0.621  1.00  0.00     0.017 A 
HETATM   22  C   UNL     1      -0.022   3.774   0.346  1.00  0.00     0.039 A 
HETATM   23  C   UNL     1      -1.278   3.962  -0.219  1.00  0.00     0.085 A 
HETATM   24  C   UNL     1      -2.099   2.863  -0.502  1.00  0.00     0.078 A 
HETATM   25 BR   UNL     1      -3.818   3.143  -1.276  1.00  0.00    -0.045 Br
ENDROOT
BRANCH  14  26
HETATM   26  O   UNL     1      -3.663  -4.137  -0.527  1.00  0.00    -0.359 OA
HETATM   27  H   UNL     1      -4.483  -3.741  -0.874  1.00  0.00     0.217 HD
ENDBRANCH  14  26
BRANCH  23  28
HETATM   28  O   UNL     1      -1.699   5.233  -0.501  1.00  0.00    -0.359 OA
HETATM   29  H   UNL     1      -1.022   5.870  -0.225  1.00  0.00     0.217 HD
ENDBRANCH  23  28
TORSDOF 2
