REMARK  22 active torsions:
REMARK  status: ('A' for Active; 'I' for Inactive)
REMARK    1  A    between atoms: C_2  and  C_3 
REMARK    2  A    between atoms: C_3  and  C_4 
REMARK    3  A    between atoms: C_4  and  C_5 
REMARK    4  A    between atoms: C_5  and  C_6 
REMARK    5  A    between atoms: C_6  and  C_7 
REMARK    6  A    between atoms: C_7  and  C_8 
REMARK    7  A    between atoms: C_8  and  C_9 
REMARK    8  A    between atoms: C_10  and  C_11 
REMARK    9  A    between atoms: C_11  and  C_12 
REMARK   10  A    between atoms: C_12  and  C_13 
REMARK   11  A    between atoms: C_13  and  C_14 
REMARK   12  A    between atoms: C_14  and  C_15 
REMARK   13  A    between atoms: C_15  and  C_16 
REMARK   14  A    between atoms: C_16  and  C_17 
REMARK   15  A    between atoms: C_17  and  C_18 
REMARK   16  A    between atoms: C_18  and  O_20 
REMARK   17  A    between atoms: O_20  and  C_21 
REMARK   18  A    between atoms: C_21  and  C_22 
REMARK   19  A    between atoms: C_22  and  C_23 
REMARK   20  A    between atoms: C_22  and  O_30 
REMARK   21  A    between atoms: C_24  and  O_29 
REMARK   22  A    between atoms: C_25  and  O_28 
ROOT
HETATM    1  C   UNL     1      14.978  -7.290   7.684  1.00  0.00     0.111 C 
ENDROOT
BRANCH   1   2
HETATM    2  C   UNL     1      14.600  -6.085   6.831  1.00  0.00     0.010 C 
BRANCH   2   3
HETATM    3  C   UNL     1      15.070  -6.259   5.383  1.00  0.00     0.000 C 
BRANCH   3   4
HETATM    4  C   UNL     1      14.481  -7.484   4.673  1.00  0.00     0.000 C 
BRANCH   4   5
HETATM    5  C   UNL     1      12.950  -7.482   4.578  1.00  0.00     0.000 C 
BRANCH   5   6
HETATM    6  C   UNL     1      12.377  -6.287   3.812  1.00  0.00     0.004 C 
BRANCH   6   7
HETATM    7  C   UNL     1      12.857  -6.266   2.362  1.00  0.00     0.027 C 
BRANCH   7   8
HETATM    8  C   UNL     1      12.365  -5.055   1.640  1.00  0.00    -0.031 C 
HETATM    9  C   UNL     1      13.195  -4.139   1.122  1.00  0.00    -0.031 C 
BRANCH   9  10
HETATM   10  C   UNL     1      12.726  -2.938   0.370  1.00  0.00     0.027 C 
BRANCH  10  11
HETATM   11  C   UNL     1      13.224  -2.997  -1.070  1.00  0.00     0.004 C 
BRANCH  11  12
HETATM   12  C   UNL     1      12.710  -1.797  -1.855  1.00  0.00     0.000 C 
BRANCH  12  13
HETATM   13  C   UNL     1      13.201  -1.839  -3.297  1.00  0.00     0.000 C 
BRANCH  13  14
HETATM   14  C   UNL     1      12.683  -0.633  -4.073  1.00  0.00     0.000 C 
BRANCH  14  15
HETATM   15  C   UNL     1      13.173  -0.667  -5.517  1.00  0.00    -0.000 C 
BRANCH  15  16
HETATM   16  C   UNL     1      12.660   0.538  -6.299  1.00  0.00    -0.005 C 
HETATM   17  C   UNL     1      13.151   0.503  -7.736  1.00  0.00     0.005 C 
ENDBRANCH  15  16
ENDBRANCH  14  15
ENDBRANCH  13  14
ENDBRANCH  12  13
ENDBRANCH  11  12
ENDBRANCH  10  11
ENDBRANCH   9  10
ENDBRANCH   7   8
ENDBRANCH   6   7
ENDBRANCH   5   6
ENDBRANCH   4   5
ENDBRANCH   3   4
ENDBRANCH   2   3
ENDBRANCH   1   2
BRANCH   1  18
HETATM   18  C   UNL     1      14.560  -7.143   9.122  1.00  0.00     0.258 C 
HETATM   19  O   UNL     1      14.939  -6.246   9.861  1.00  0.00    -0.265 OA
BRANCH  18  20
HETATM   20  O   UNL     1      13.779  -8.201   9.487  1.00  0.00    -0.319 OA
BRANCH  20  21
HETATM   21  C   UNL     1      13.729  -8.460  10.880  1.00  0.00     0.213 C 
BRANCH  21  22
HETATM   22  C   UNL     1      12.844  -7.483  11.654  1.00  0.00     0.174 C 
BRANCH  22  23
HETATM   23  C   UNL     1      11.381  -7.509  11.182  1.00  0.00     0.183 C 
HETATM   24  C   UNL     1      10.488  -6.500  11.930  1.00  0.00     0.180 C 
HETATM   25  C   UNL     1       9.164  -7.251  12.152  1.00  0.00     0.173 C 
HETATM   26  C   UNL     1       9.373  -8.586  11.451  1.00  0.00     0.202 C 
HETATM   27  O   UNL     1      10.792  -8.807  11.431  1.00  0.00    -0.378 OA
BRANCH  24  28
HETATM   28  O   UNL     1      10.334  -5.263  11.237  1.00  0.00    -0.390 OA
HETATM   29  H   UNL     1      10.067  -5.436  10.324  1.00  0.00     0.210 HD
ENDBRANCH  24  28
BRANCH  25  30
HETATM   30  O   UNL     1       7.982  -6.585  11.728  1.00  0.00    -0.391 OA
HETATM   31  H   UNL     1       8.020  -6.391  10.777  1.00  0.00     0.210 HD
ENDBRANCH  25  30
ENDBRANCH  22  23
BRANCH  22  32
HETATM   32  O   UNL     1      12.944  -7.832  13.035  1.00  0.00    -0.391 OA
HETATM   33  H   UNL     1      12.534  -8.712  13.144  1.00  0.00     0.210 HD
ENDBRANCH  22  32
ENDBRANCH  21  22
ENDBRANCH  20  21
ENDBRANCH  18  20
ENDBRANCH   1  18
TORSDOF 22
