REMARK  15 active torsions:
REMARK  status: ('A' for Active; 'I' for Inactive)
REMARK    1  A    between atoms: C_3  and  C_4 
REMARK    2  A    between atoms: C_4  and  C_5 
REMARK    3  A    between atoms: C_5  and  C_6 
REMARK    4  A    between atoms: C_7  and  C_8 
REMARK    5  A    between atoms: C_8  and  C_9 
REMARK    6  A    between atoms: C_9  and  C_10 
REMARK    7  A    between atoms: C_11  and  C_12 
REMARK    8  A    between atoms: C_12  and  C_13 
REMARK    9  A    between atoms: C_13  and  C_14 
REMARK   10  A    between atoms: C_15  and  C_17 
REMARK   11  A    between atoms: C_17  and  C_18 
REMARK   12  A    between atoms: C_18  and  C_19 
REMARK   13  A    between atoms: C_20  and  C_22 
REMARK   14  A    between atoms: C_22  and  C_23 
REMARK   15  A    between atoms: C_23  and  C_24 
ROOT
HETATM    1  C   UNL     1       0.044   1.238  -0.535  1.00  0.00     0.031 C 
ENDROOT
BRANCH   1   2
HETATM    2  C   UNL     1      -1.408   1.142  -0.936  1.00  0.00    -0.024 C 
HETATM    3  C   UNL     1      -1.945   0.690  -2.093  1.00  0.00    -0.087 C 
HETATM    4  C   UNL     1      -3.446   0.846  -2.251  1.00  0.00     0.043 C 
BRANCH   3   5
HETATM    5  C   UNL     1      -1.129   0.073  -3.240  1.00  0.00     0.037 C 
BRANCH   5   6
HETATM    6  C   UNL     1      -1.976  -0.434  -4.429  1.00  0.00     0.031 C 
BRANCH   6   7
HETATM    7  C   UNL     1      -1.293  -1.105  -5.588  1.00  0.00    -0.024 C 
HETATM    8  C   UNL     1      -1.854  -1.950  -6.486  1.00  0.00    -0.087 C 
HETATM    9  C   UNL     1      -0.967  -2.529  -7.571  1.00  0.00     0.043 C 
BRANCH   8  10
HETATM   10  C   UNL     1      -3.298  -2.450  -6.549  1.00  0.00     0.037 C 
BRANCH  10  11
HETATM   11  C   UNL     1      -4.437  -1.510  -6.130  1.00  0.00     0.031 C 
BRANCH  11  12
HETATM   12  C   UNL     1      -5.781  -2.191  -6.080  1.00  0.00    -0.024 C 
HETATM   13  C   UNL     1      -6.297  -2.808  -4.997  1.00  0.00    -0.091 C 
HETATM   14  C   UNL     1      -5.518  -3.020  -3.726  1.00  0.00     0.042 C 
HETATM   15  C   UNL     1      -7.713  -3.317  -5.001  1.00  0.00     0.042 C 
ENDBRANCH  11  12
ENDBRANCH  10  11
ENDBRANCH   8  10
ENDBRANCH   6   7
ENDBRANCH   5   6
ENDBRANCH   3   5
ENDBRANCH   1   2
BRANCH   1  16
HETATM   16  C   UNL     1       0.386   0.554   0.808  1.00  0.00     0.031 C 
BRANCH  16  17
HETATM   17  C   UNL     1       1.872   0.627   1.109  1.00  0.00    -0.024 C 
HETATM   18  C   UNL     1       2.504   0.737   2.301  1.00  0.00    -0.087 C 
HETATM   19  C   UNL     1       1.788   0.807   3.628  1.00  0.00     0.043 C 
BRANCH  18  20
HETATM   20  C   UNL     1       4.035   0.743   2.448  1.00  0.00     0.037 C 
BRANCH  20  21
HETATM   21  C   UNL     1       4.844   1.288   1.259  1.00  0.00     0.031 C 
BRANCH  21  22
HETATM   22  C   UNL     1       6.347   1.253   1.425  1.00  0.00    -0.024 C 
HETATM   23  C   UNL     1       7.148   2.249   1.862  1.00  0.00    -0.087 C 
HETATM   24  C   UNL     1       6.615   3.522   2.468  1.00  0.00     0.043 C 
BRANCH  23  25
HETATM   25  C   UNL     1       8.684   2.219   1.795  1.00  0.00     0.037 C 
BRANCH  25  26
HETATM   26  C   UNL     1       9.335   1.015   1.096  1.00  0.00     0.031 C 
BRANCH  26  27
HETATM   27  C   UNL     1      10.844   1.064   1.082  1.00  0.00    -0.024 C 
HETATM   28  C   UNL     1      11.681   0.528   1.994  1.00  0.00    -0.091 C 
HETATM   29  C   UNL     1      11.232  -0.131   3.271  1.00  0.00     0.042 C 
HETATM   30  C   UNL     1      13.172   0.539   1.793  1.00  0.00     0.042 C 
ENDBRANCH  26  27
ENDBRANCH  25  26
ENDBRANCH  23  25
ENDBRANCH  21  22
ENDBRANCH  20  21
ENDBRANCH  18  20
ENDBRANCH  16  17
ENDBRANCH   1  16
TORSDOF 15
