REMARK  23 active torsions:
REMARK  status: ('A' for Active; 'I' for Inactive)
REMARK    1  A    between atoms: C_2  and  C_3 
REMARK    2  A    between atoms: C_3  and  C_4 
REMARK    3  A    between atoms: C_4  and  C_5 
REMARK    4  A    between atoms: C_5  and  C_6 
REMARK    5  A    between atoms: C_6  and  C_7 
REMARK    6  A    between atoms: C_7  and  C_8 
REMARK    7  A    between atoms: C_8  and  C_9 
REMARK    8  A    between atoms: C_9  and  C_10 
REMARK    9  A    between atoms: C_10  and  C_11 
REMARK   10  A    between atoms: C_11  and  C_12 
REMARK   11  A    between atoms: C_12  and  C_13 
REMARK   12  A    between atoms: C_13  and  C_14 
REMARK   13  A    between atoms: C_14  and  C_15 
REMARK   14  A    between atoms: C_15  and  C_16 
REMARK   15  A    between atoms: C_16  and  C_17 
REMARK   16  A    between atoms: C_17  and  C_18 
REMARK       I    between atoms: C_18  and  N_20 
REMARK   17  A    between atoms: N_20  and  CA_21 
REMARK   18  A    between atoms: CA_21  and  CB_22 
REMARK   19  A    between atoms: CA_21  and  C_27 
REMARK   20  A    between atoms: CB_22  and  CG_23 
REMARK   21  A    between atoms: CG_23  and  CD_24 
REMARK   22  A    between atoms: CD_24  and  OE2_26 
REMARK   23  A    between atoms: C_27  and  OXT_29 
ROOT
HETATM    1  C   UNK A   0      16.615   9.761  -2.665  1.00  0.00     0.009 C 
ENDROOT
BRANCH   1   2
HETATM    2  C   UNK A   0      15.093   9.741  -2.653  1.00  0.00     0.000 C 
BRANCH   2   3
HETATM    3  C   UNK A   0      14.592   8.350  -2.280  1.00  0.00     0.000 C 
BRANCH   3   4
HETATM    4  C   UNK A   0      13.072   8.322  -2.270  1.00  0.00     0.000 C 
BRANCH   4   5
HETATM    5  C   UNK A   0      12.567   6.938  -1.897  1.00  0.00     0.000 C 
BRANCH   5   6
HETATM    6  C   UNK A   0      11.048   6.927  -1.894  1.00  0.00     0.000 C 
BRANCH   6   7
HETATM    7  C   UNK A   0      10.534   5.548  -1.521  1.00  0.00     0.000 C 
BRANCH   7   8
HETATM    8  C   UNK A   0       9.016   5.543  -1.518  1.00  0.00     0.000 C 
BRANCH   8   9
HETATM    9  C   UNK A   0       8.503   4.164  -1.144  1.00  0.00     0.000 C 
BRANCH   9  10
HETATM   10  C   UNK A   0       6.985   4.157  -1.141  1.00  0.00     0.000 C 
BRANCH  10  11
HETATM   11  C   UNK A   0       6.472   2.778  -0.765  1.00  0.00     0.000 C 
BRANCH  11  12
HETATM   12  C   UNK A   0       4.952   2.768  -0.764  1.00  0.00     0.000 C 
BRANCH  12  13
HETATM   13  C   UNK A   0       4.436   1.387  -0.387  1.00  0.00     0.000 C 
BRANCH  13  14
HETATM   14  C   UNK A   0       2.914   1.375  -0.386  1.00  0.00    -0.000 C 
BRANCH  14  15
HETATM   15  C   UNK A   0       2.385  -0.003  -0.008  1.00  0.00    -0.005 C 
HETATM   16  C   UNK A   0       0.868  -0.013  -0.006  1.00  0.00     0.005 C 
ENDBRANCH  14  15
ENDBRANCH  13  14
ENDBRANCH  12  13
ENDBRANCH  11  12
ENDBRANCH  10  11
ENDBRANCH   9  10
ENDBRANCH   8   9
ENDBRANCH   7   8
ENDBRANCH   6   7
ENDBRANCH   5   6
ENDBRANCH   4   5
ENDBRANCH   3   4
ENDBRANCH   2   3
ENDBRANCH   1   2
BRANCH   1  17
HETATM   17  C   UNK A   0      17.168  11.130  -3.039  1.00  0.00     0.103 C 
BRANCH  17  18
HETATM   18  C   UNK A   0      18.684  11.083  -3.012  1.00  0.00     0.218 C 
HETATM   19  O   UNK A   0      19.302  11.340  -1.982  1.00  0.00    -0.274 OA
ATOM     20  N   GLU A   1      19.247  10.630  -4.196  1.00  0.00    -0.347 N 
ATOM     21  H   GLU A   1      18.666  10.592  -5.027  1.00  0.00     0.163 HD
BRANCH  20  22
ATOM     22  CA  GLU A   1      20.692  10.406  -4.396  1.00  0.00     0.182 C 
BRANCH  22  23
ATOM     23  CB  GLU A   1      21.241   9.339  -3.424  1.00  0.00     0.046 C 
BRANCH  23  24
ATOM     24  CG  GLU A   1      20.574   7.979  -3.627  1.00  0.00     0.112 C 
BRANCH  24  25
ATOM     25  CD  GLU A   1      21.093   6.907  -2.706  1.00  0.00     0.139 C 
ATOM     26  OE1 GLU A   1      21.945   7.052  -1.843  1.00  0.00    -0.650 OA
BRANCH  25  27
ATOM     27  OE2 GLU A   1      20.454   5.732  -2.950  1.00  0.00    -0.776 OA
ATOM     28  HE2 GLU A   1      19.761   5.780  -3.645  1.00  0.00     0.167 HD
ENDBRANCH  25  27
ENDBRANCH  24  25
ENDBRANCH  23  24
ENDBRANCH  22  23
BRANCH  22  29
ATOM     29  C   GLU A   1      20.985   9.991  -5.863  1.00  0.00     0.163 C 
ATOM     30  O   GLU A   1      20.125   9.807  -6.713  1.00  0.00    -0.648 OA
BRANCH  29  31
ATOM     31  OXT GLU A   1      22.291   9.716  -6.100  1.00  0.00    -0.775 OA
ATOM     32  HXT GLU A   1      22.887   9.933  -5.359  1.00  0.00     0.167 HD
ENDBRANCH  29  31
ENDBRANCH  22  29
ENDBRANCH  20  22
ENDBRANCH  17  18
ENDBRANCH   1  17
TORSDOF 23
