REMARK  17 active torsions:
REMARK  status: ('A' for Active; 'I' for Inactive)
REMARK    1  A    between atoms: C_2  and  C_3 
REMARK    2  A    between atoms: C_3  and  C_4 
REMARK    3  A    between atoms: C_4  and  C_5 
REMARK    4  A    between atoms: C_5  and  C_6 
REMARK    5  A    between atoms: C_6  and  C_7 
REMARK    6  A    between atoms: C_7  and  C_8 
REMARK    7  A    between atoms: C_8  and  C_9 
REMARK    8  A    between atoms: C_9  and  C_10 
REMARK    9  A    between atoms: C_10  and  C_11 
REMARK   10  A    between atoms: C_11  and  C_12 
REMARK   11  A    between atoms: C_12  and  C_13 
REMARK   12  A    between atoms: C_13  and  C_14 
REMARK   13  A    between atoms: C_14  and  C_15 
REMARK   14  A    between atoms: C_15  and  C_16 
REMARK   15  A    between atoms: C_16  and  C_17 
REMARK   16  A    between atoms: C_17  and  C_18 
REMARK   17  A    between atoms: C_18  and  O_20 
ROOT
HETATM    1  C   UNL     1      11.185  -6.858   1.750  1.00  0.00     0.000 C 
ENDROOT
BRANCH   1   2
HETATM    2  C   UNL     1      10.675  -5.474   1.401  1.00  0.00     0.000 C 
BRANCH   2   3
HETATM    3  C   UNL     1       9.158  -5.469   1.399  1.00  0.00     0.000 C 
BRANCH   3   4
HETATM    4  C   UNL     1       8.648  -4.084   1.050  1.00  0.00     0.000 C 
BRANCH   4   5
HETATM    5  C   UNL     1       7.131  -4.079   1.050  1.00  0.00     0.000 C 
BRANCH   5   6
HETATM    6  C   UNL     1       6.621  -2.694   0.699  1.00  0.00     0.000 C 
BRANCH   6   7
HETATM    7  C   UNL     1       5.104  -2.689   0.697  1.00  0.00     0.000 C 
BRANCH   7   8
HETATM    8  C   UNL     1       4.593  -1.303   0.347  1.00  0.00     0.000 C 
BRANCH   8   9
HETATM    9  C   UNL     1       3.075  -1.296   0.344  1.00  0.00    -0.000 C 
BRANCH   9  10
HETATM   10  C   UNL     1       2.555   0.089  -0.008  1.00  0.00    -0.005 C 
HETATM   11  C   UNL     1       1.041   0.090  -0.013  1.00  0.00     0.005 C 
ENDBRANCH   9  10
ENDBRANCH   8   9
ENDBRANCH   7   8
ENDBRANCH   6   7
ENDBRANCH   5   6
ENDBRANCH   4   5
ENDBRANCH   3   4
ENDBRANCH   2   3
ENDBRANCH   1   2
BRANCH   1  12
HETATM   12  C   UNL     1      12.703  -6.864   1.752  1.00  0.00     0.000 C 
BRANCH  12  13
HETATM   13  C   UNL     1      13.215  -8.250   2.102  1.00  0.00     0.000 C 
BRANCH  13  14
HETATM   14  C   UNL     1      14.733  -8.261   2.105  1.00  0.00     0.000 C 
BRANCH  14  15
HETATM   15  C   UNL     1      15.246  -9.652   2.456  1.00  0.00     0.001 C 
BRANCH  15  16
HETATM   16  C   UNL     1      16.766  -9.669   2.460  1.00  0.00     0.010 C 
BRANCH  16  17
HETATM   17  C   UNL     1      17.326 -11.044   2.808  1.00  0.00     0.110 C 
BRANCH  17  18
HETATM   18  C   UNL     1      18.836 -11.012   2.799  1.00  0.00     0.139 C 
HETATM   19  O   UNL     1      19.490 -10.005   2.545  1.00  0.00    -0.650 OA
BRANCH  18  20
HETATM   20  O   UNL     1      19.451 -12.165   3.091  1.00  0.00    -0.776 OA
HETATM   21  H   UNL     1      18.890 -12.938   3.286  1.00  0.00     0.167 HD
ENDBRANCH  18  20
ENDBRANCH  17  18
ENDBRANCH  16  17
ENDBRANCH  15  16
ENDBRANCH  14  15
ENDBRANCH  13  14
ENDBRANCH  12  13
ENDBRANCH   1  12
TORSDOF 17
