REMARK WARNING: 32 MAX_TORS EXCEEDED!!!
REMARK  37 active torsions:
REMARK  status: ('A' for Active; 'I' for Inactive)
REMARK    1  A    between atoms: C_2  and  C_3 
REMARK    2  A    between atoms: C_3  and  C_4 
REMARK    3  A    between atoms: C_4  and  C_5 
REMARK    4  A    between atoms: C_5  and  C_6 
REMARK    5  A    between atoms: C_6  and  C_7 
REMARK    6  A    between atoms: C_7  and  C_8 
REMARK    7  A    between atoms: C_8  and  C_9 
REMARK    8  A    between atoms: C_9  and  C_10 
REMARK    9  A    between atoms: C_10  and  C_11 
REMARK   10  A    between atoms: C_11  and  C_12 
REMARK   11  A    between atoms: C_12  and  C_13 
REMARK   12  A    between atoms: C_13  and  C_14 
REMARK   13  A    between atoms: C_14  and  C_15 
REMARK   14  A    between atoms: C_15  and  C_16 
REMARK   15  A    between atoms: C_16  and  C_17 
REMARK   16  A    between atoms: C_17  and  C_18 
REMARK       I    between atoms: C_18  and  N_20 
REMARK   17  A    between atoms: N_20  and  C_21 
REMARK   18  A    between atoms: C_21  and  C_22 
REMARK   19  A    between atoms: C_22  and  C_23 
REMARK   20  A    between atoms: C_23  and  N_24 
REMARK   21  A    between atoms: C_29  and  C_30 
REMARK   22  A    between atoms: C_30  and  C_31 
REMARK   23  A    between atoms: C_31  and  C_32 
REMARK   24  A    between atoms: C_32  and  C_33 
REMARK   25  A    between atoms: C_33  and  C_34 
REMARK   26  A    between atoms: C_34  and  C_35 
REMARK   27  A    between atoms: C_35  and  C_36 
REMARK   28  A    between atoms: C_36  and  C_37 
REMARK   29  A    between atoms: C_37  and  C_38 
REMARK   30  A    between atoms: C_38  and  C_39 
REMARK   31  A    between atoms: C_39  and  C_40 
REMARK   32  A    between atoms: C_40  and  C_41 
REMARK   33  A    between atoms: C_41  and  C_42 
REMARK   34  A    between atoms: C_42  and  C_43 
REMARK   35  A    between atoms: C_43  and  C_44 
REMARK   36  A    between atoms: C_44  and  C_45 
REMARK   37  A    between atoms: C_45  and  O_47 
ROOT
HETATM    1  C   UNL     2      10.579  -2.467   7.255  1.00  0.00     0.000 C 
ENDROOT
BRANCH   1   2
HETATM    2  C   UNL     2      10.287  -2.055   5.833  1.00  0.00     0.000 C 
BRANCH   2   3
HETATM    3  C   UNL     2       8.825  -2.275   5.580  1.00  0.00     0.000 C 
BRANCH   3   4
HETATM    4  C   UNL     2       8.515  -1.869   4.167  1.00  0.00     0.000 C 
BRANCH   4   5
HETATM    5  C   UNL     2       7.048  -2.113   3.967  1.00  0.00     0.000 C 
BRANCH   5   6
HETATM    6  C   UNL     2       6.693  -1.725   2.566  1.00  0.00     0.000 C 
BRANCH   6   7
HETATM    7  C   UNL     2       5.223  -1.985   2.404  1.00  0.00     0.000 C 
BRANCH   7   8
HETATM    8  C   UNL     2       4.854  -1.601   1.003  1.00  0.00     0.000 C 
BRANCH   8   9
HETATM    9  C   UNL     2       3.383  -1.857   0.815  1.00  0.00    -0.000 C 
BRANCH   9  10
HETATM   10  C   UNL     2       3.003  -1.481  -0.599  1.00  0.00    -0.005 C 
HETATM   11  C   UNL     2       1.521  -1.706  -0.800  1.00  0.00     0.005 C 
ENDBRANCH   9  10
ENDBRANCH   8   9
ENDBRANCH   7   8
ENDBRANCH   6   7
ENDBRANCH   5   6
ENDBRANCH   4   5
ENDBRANCH   3   4
ENDBRANCH   2   3
ENDBRANCH   1   2
BRANCH   1  12
HETATM   12  C   UNL     2      12.045  -2.245   7.520  1.00  0.00     0.000 C 
BRANCH  12  13
HETATM   13  C   UNL     2      12.360  -2.643   8.937  1.00  0.00     0.000 C 
BRANCH  13  14
HETATM   14  C   UNL     2      13.841  -2.430   9.200  1.00  0.00     0.000 C 
BRANCH  14  15
HETATM   15  C   UNL     2      14.213  -2.838  10.618  1.00  0.00     0.001 C 
BRANCH  15  16
HETATM   16  C   UNL     2      13.905  -4.313  10.833  1.00  0.00     0.010 C 
BRANCH  16  17
HETATM   17  C   UNL     2      14.258  -4.777  12.234  1.00  0.00     0.110 C 
BRANCH  17  18
HETATM   18  C   UNL     2      13.935  -6.239  12.423  1.00  0.00     0.139 C 
HETATM   19  O   UNL     2      13.439  -6.986  11.558  1.00  0.00    -0.650 OA
BRANCH  18  20
HETATM   20  O   UNL     2      14.239  -6.671  13.654  1.00  0.00    -0.776 OA
HETATM   21  H   UNL     2      14.623  -5.967  14.228  1.00  0.00     0.167 HD
ENDBRANCH  18  20
ENDBRANCH  17  18
ENDBRANCH  16  17
ENDBRANCH  15  16
ENDBRANCH  14  15
ENDBRANCH  13  14
ENDBRANCH  12  13
ENDBRANCH   1  12
TORSDOF 37
