REMARK  7 active torsions:
REMARK  status: ('A' for Active; 'I' for Inactive)
REMARK    1  A    between atoms: C_1  and  C_2 
REMARK    2  A    between atoms: C_1  and  C_7 
REMARK    3  A    between atoms: C_1  and  O_10 
REMARK    4  A    between atoms: C_2  and  C_3 
REMARK    5  A    between atoms: C_2  and  O_6 
REMARK    6  A    between atoms: C_3  and  O_5 
REMARK    7  A    between atoms: C_7  and  O_9 
ROOT
HETATM    1  C   UNL     1       0.886   0.020  -0.013  1.00  0.00     0.254 C 
ENDROOT
BRANCH   1   2
HETATM    2  C   UNL     1       0.467  -0.585  -1.360  1.00  0.00     0.254 C 
BRANCH   2   3
HETATM    3  C   UNL     1       1.182  -1.904  -1.618  1.00  0.00     0.172 C 
HETATM    4  O   UNL     1       2.299  -2.165  -1.195  1.00  0.00    -0.648 OA
BRANCH   3   5
HETATM    5  O   UNL     1       0.458  -2.732  -2.404  1.00  0.00    -0.774 OA
HETATM    6  H   UNL     1      -0.413  -2.316  -2.608  1.00  0.00     0.167 HD
ENDBRANCH   3   5
ENDBRANCH   2   3
BRANCH   2   7
HETATM    7  O   UNL     1      -0.949  -0.787  -1.486  1.00  0.00    -0.382 OA
HETATM    8  H   UNL     1      -1.252  -1.252  -0.671  1.00  0.00     0.210 HD
ENDBRANCH   2   7
ENDBRANCH   1   2
BRANCH   1   9
HETATM    9  C   UNL     1       0.467  -0.874   1.145  1.00  0.00     0.172 C 
HETATM   10  O   UNL     1      -0.520  -1.596   1.124  1.00  0.00    -0.648 OA
BRANCH   9  11
HETATM   11  O   UNL     1       1.286  -0.743   2.215  1.00  0.00    -0.774 OA
HETATM   12  H   UNL     1       2.018  -0.121   1.993  1.00  0.00     0.167 HD
ENDBRANCH   9  11
ENDBRANCH   1   9
BRANCH   1  13
HETATM   13  O   UNL     1       2.293   0.286   0.087  1.00  0.00    -0.382 OA
HETATM   14  H   UNL     1       2.767  -0.526  -0.209  1.00  0.00     0.210 HD
ENDBRANCH   1  13
TORSDOF 7
