REMARK  4 active torsions:
REMARK  status: ('A' for Active; 'I' for Inactive)
REMARK    1  A    between atoms: C_1  and  C_2 
REMARK    2  A    between atoms: C_1  and  N_7 
REMARK    3  A    between atoms: C_2  and  S_3 
REMARK    4  A    between atoms: S_3  and  O_6 
ROOT
HETATM    1  C   UNL     1       0.566  -1.092   1.004  1.00  0.00     0.185 C 
ENDROOT
BRANCH   1   2
HETATM    2  C   UNL     1       1.096  -0.081   0.002  1.00  0.00     0.283 C 
BRANCH   2   3
HETATM    3  N   UNL     1       2.561  -0.089  -0.024  1.00  0.00     0.079 N 
HETATM    4  H   UNL     1       2.930   0.248   0.866  1.00  0.00     0.312 HD
HETATM    5  H   UNL     1       2.889   0.573  -0.728  1.00  0.00     0.312 HD
ENDBRANCH   2   3
ENDBRANCH   1   2
BRANCH   1   6
HETATM    6  S   UNL     1      -1.219  -1.047   1.030  1.00  0.00     0.095 S 
HETATM    7  O   UNL     1      -1.665   0.256   1.470  1.00  0.00    -0.601 OA
HETATM    8  O   UNL     1      -1.748  -1.697  -0.146  1.00  0.00    -0.601 OA
BRANCH   6   9
HETATM    9  O   UNL     1      -1.444  -2.025   2.295  1.00  0.00    -0.296 OA
HETATM   10  H   UNL     1      -1.896  -1.510   2.998  1.00  0.00     0.232 HD
ENDBRANCH   6   9
ENDBRANCH   1   6
TORSDOF 4
