REMARK  6 active torsions:
REMARK  status: ('A' for Active; 'I' for Inactive)
REMARK    1  A    between atoms: C_5  and  C_6 
REMARK    2  A    between atoms: C_6  and  C_7 
REMARK    3  A    between atoms: C_7  and  C_8 
REMARK    4  A    between atoms: C_8  and  C_9 
REMARK    5  A    between atoms: C_9  and  C_10 
REMARK    6  A    between atoms: C_10  and  O_12 
ROOT
HETATM    1  C   UNL     1      -1.450   2.543  -2.382  1.00  0.00     0.002 C 
ENDROOT
BRANCH   1   2
HETATM    2  C   UNL     1      -1.197   1.101  -1.928  1.00  0.00     0.016 C 
BRANCH   2   3
HETATM    3  C   UNL     1      -1.244   0.931  -0.401  1.00  0.00     0.059 C 
HETATM    4  C   UNL     1      -0.163   1.695   0.375  1.00  0.00     0.027 C 
HETATM    5  C   UNL     1       1.224   1.131   0.081  1.00  0.00     0.087 C 
HETATM    6  S   UNL     1       1.108  -0.678   0.151  1.00  0.00    -0.097 SA
HETATM    7  S   UNL     1      -0.936  -0.814   0.026  1.00  0.00    -0.093 SA
ENDBRANCH   2   3
ENDBRANCH   1   2
BRANCH   1   8
HETATM    8  C   UNL     1      -1.391   2.649  -3.906  1.00  0.00     0.010 C 
BRANCH   8   9
HETATM    9  C   UNL     1      -1.636   4.079  -4.383  1.00  0.00     0.110 C 
BRANCH   9  10
HETATM   10  C   UNL     1      -1.573   4.181  -5.890  1.00  0.00     0.139 C 
HETATM   11  O   UNL     1      -1.355   3.254  -6.652  1.00  0.00    -0.650 OA
BRANCH  10  12
HETATM   12  O   UNL     1      -1.784   5.442  -6.330  1.00  0.00    -0.776 OA
HETATM   13  H   UNL     1      -1.947   6.086  -5.615  1.00  0.00     0.167 HD
ENDBRANCH  10  12
ENDBRANCH   9  10
ENDBRANCH   8   9
ENDBRANCH   1   8
TORSDOF 6
