REMARK  19 active torsions:
REMARK  status: ('A' for Active; 'I' for Inactive)
REMARK    1  A    between atoms: C_3  and  C_10 
REMARK    2  A    between atoms: C_11  and  C_12 
REMARK    3  A    between atoms: C_13  and  C_14 
REMARK    4  A    between atoms: C_15  and  C_16 
REMARK    5  A    between atoms: C_17  and  C_18 
REMARK    6  A    between atoms: C_18  and  O_20 
REMARK    7  A    between atoms: O_20  and  C_21 
REMARK    8  A    between atoms: C_30  and  C_34 
REMARK    9  A    between atoms: C_34  and  C_35 
REMARK   10  A    between atoms: C_35  and  C_36 
REMARK   11  A    between atoms: C_36  and  C_37 
REMARK   12  A    between atoms: C_37  and  C_39 
REMARK   13  A    between atoms: C_39  and  C_40 
REMARK   14  A    between atoms: C_40  and  C_41 
REMARK   15  A    between atoms: C_41  and  C_42 
REMARK   16  A    between atoms: C_42  and  C_44 
REMARK   17  A    between atoms: C_44  and  C_45 
REMARK   18  A    between atoms: C_45  and  C_46 
REMARK   19  A    between atoms: C_46  and  C_47 
ROOT
HETATM    1  C   UNL     1      -0.822  -0.329  -0.260  1.00  0.00     0.092 A 
HETATM    2  C   UNL     1       0.071  -0.946  -1.313  1.00  0.00    -0.018 A 
HETATM    3  C   UNL     1       1.252  -0.203  -1.485  1.00  0.00    -0.015 A 
HETATM    4  C   UNL     1       1.472   0.982  -0.618  1.00  0.00     0.083 A 
HETATM    5  C   UNL     1       0.527   1.500   0.438  1.00  0.00    -0.019 A 
HETATM    6  C   UNL     1      -0.714   0.818   0.571  1.00  0.00    -0.019 A 
HETATM    7  C   UNL     1      -1.812   1.525   1.458  1.00  0.00     0.052 C 
HETATM    8  C   UNL     1       0.804   2.671   1.479  1.00  0.00     0.052 C 
HETATM    9  O   UNL     1       2.661   1.693  -0.823  1.00  0.00    -0.339 OA
HETATM   10  C   UNL     1       3.838   0.904  -1.187  1.00  0.00     0.064 C 
HETATM   11  C   UNL     1       3.588   0.040  -2.452  1.00  0.00     0.043 C 
HETATM   12  C   UNL     1       2.340  -0.806  -2.380  1.00  0.00     0.045 C 
HETATM   13  C   UNL     1       4.416   0.237   0.086  1.00  0.00     0.046 C 
HETATM   14  C   UNL     1      -0.089  -2.322  -2.075  1.00  0.00     0.052 C 
ENDROOT
BRANCH   1  15
HETATM   15  O   UNL     1      -1.836  -1.378   0.082  1.00  0.00    -0.274 OA
BRANCH  15  16
HETATM   16  C   UNL     1      -2.804  -2.349   0.431  1.00  0.00     0.288 C 
HETATM   17  O   UNL     1      -2.873  -3.450  -0.086  1.00  0.00    -0.260 OA
BRANCH  16  18
HETATM   18  C   UNL     1      -3.393  -2.050   1.714  1.00  0.00     0.089 C 
HETATM   19  C   UNL     1      -4.582  -2.545   2.110  1.00  0.00    -0.056 C 
HETATM   20  C   UNL     1      -5.019  -2.378   3.491  1.00  0.00     0.048 C 
BRANCH  19  21
HETATM   21  C   UNL     1      -5.509  -3.252   1.155  1.00  0.00     0.007 C 
HETATM   22  C   UNL     1      -6.765  -2.841   0.915  1.00  0.00     0.001 C 
BRANCH  22  23
HETATM   23  C   UNL     1      -7.713  -3.389  -0.062  1.00  0.00     0.007 C 
HETATM   24  C   UNL     1      -8.062  -4.650  -0.310  1.00  0.00    -0.062 C 
HETATM   25  C   UNL     1      -9.036  -4.800  -1.549  1.00  0.00     0.048 C 
BRANCH  24  26
HETATM   26  C   UNL     1      -7.621  -5.925   0.388  1.00  0.00     0.007 C 
HETATM   27  C   UNL     1      -8.062  -6.274   1.627  1.00  0.00     0.009 C 
BRANCH  27  28
HETATM   28  C   UNL     1      -8.404  -7.619   2.458  1.00  0.00    -0.048 C 
HETATM   29  C   UNL     1      -9.642  -7.476   3.125  1.00  0.00    -0.077 C 
HETATM   30  C   UNL     1     -10.652  -6.397   2.555  1.00  0.00     0.044 C 
HETATM   31  C   UNL     1     -10.394  -8.453   4.166  1.00  0.00     0.034 C 
HETATM   32  C   UNL     1      -9.826  -9.933   4.240  1.00  0.00     0.005 C 
HETATM   33  C   UNL     1      -8.469 -10.234   3.390  1.00  0.00     0.014 C 
HETATM   34  C   UNL     1      -7.430  -9.020   2.660  1.00  0.00    -0.020 C 
HETATM   35  C   UNL     1      -6.804 -10.021   1.435  1.00  0.00     0.020 C 
HETATM   36  C   UNL     1      -6.051  -8.443   3.379  1.00  0.00     0.020 C 
ENDBRANCH  27  28
ENDBRANCH  24  26
ENDBRANCH  22  23
ENDBRANCH  19  21
ENDBRANCH  16  18
ENDBRANCH  15  16
ENDBRANCH   1  15
BRANCH  10  37
HETATM   37  C   UNL     1       5.000   1.873  -1.532  1.00  0.00     0.038 C 
BRANCH  37  38
HETATM   38  C   UNL     1       4.768   2.564  -2.842  1.00  0.00     0.003 C 
BRANCH  38  39
HETATM   39  C   UNL     1       5.835   3.549  -3.175  1.00  0.00     0.004 C 
BRANCH  39  40
HETATM   40  C   UNL     1       5.530   4.118  -4.565  1.00  0.00    -0.019 C 
HETATM   41  C   UNL     1       4.169   4.816  -4.610  1.00  0.00     0.010 C 
BRANCH  40  42
HETATM   42  C   UNL     1       6.661   5.056  -4.931  1.00  0.00     0.004 C 
BRANCH  42  43
HETATM   43  C   UNL     1       7.951   4.254  -4.987  1.00  0.00     0.001 C 
BRANCH  43  44
HETATM   44  C   UNL     1       9.112   5.142  -5.298  1.00  0.00     0.004 C 
BRANCH  44  45
HETATM   45  C   UNL     1      10.421   4.345  -5.283  1.00  0.00    -0.019 C 
HETATM   46  C   UNL     1      10.402   3.219  -6.321  1.00  0.00     0.010 C 
BRANCH  45  47
HETATM   47  C   UNL     1      11.581   5.311  -5.529  1.00  0.00     0.004 C 
BRANCH  47  48
HETATM   48  C   UNL     1      11.643   6.348  -4.413  1.00  0.00     0.001 C 
BRANCH  48  49
HETATM   49  C   UNL     1      12.759   7.350  -4.615  1.00  0.00     0.004 C 
BRANCH  49  50
HETATM   50  C   UNL     1      12.764   8.399  -3.491  1.00  0.00    -0.023 C 
HETATM   51  C   UNL     1      12.951   7.765  -2.111  1.00  0.00     0.009 C 
HETATM   52  C   UNL     1      13.868   9.410  -3.761  1.00  0.00     0.009 C 
ENDBRANCH  49  50
ENDBRANCH  48  49
ENDBRANCH  47  48
ENDBRANCH  45  47
ENDBRANCH  44  45
ENDBRANCH  43  44
ENDBRANCH  42  43
ENDBRANCH  40  42
ENDBRANCH  39  40
ENDBRANCH  38  39
ENDBRANCH  37  38
ENDBRANCH  10  37
TORSDOF 19
