REMARK  12 active torsions:
REMARK  status: ('A' for Active; 'I' for Inactive)
REMARK    1  A    between atoms: C_1  and  C_2 
REMARK    2  A    between atoms: C_1  and  O_23 
REMARK    3  A    between atoms: C_3  and  O_22 
REMARK    4  A    between atoms: C_4  and  O_21 
REMARK    5  A    between atoms: C_5  and  O_20 
REMARK    6  A    between atoms: C_6  and  O_8 
REMARK    7  A    between atoms: O_8  and  C_9 
REMARK    8  A    between atoms: C_10  and  O_19 
REMARK    9  A    between atoms: C_11  and  O_18 
REMARK   10  A    between atoms: C_12  and  O_17 
REMARK   11  A    between atoms: C_13  and  C_15 
REMARK   12  A    between atoms: C_15  and  O_16 
ROOT
HETATM    1  O   UNL     1       3.557  -1.716  -2.848  1.00  0.00    -0.326 OA
ENDROOT
BRANCH   1   2
HETATM    2  C   UNL     1       2.265  -1.822  -2.240  1.00  0.00     0.294 C 
HETATM    3  C   UNL     1       1.276  -0.975  -3.070  1.00  0.00     0.204 C 
HETATM    4  C   UNL     1      -0.126  -1.314  -2.562  1.00  0.00     0.183 C 
HETATM    5  C   UNL     1      -0.246  -0.989  -1.061  1.00  0.00     0.180 C 
HETATM    6  C   UNL     1       0.947  -1.545  -0.243  1.00  0.00     0.179 C 
HETATM    7  O   UNL     1       2.236  -1.370  -0.889  1.00  0.00    -0.348 OA
BRANCH   3   8
HETATM    8  O   UNL     1       1.509   0.442  -2.921  1.00  0.00    -0.388 OA
HETATM    9  H   UNL     1       2.474   0.561  -2.834  1.00  0.00     0.210 HD
ENDBRANCH   3   8
BRANCH   4  10
HETATM   10  O   UNL     1      -1.144  -0.630  -3.305  1.00  0.00    -0.390 OA
HETATM   11  H   UNL     1      -1.009  -0.821  -4.250  1.00  0.00     0.210 HD
ENDBRANCH   4  10
BRANCH   5  12
HETATM   12  O   UNL     1      -0.307   0.431  -0.850  1.00  0.00    -0.390 OA
HETATM   13  H   UNL     1       0.101   0.848  -1.631  1.00  0.00     0.210 HD
ENDBRANCH   5  12
BRANCH   6  14
HETATM   14  C   UNL     1       0.722  -3.009   0.173  1.00  0.00     0.198 C 
BRANCH  14  15
HETATM   15  O   UNL     1       0.380  -3.827  -0.945  1.00  0.00    -0.398 OA
HETATM   16  H   UNL     1      -0.425  -4.325  -0.705  1.00  0.00     0.209 HD
ENDBRANCH  14  15
ENDBRANCH   6  14
ENDBRANCH   1   2
BRANCH   1  17
HETATM   17  C   UNL     1       4.577  -2.464  -2.179  1.00  0.00     0.294 C 
HETATM   18  C   UNL     1       5.878  -2.427  -3.019  1.00  0.00     0.204 C 
HETATM   19  C   UNL     1       5.719  -3.322  -4.267  1.00  0.00     0.183 C 
HETATM   20  C   UNL     1       5.290  -4.748  -3.903  1.00  0.00     0.180 C 
HETATM   21  C   UNL     1       4.033  -4.686  -3.021  1.00  0.00     0.179 C 
HETATM   22  O   UNL     1       4.244  -3.830  -1.881  1.00  0.00    -0.348 OA
BRANCH  18  23
HETATM   23  O   UNL     1       7.015  -2.860  -2.248  1.00  0.00    -0.388 OA
HETATM   24  H   UNL     1       6.694  -3.449  -1.542  1.00  0.00     0.210 HD
ENDBRANCH  18  23
BRANCH  19  25
HETATM   25  O   UNL     1       6.937  -3.360  -5.016  1.00  0.00    -0.390 OA
HETATM   26  H   UNL     1       7.591  -3.764  -4.410  1.00  0.00     0.210 HD
ENDBRANCH  19  25
BRANCH  20  27
HETATM   27  O   UNL     1       6.375  -5.441  -3.262  1.00  0.00    -0.390 OA
HETATM   28  H   UNL     1       6.231  -5.385  -2.298  1.00  0.00     0.210 HD
ENDBRANCH  20  27
BRANCH  21  29
HETATM   29  C   UNL     1       3.598  -6.071  -2.504  1.00  0.00     0.198 C 
BRANCH  29  30
HETATM   30  O   UNL     1       4.638  -6.748  -1.798  1.00  0.00    -0.398 OA
HETATM   31  H   UNL     1       5.232  -7.142  -2.467  1.00  0.00     0.209 HD
ENDBRANCH  29  30
ENDBRANCH  21  29
ENDBRANCH   1  17
TORSDOF 12
