REMARK  23 active torsions:
REMARK  status: ('A' for Active; 'I' for Inactive)
REMARK    1  A    between atoms: C_2  and  C_3 
REMARK    2  A    between atoms: C_3  and  C_4 
REMARK    3  A    between atoms: C_4  and  C_5 
REMARK    4  A    between atoms: C_5  and  C_6 
REMARK    5  A    between atoms: C_5  and  C_8 
REMARK    6  A    between atoms: C_8  and  O_10 
REMARK    7  A    between atoms: O_10  and  C_11 
REMARK    8  A    between atoms: C_11  and  C_12 
REMARK    9  A    between atoms: C_12  and  C_13 
REMARK   10  A    between atoms: C_12  and  O_24 
REMARK   11  A    between atoms: C_13  and  O_14 
REMARK   12  A    between atoms: O_14  and  C_15 
REMARK   13  A    between atoms: C_15  and  C_17 
REMARK   14  A    between atoms: C_17  and  C_18 
REMARK   15  A    between atoms: C_17  and  C_20 
REMARK   16  A    between atoms: C_20  and  C_21 
REMARK   17  A    between atoms: C_21  and  C_22 
REMARK   18  A    between atoms: O_24  and  C_25 
REMARK   19  A    between atoms: C_25  and  C_27 
REMARK   20  A    between atoms: C_27  and  C_28 
REMARK   21  A    between atoms: C_27  and  C_30 
REMARK   22  A    between atoms: C_30  and  C_31 
REMARK   23  A    between atoms: C_31  and  C_32 
ROOT
HETATM    1  C   UNL     1       9.169   4.061  -3.909  1.00  0.00     0.180 C 
ENDROOT
BRANCH   1   2
HETATM    2  C   UNL     1       8.642   2.992  -2.905  1.00  0.00     0.213 C 
BRANCH   2   3
HETATM    3  O   UNL     1       9.059   1.608  -3.196  1.00  0.00    -0.319 OA
BRANCH   3   4
HETATM    4  C   UNL     1       8.308   0.868  -4.083  1.00  0.00     0.263 C 
HETATM    5  O   UNL     1       7.368   1.346  -4.702  1.00  0.00    -0.265 OA
BRANCH   4   6
HETATM    6  C   UNL     1       8.795  -0.597  -4.262  1.00  0.00     0.085 C 
BRANCH   6   7
HETATM    7  C   UNL     1       9.443  -1.200  -2.991  1.00  0.00     0.014 C 
BRANCH   7   8
HETATM    8  C   UNL     1       9.978  -2.616  -3.250  1.00  0.00     0.000 C 
BRANCH   8   9
HETATM    9  C   UNL     1      10.639  -3.318  -2.071  1.00  0.00    -0.005 C 
HETATM   10  C   UNL     1      11.119  -4.690  -2.546  1.00  0.00     0.005 C 
ENDBRANCH   8   9
ENDBRANCH   7   8
ENDBRANCH   6   7
BRANCH   6  11
HETATM   11  C   UNL     1       7.646  -1.543  -4.766  1.00  0.00     0.010 C 
HETATM   12  C   UNL     1       6.479  -1.783  -3.792  1.00  0.00     0.006 C 
ENDBRANCH   6  11
ENDBRANCH   4   6
ENDBRANCH   3   4
ENDBRANCH   2   3
ENDBRANCH   1   2
BRANCH   1  13
HETATM   13  C   UNL     1       8.700   5.504  -3.554  1.00  0.00     0.213 C 
BRANCH  13  14
HETATM   14  O   UNL     1       9.165   6.494  -4.507  1.00  0.00    -0.319 OA
BRANCH  14  15
HETATM   15  C   UNL     1       8.423   6.596  -5.644  1.00  0.00     0.263 C 
HETATM   16  O   UNL     1       7.450   5.873  -5.855  1.00  0.00    -0.265 OA
BRANCH  15  17
HETATM   17  C   UNL     1       8.998   7.612  -6.629  1.00  0.00     0.085 C 
BRANCH  17  18
HETATM   18  C   UNL     1      10.443   7.216  -6.979  1.00  0.00     0.010 C 
HETATM   19  C   UNL     1      10.486   5.855  -7.663  1.00  0.00     0.006 C 
ENDBRANCH  17  18
BRANCH  17  20
HETATM   20  C   UNL     1       8.182   7.708  -7.944  1.00  0.00     0.014 C 
BRANCH  20  21
HETATM   21  C   UNL     1       6.727   8.115  -7.730  1.00  0.00     0.000 C 
BRANCH  21  22
HETATM   22  C   UNL     1       5.962   8.180  -9.047  1.00  0.00    -0.005 C 
HETATM   23  C   UNL     1       4.512   8.567  -8.800  1.00  0.00     0.005 C 
ENDBRANCH  21  22
ENDBRANCH  20  21
ENDBRANCH  17  20
ENDBRANCH  15  17
ENDBRANCH  14  15
ENDBRANCH  13  14
ENDBRANCH   1  13
BRANCH   1  24
HETATM   24  O   UNL     1      10.626   4.038  -3.827  1.00  0.00    -0.311 OA
BRANCH  24  25
HETATM   25  C   UNL     1      11.260   3.134  -4.640  1.00  0.00     0.263 C 
HETATM   26  O   UNL     1      10.778   2.639  -5.631  1.00  0.00    -0.265 OA
BRANCH  25  27
HETATM   27  C   UNL     1      12.639   2.775  -4.061  1.00  0.00     0.085 C 
BRANCH  27  28
HETATM   28  C   UNL     1      12.935   1.288  -4.391  1.00  0.00     0.010 C 
HETATM   29  C   UNL     1      14.263   0.764  -3.853  1.00  0.00     0.006 C 
ENDBRANCH  27  28
BRANCH  27  30
HETATM   30  C   UNL     1      13.731   3.696  -4.635  1.00  0.00     0.014 C 
BRANCH  30  31
HETATM   31  C   UNL     1      13.550   5.183  -4.312  1.00  0.00     0.000 C 
BRANCH  31  32
HETATM   32  C   UNL     1      14.671   6.038  -4.910  1.00  0.00    -0.005 C 
HETATM   33  C   UNL     1      14.466   7.513  -4.590  1.00  0.00     0.005 C 
ENDBRANCH  31  32
ENDBRANCH  30  31
ENDBRANCH  27  30
ENDBRANCH  25  27
ENDBRANCH  24  25
ENDBRANCH   1  24
TORSDOF 23
