REMARK WARNING: 32 MAX_TORS EXCEEDED!!!
REMARK  53 active torsions:
REMARK  status: ('A' for Active; 'I' for Inactive)
REMARK    1  A    between atoms: C_2  and  C_4 
REMARK    2  A    between atoms: C_4  and  C_5 
REMARK    3  A    between atoms: C_5  and  C_6 
REMARK    4  A    between atoms: C_6  and  C_7 
REMARK    5  A    between atoms: C_7  and  C_8 
REMARK    6  A    between atoms: C_8  and  C_9 
REMARK    7  A    between atoms: C_9  and  C_10 
REMARK    8  A    between atoms: C_10  and  C_11 
REMARK    9  A    between atoms: C_11  and  C_12 
REMARK   10  A    between atoms: C_12  and  C_13 
REMARK   11  A    between atoms: C_13  and  C_14 
REMARK   12  A    between atoms: C_14  and  C_15 
REMARK   13  A    between atoms: C_15  and  C_16 
REMARK   14  A    between atoms: C_16  and  C_17 
REMARK   15  A    between atoms: C_17  and  C_18 
REMARK   16  A    between atoms: C_18  and  O_20 
REMARK   17  A    between atoms: O_20  and  C_21 
REMARK   18  A    between atoms: C_21  and  C_22 
REMARK   19  A    between atoms: C_22  and  C_23 
REMARK   20  A    between atoms: C_22  and  O_44 
REMARK   21  A    between atoms: C_23  and  O_24 
REMARK   22  A    between atoms: O_24  and  C_25 
REMARK   23  A    between atoms: C_25  and  C_27 
REMARK   24  A    between atoms: C_27  and  C_28 
REMARK   25  A    between atoms: C_28  and  C_29 
REMARK   26  A    between atoms: C_29  and  C_30 
REMARK   27  A    between atoms: C_30  and  C_31 
REMARK   28  A    between atoms: C_31  and  C_32 
REMARK   29  A    between atoms: C_32  and  C_33 
REMARK   30  A    between atoms: C_33  and  C_34 
REMARK   31  A    between atoms: C_34  and  C_35 
REMARK   32  A    between atoms: C_35  and  C_36 
REMARK   33  A    between atoms: C_36  and  C_37 
REMARK   34  A    between atoms: C_37  and  C_38 
REMARK   35  A    between atoms: C_38  and  C_39 
REMARK   36  A    between atoms: C_39  and  C_40 
REMARK   37  A    between atoms: C_40  and  C_41 
REMARK   38  A    between atoms: O_44  and  C_45 
REMARK   39  A    between atoms: C_45  and  C_47 
REMARK   40  A    between atoms: C_47  and  C_48 
REMARK   41  A    between atoms: C_48  and  C_49 
REMARK   42  A    between atoms: C_49  and  C_50 
REMARK   43  A    between atoms: C_50  and  C_51 
REMARK   44  A    between atoms: C_51  and  C_52 
REMARK   45  A    between atoms: C_52  and  C_53 
REMARK   46  A    between atoms: C_53  and  C_54 
REMARK   47  A    between atoms: C_54  and  C_55 
REMARK   48  A    between atoms: C_55  and  C_56 
REMARK   49  A    between atoms: C_56  and  C_57 
REMARK   50  A    between atoms: C_57  and  C_58 
REMARK   51  A    between atoms: C_58  and  C_59 
REMARK   52  A    between atoms: C_59  and  C_60 
REMARK   53  A    between atoms: C_60  and  C_61 
ROOT
HETATM    1  C   UNL     1      20.543   7.715  10.383  1.00  0.00     0.180 C 
ENDROOT
BRANCH   1   2
HETATM    2  C   UNL     1      19.020   7.675  10.484  1.00  0.00     0.213 C 
BRANCH   2   3
HETATM    3  O   UNL     1      18.612   7.098  11.746  1.00  0.00    -0.319 OA
BRANCH   3   4
HETATM    4  C   UNL     1      18.633   5.735  11.846  1.00  0.00     0.258 C 
HETATM    5  O   UNL     1      18.946   4.964  10.950  1.00  0.00    -0.265 OA
BRANCH   4   6
HETATM    6  C   UNL     1      18.218   5.312  13.232  1.00  0.00     0.111 C 
BRANCH   6   7
HETATM    7  C   UNL     1      18.946   4.027  13.615  1.00  0.00     0.010 C 
BRANCH   7   8
HETATM    8  C   UNL     1      18.569   3.536  15.008  1.00  0.00     0.000 C 
BRANCH   8   9
HETATM    9  C   UNL     1      19.332   2.253  15.325  1.00  0.00     0.000 C 
BRANCH   9  10
HETATM   10  C   UNL     1      18.985   1.728  16.710  1.00  0.00     0.000 C 
BRANCH  10  11
HETATM   11  C   UNL     1      19.759   0.453  17.004  1.00  0.00     0.000 C 
BRANCH  11  12
HETATM   12  C   UNL     1      19.412  -0.074  18.391  1.00  0.00     0.000 C 
BRANCH  12  13
HETATM   13  C   UNL     1      20.187  -1.350  18.685  1.00  0.00     0.000 C 
BRANCH  13  14
HETATM   14  C   UNL     1      19.837  -1.872  20.070  1.00  0.00     0.000 C 
BRANCH  14  15
HETATM   15  C   UNL     1      20.613  -3.148  20.360  1.00  0.00     0.000 C 
BRANCH  15  16
HETATM   16  C   UNL     1      20.264  -3.669  21.743  1.00  0.00     0.000 C 
BRANCH  16  17
HETATM   17  C   UNL     1      21.036  -4.947  22.044  1.00  0.00     0.000 C 
BRANCH  17  18
HETATM   18  C   UNL     1      20.673  -5.447  23.433  1.00  0.00     0.000 C 
BRANCH  18  19
HETATM   19  C   UNL     1      21.433  -6.724  23.779  1.00  0.00     0.004 C 
BRANCH  19  20
HETATM   20  C   UNL     1      21.083  -7.259  25.176  1.00  0.00    -0.023 C 
HETATM   21  C   UNL     1      21.870  -8.540  25.445  1.00  0.00     0.009 C 
HETATM   22  C   UNL     1      21.362  -6.234  26.278  1.00  0.00     0.009 C 
ENDBRANCH  19  20
ENDBRANCH  18  19
ENDBRANCH  17  18
ENDBRANCH  16  17
ENDBRANCH  15  16
ENDBRANCH  14  15
ENDBRANCH  13  14
ENDBRANCH  12  13
ENDBRANCH  11  12
ENDBRANCH  10  11
ENDBRANCH   9  10
ENDBRANCH   8   9
ENDBRANCH   7   8
ENDBRANCH   6   7
ENDBRANCH   4   6
ENDBRANCH   3   4
ENDBRANCH   2   3
ENDBRANCH   1   2
BRANCH   1  23
HETATM   23  C   UNL     1      20.994   8.320   9.060  1.00  0.00     0.213 C 
BRANCH  23  24
HETATM   24  O   UNL     1      22.428   8.308   9.031  1.00  0.00    -0.319 OA
BRANCH  24  25
HETATM   25  C   UNL     1      23.006   7.121   8.685  1.00  0.00     0.258 C 
HETATM   26  O   UNL     1      22.425   6.087   8.381  1.00  0.00    -0.265 OA
BRANCH  25  27
HETATM   27  C   UNL     1      24.505   7.261   8.673  1.00  0.00     0.111 C 
BRANCH  27  28
HETATM   28  C   UNL     1      25.027   6.931   7.285  1.00  0.00     0.010 C 
BRANCH  28  29
HETATM   29  C   UNL     1      26.546   7.035   7.211  1.00  0.00     0.000 C 
BRANCH  29  30
HETATM   30  C   UNL     1      27.015   6.690   5.802  1.00  0.00     0.000 C 
BRANCH  30  31
HETATM   31  C   UNL     1      28.529   6.780   5.692  1.00  0.00     0.000 C 
BRANCH  31  32
HETATM   32  C   UNL     1      28.977   6.433   4.278  1.00  0.00     0.000 C 
BRANCH  32  33
HETATM   33  C   UNL     1      30.489   6.523   4.169  1.00  0.00     0.000 C 
BRANCH  33  34
HETATM   34  C   UNL     1      30.935   6.180   2.759  1.00  0.00     0.000 C 
BRANCH  34  35
HETATM   35  C   UNL     1      32.450   6.269   2.651  1.00  0.00     0.000 C 
BRANCH  35  36
HETATM   36  C   UNL     1      32.894   5.924   1.237  1.00  0.00     0.000 C 
BRANCH  36  37
HETATM   37  C   UNL     1      34.406   6.016   1.130  1.00  0.00     0.000 C 
BRANCH  37  38
HETATM   38  C   UNL     1      34.861   5.673  -0.282  1.00  0.00     0.000 C 
BRANCH  38  39
HETATM   39  C   UNL     1      36.377   5.765  -0.365  1.00  0.00     0.000 C 
BRANCH  39  40
HETATM   40  C   UNL     1      36.876   5.420  -1.764  1.00  0.00     0.004 C 
BRANCH  40  41
HETATM   41  C   UNL     1      38.405   5.513  -1.882  1.00  0.00    -0.023 C 
HETATM   42  C   UNL     1      39.121   4.555  -0.926  1.00  0.00     0.009 C 
HETATM   43  C   UNL     1      38.827   5.221  -3.321  1.00  0.00     0.009 C 
ENDBRANCH  40  41
ENDBRANCH  39  40
ENDBRANCH  38  39
ENDBRANCH  37  38
ENDBRANCH  36  37
ENDBRANCH  35  36
ENDBRANCH  34  35
ENDBRANCH  33  34
ENDBRANCH  32  33
ENDBRANCH  31  32
ENDBRANCH  30  31
ENDBRANCH  29  30
ENDBRANCH  28  29
ENDBRANCH  27  28
ENDBRANCH  25  27
ENDBRANCH  24  25
ENDBRANCH  23  24
ENDBRANCH   1  23
BRANCH   1  44
HETATM   44  O   UNL     1      21.069   8.525  11.458  1.00  0.00    -0.312 OA
BRANCH  44  45
HETATM   45  C   UNL     1      21.905   7.917  12.348  1.00  0.00     0.259 C 
HETATM   46  O   UNL     1      22.278   6.750  12.332  1.00  0.00    -0.265 OA
BRANCH  45  47
HETATM   47  C   UNL     1      22.351   8.895  13.406  1.00  0.00     0.111 C 
BRANCH  47  48
HETATM   48  C   UNL     1      23.868   9.048  13.412  1.00  0.00     0.010 C 
BRANCH  48  49
HETATM   49  C   UNL     1      24.404   9.605  12.093  1.00  0.00     0.000 C 
BRANCH  49  50
HETATM   50  C   UNL     1      25.922   9.737  12.149  1.00  0.00     0.000 C 
BRANCH  50  51
HETATM   51  C   UNL     1      26.475  10.284  10.839  1.00  0.00     0.000 C 
BRANCH  51  52
HETATM   52  C   UNL     1      27.990  10.407  10.906  1.00  0.00     0.000 C 
BRANCH  52  53
HETATM   53  C   UNL     1      28.535  10.951   9.593  1.00  0.00     0.000 C 
BRANCH  53  54
HETATM   54  C   UNL     1      30.050  11.078   9.659  1.00  0.00     0.000 C 
BRANCH  54  55
HETATM   55  C   UNL     1      30.592  11.622   8.347  1.00  0.00     0.000 C 
BRANCH  55  56
HETATM   56  C   UNL     1      32.106  11.749   8.419  1.00  0.00     0.000 C 
BRANCH  56  57
HETATM   57  C   UNL     1      32.649  12.294   7.109  1.00  0.00     0.000 C 
BRANCH  57  58
HETATM   58  C   UNL     1      34.165  12.423   7.170  1.00  0.00     0.000 C 
BRANCH  58  59
HETATM   59  C   UNL     1      34.685  12.977   5.852  1.00  0.00     0.000 C 
BRANCH  59  60
HETATM   60  C   UNL     1      36.202  13.128   5.874  1.00  0.00     0.004 C 
BRANCH  60  61
HETATM   61  C   UNL     1      36.758  13.677   4.551  1.00  0.00    -0.023 C 
HETATM   62  C   UNL     1      36.198  15.060   4.214  1.00  0.00     0.009 C 
HETATM   63  C   UNL     1      38.284  13.738   4.622  1.00  0.00     0.009 C 
ENDBRANCH  60  61
ENDBRANCH  59  60
ENDBRANCH  58  59
ENDBRANCH  57  58
ENDBRANCH  56  57
ENDBRANCH  55  56
ENDBRANCH  54  55
ENDBRANCH  53  54
ENDBRANCH  52  53
ENDBRANCH  51  52
ENDBRANCH  50  51
ENDBRANCH  49  50
ENDBRANCH  48  49
ENDBRANCH  47  48
ENDBRANCH  45  47
ENDBRANCH  44  45
ENDBRANCH   1  44
TORSDOF 53
