REMARK  7 active torsions:
REMARK  status: ('A' for Active; 'I' for Inactive)
REMARK    1  A    between atoms: SI_2  and  O_5 
REMARK    2  A    between atoms: O_5  and  O_6 
REMARK    3  A    between atoms: O_6  and  SI_7 
REMARK    4  A    between atoms: SI_7  and  O_8 
REMARK    5  A    between atoms: SI_7  and  O_10 
REMARK    6  A    between atoms: O_10  and  O_11 
REMARK    7  A    between atoms: O_11  and  SI_12 
ROOT
HETATM    1 SI   UNL     1       5.298   2.757  -1.781  1.00  0.00     0.000 Si
ENDROOT
BRANCH   1   2
HETATM    2  O   UNL     1       4.745   1.425  -0.932  1.00  0.00     0.000 OA
BRANCH   2   3
HETATM    3  O   UNL     1       3.291   1.334  -0.918  1.00  0.00     0.000 OA
BRANCH   3   4
HETATM    4 SI   UNL     1       2.776  -0.012  -0.058  1.00  0.00     0.000 Si
HETATM    5  C   UNL     1       0.900  -0.064  -0.060  1.00  0.00     0.000 C 
HETATM    6  C   UNL     1       3.375   0.025   1.721  1.00  0.00     0.000 C 
HETATM    7  C   UNL     1       3.420  -1.582  -0.868  1.00  0.00     0.000 C 
ENDBRANCH   3   4
ENDBRANCH   2   3
ENDBRANCH   1   2
BRANCH   1   8
HETATM    8  O   UNL     1       4.817   4.017  -1.188  1.00  0.00    -0.253 OA
ATOM      9  HO  UNL     1       5.131   4.773  -1.670  1.00  0.00     0.253 HD
ENDBRANCH   1   8
BRANCH   1  10
HETATM   10  O   UNL     1       6.969   2.740  -1.839  1.00  0.00     0.000 OA
BRANCH  10  11
HETATM   11  O   UNL     1       7.490   1.543  -2.494  1.00  0.00     0.000 OA
BRANCH  11  12
HETATM   12 SI   UNL     1       9.171   1.538  -2.499  1.00  0.00     0.000 Si
HETATM   13  C   UNL     1       9.853   3.022  -3.426  1.00  0.00     0.000 C 
HETATM   14  C   UNL     1       9.844   1.570  -0.747  1.00  0.00     0.000 C 
HETATM   15  C   UNL     1       9.781  -0.025  -3.346  1.00  0.00     0.000 C 
ENDBRANCH  11  12
ENDBRANCH  10  11
ENDBRANCH   1  10
TORSDOF 7
