REMARK WARNING: 32 MAX_TORS EXCEEDED!!!
REMARK  53 active torsions:
REMARK  status: ('A' for Active; 'I' for Inactive)
REMARK    1  A    between atoms: C_2  and  C_3 
REMARK    2  A    between atoms: C_3  and  C_4 
REMARK    3  A    between atoms: C_4  and  C_5 
REMARK    4  A    between atoms: C_5  and  C_6 
REMARK    5  A    between atoms: C_6  and  C_7 
REMARK    6  A    between atoms: C_7  and  C_8 
REMARK    7  A    between atoms: C_8  and  C_9 
REMARK    8  A    between atoms: C_10  and  C_11 
REMARK    9  A    between atoms: C_11  and  C_12 
REMARK   10  A    between atoms: C_12  and  C_13 
REMARK   11  A    between atoms: C_13  and  C_14 
REMARK   12  A    between atoms: C_14  and  C_15 
REMARK   13  A    between atoms: C_15  and  C_16 
REMARK   14  A    between atoms: C_16  and  C_17 
REMARK   15  A    between atoms: C_17  and  C_18 
REMARK   16  A    between atoms: C_18  and  O_20 
REMARK   17  A    between atoms: O_20  and  C_21 
REMARK   18  A    between atoms: C_21  and  C_22 
REMARK   19  A    between atoms: C_22  and  C_23 
REMARK   20  A    between atoms: C_22  and  O_44 
REMARK   21  A    between atoms: C_23  and  O_24 
REMARK   22  A    between atoms: O_24  and  C_25 
REMARK   23  A    between atoms: C_25  and  C_27 
REMARK   24  A    between atoms: C_27  and  C_28 
REMARK   25  A    between atoms: C_28  and  C_29 
REMARK   26  A    between atoms: C_29  and  C_30 
REMARK   27  A    between atoms: C_30  and  C_31 
REMARK   28  A    between atoms: C_31  and  C_32 
REMARK   29  A    between atoms: C_32  and  C_33 
REMARK   30  A    between atoms: C_33  and  C_34 
REMARK   31  A    between atoms: C_35  and  C_36 
REMARK   32  A    between atoms: C_36  and  C_37 
REMARK   33  A    between atoms: C_37  and  C_38 
REMARK   34  A    between atoms: C_38  and  C_39 
REMARK   35  A    between atoms: C_39  and  C_40 
REMARK   36  A    between atoms: C_40  and  C_41 
REMARK   37  A    between atoms: C_41  and  C_42 
REMARK   38  A    between atoms: O_44  and  C_45 
REMARK   39  A    between atoms: C_45  and  C_47 
REMARK   40  A    between atoms: C_47  and  C_48 
REMARK   41  A    between atoms: C_48  and  C_49 
REMARK   42  A    between atoms: C_49  and  C_50 
REMARK   43  A    between atoms: C_50  and  C_51 
REMARK   44  A    between atoms: C_51  and  C_52 
REMARK   45  A    between atoms: C_52  and  C_53 
REMARK   46  A    between atoms: C_53  and  C_54 
REMARK   47  A    between atoms: C_55  and  C_56 
REMARK   48  A    between atoms: C_56  and  C_57 
REMARK   49  A    between atoms: C_57  and  C_58 
REMARK   50  A    between atoms: C_58  and  C_59 
REMARK   51  A    between atoms: C_59  and  C_60 
REMARK   52  A    between atoms: C_60  and  C_61 
REMARK   53  A    between atoms: C_61  and  C_62 
ROOT
HETATM    1  C   UNL     1      21.217  10.184  10.092  1.00  0.00     0.180 C 
ENDROOT
BRANCH   1   2
HETATM    2  C   UNL     1      20.721   9.197   9.031  1.00  0.00     0.213 C 
BRANCH   2   3
HETATM    3  O   UNL     1      21.235   9.543   7.730  1.00  0.00    -0.319 OA
BRANCH   3   4
HETATM    4  C   UNL     1      20.572  10.563   7.115  1.00  0.00     0.258 C 
HETATM    5  O   UNL     1      19.597  11.130   7.575  1.00  0.00    -0.265 OA
BRANCH   4   6
HETATM    6  C   UNL     1      21.198  10.887   5.774  1.00  0.00     0.111 C 
BRANCH   6   7
HETATM    7  C   UNL     1      21.020  12.373   5.457  1.00  0.00     0.010 C 
BRANCH   7   8
HETATM    8  C   UNL     1      21.624  12.765   4.110  1.00  0.00     0.000 C 
BRANCH   8   9
HETATM    9  C   UNL     1      21.415  14.258   3.847  1.00  0.00     0.000 C 
BRANCH   9  10
HETATM   10  C   UNL     1      22.012  14.667   2.506  1.00  0.00     0.000 C 
BRANCH  10  11
HETATM   11  C   UNL     1      21.802  16.156   2.252  1.00  0.00     0.004 C 
BRANCH  11  12
HETATM   12  C   UNL     1      22.404  16.552   0.909  1.00  0.00     0.027 C 
BRANCH  12  13
HETATM   13  C   UNL     1      22.204  18.009   0.655  1.00  0.00    -0.031 C 
HETATM   14  C   UNL     1      23.227  18.855   0.482  1.00  0.00    -0.031 C 
BRANCH  14  15
HETATM   15  C   UNL     1      23.026  20.313   0.227  1.00  0.00     0.027 C 
BRANCH  15  16
HETATM   16  C   UNL     1      23.629  20.705  -1.115  1.00  0.00     0.004 C 
BRANCH  16  17
HETATM   17  C   UNL     1      23.419  22.191  -1.370  1.00  0.00     0.000 C 
BRANCH  17  18
HETATM   18  C   UNL     1      24.018  22.586  -2.711  1.00  0.00     0.000 C 
BRANCH  18  19
HETATM   19  C   UNL     1      23.810  24.072  -2.968  1.00  0.00     0.000 C 
BRANCH  19  20
HETATM   20  C   UNL     1      24.410  24.467  -4.311  1.00  0.00    -0.000 C 
BRANCH  20  21
HETATM   21  C   UNL     1      24.207  25.953  -4.578  1.00  0.00    -0.005 C 
HETATM   22  C   UNL     1      24.805  26.344  -5.916  1.00  0.00     0.005 C 
ENDBRANCH  20  21
ENDBRANCH  19  20
ENDBRANCH  18  19
ENDBRANCH  17  18
ENDBRANCH  16  17
ENDBRANCH  15  16
ENDBRANCH  14  15
ENDBRANCH  12  13
ENDBRANCH  11  12
ENDBRANCH  10  11
ENDBRANCH   9  10
ENDBRANCH   8   9
ENDBRANCH   7   8
ENDBRANCH   6   7
ENDBRANCH   4   6
ENDBRANCH   3   4
ENDBRANCH   2   3
ENDBRANCH   1   2
BRANCH   1  23
HETATM   23  C   UNL     1      20.665   9.780  11.467  1.00  0.00     0.213 C 
BRANCH  23  24
HETATM   24  O   UNL     1      21.107  10.690  12.496  1.00  0.00    -0.319 OA
BRANCH  24  25
HETATM   25  C   UNL     1      20.419  11.867  12.571  1.00  0.00     0.258 C 
HETATM   26  O   UNL     1      19.491  12.195  11.856  1.00  0.00    -0.265 OA
BRANCH  25  27
HETATM   27  C   UNL     1      20.944  12.721  13.689  1.00  0.00     0.111 C 
BRANCH  27  28
HETATM   28  C   UNL     1      19.823  13.000  14.677  1.00  0.00     0.010 C 
BRANCH  28  29
HETATM   29  C   UNL     1      20.286  13.877  15.833  1.00  0.00     0.000 C 
BRANCH  29  30
HETATM   30  C   UNL     1      19.126  14.129  16.791  1.00  0.00     0.000 C 
BRANCH  30  31
HETATM   31  C   UNL     1      19.565  15.005  17.955  1.00  0.00     0.000 C 
BRANCH  31  32
HETATM   32  C   UNL     1      18.402  15.250  18.907  1.00  0.00     0.004 C 
BRANCH  32  33
HETATM   33  C   UNL     1      18.851  16.129  20.067  1.00  0.00     0.027 C 
BRANCH  33  34
HETATM   34  C   UNL     1      17.719  16.372  21.008  1.00  0.00    -0.031 C 
HETATM   35  C   UNL     1      17.764  15.997  22.291  1.00  0.00    -0.031 C 
BRANCH  35  36
HETATM   36  C   UNL     1      16.638  16.240  23.240  1.00  0.00     0.027 C 
BRANCH  36  37
HETATM   37  C   UNL     1      17.096  17.114  24.399  1.00  0.00     0.004 C 
BRANCH  37  38
HETATM   38  C   UNL     1      15.938  17.360  25.357  1.00  0.00     0.000 C 
BRANCH  38  39
HETATM   39  C   UNL     1      16.390  18.233  26.518  1.00  0.00     0.000 C 
BRANCH  39  40
HETATM   40  C   UNL     1      15.235  18.479  27.479  1.00  0.00     0.000 C 
BRANCH  40  41
HETATM   41  C   UNL     1      15.688  19.354  28.639  1.00  0.00    -0.000 C 
BRANCH  41  42
HETATM   42  C   UNL     1      14.539  19.608  29.606  1.00  0.00    -0.005 C 
HETATM   43  C   UNL     1      14.994  20.478  30.763  1.00  0.00     0.005 C 
ENDBRANCH  41  42
ENDBRANCH  40  41
ENDBRANCH  39  40
ENDBRANCH  38  39
ENDBRANCH  37  38
ENDBRANCH  36  37
ENDBRANCH  35  36
ENDBRANCH  33  34
ENDBRANCH  32  33
ENDBRANCH  31  32
ENDBRANCH  30  31
ENDBRANCH  29  30
ENDBRANCH  28  29
ENDBRANCH  27  28
ENDBRANCH  25  27
ENDBRANCH  24  25
ENDBRANCH  23  24
ENDBRANCH   1  23
BRANCH   1  44
HETATM   44  O   UNL     1      22.669  10.162  10.133  1.00  0.00    -0.312 OA
BRANCH  44  45
HETATM   45  C   UNL     1      23.294  11.347   9.860  1.00  0.00     0.259 C 
HETATM   46  O   UNL     1      22.734  12.413   9.638  1.00  0.00    -0.265 OA
BRANCH  45  47
HETATM   47  C   UNL     1      24.794  11.238   9.941  1.00  0.00     0.111 C 
BRANCH  47  48
HETATM   48  C   UNL     1      25.356  12.191  10.994  1.00  0.00     0.010 C 
BRANCH  48  49
HETATM   49  C   UNL     1      24.842  11.882  12.400  1.00  0.00     0.000 C 
BRANCH  49  50
HETATM   50  C   UNL     1      25.424  12.859  13.417  1.00  0.00     0.000 C 
BRANCH  50  51
HETATM   51  C   UNL     1      24.908  12.553  14.817  1.00  0.00     0.000 C 
BRANCH  51  52
HETATM   52  C   UNL     1      25.484  13.528  15.834  1.00  0.00     0.004 C 
BRANCH  52  53
HETATM   53  C   UNL     1      24.958  13.214  17.229  1.00  0.00     0.027 C 
BRANCH  53  54
HETATM   54  C   UNL     1      25.516  14.159  18.226  1.00  0.00    -0.031 C 
HETATM   55  C   UNL     1      24.746  14.970  18.968  1.00  0.00    -0.031 C 
BRANCH  55  56
HETATM   56  C   UNL     1      25.310  15.919  19.971  1.00  0.00     0.027 C 
BRANCH  56  57
HETATM   57  C   UNL     1      24.785  15.600  21.363  1.00  0.00     0.004 C 
BRANCH  57  58
HETATM   58  C   UNL     1      25.367  16.573  22.380  1.00  0.00     0.000 C 
BRANCH  58  59
HETATM   59  C   UNL     1      24.843  16.257  23.773  1.00  0.00     0.000 C 
BRANCH  59  60
HETATM   60  C   UNL     1      25.421  17.230  24.791  1.00  0.00     0.000 C 
BRANCH  60  61
HETATM   61  C   UNL     1      24.896  16.914  26.184  1.00  0.00    -0.000 C 
BRANCH  61  62
HETATM   62  C   UNL     1      25.471  17.882  27.211  1.00  0.00    -0.005 C 
HETATM   63  C   UNL     1      24.947  17.564  28.599  1.00  0.00     0.005 C 
ENDBRANCH  61  62
ENDBRANCH  60  61
ENDBRANCH  59  60
ENDBRANCH  58  59
ENDBRANCH  57  58
ENDBRANCH  56  57
ENDBRANCH  55  56
ENDBRANCH  53  54
ENDBRANCH  52  53
ENDBRANCH  51  52
ENDBRANCH  50  51
ENDBRANCH  49  50
ENDBRANCH  48  49
ENDBRANCH  47  48
ENDBRANCH  45  47
ENDBRANCH  44  45
ENDBRANCH   1  44
TORSDOF 53
