REMARK  12 active torsions:
REMARK  status: ('A' for Active; 'I' for Inactive)
REMARK    1  A    between atoms: C_2  and  C_3 
REMARK    2  A    between atoms: C_3  and  C_4 
REMARK    3  A    between atoms: C_4  and  C_5 
REMARK    4  A    between atoms: C_5  and  C_6 
REMARK    5  A    between atoms: C_6  and  C_7 
REMARK    6  A    between atoms: C_7  and  C_8 
REMARK    7  A    between atoms: C_8  and  C_9 
REMARK    8  A    between atoms: C_9  and  C_10 
REMARK    9  A    between atoms: C_10  and  C_11 
REMARK       I    between atoms: C_11  and  N_13 
REMARK   10  A    between atoms: N_13  and  C_14 
REMARK   11  A    between atoms: C_14  and  C_15 
REMARK   12  A    between atoms: C_15  and  O_17 
ROOT
HETATM    1  C   UNL     1      11.425   1.724   3.946  1.00  0.00     0.103 C 
ENDROOT
BRANCH   1   2
HETATM    2  C   UNL     1       9.909   1.806   4.123  1.00  0.00     0.009 C 
BRANCH   2   3
HETATM    3  C   UNL     1       9.146   1.254   2.922  1.00  0.00     0.000 C 
BRANCH   3   4
HETATM    4  C   UNL     1       7.638   1.360   3.154  1.00  0.00     0.000 C 
BRANCH   4   5
HETATM    5  C   UNL     1       6.852   0.813   1.965  1.00  0.00     0.000 C 
BRANCH   5   6
HETATM    6  C   UNL     1       5.347   0.924   2.203  1.00  0.00     0.000 C 
BRANCH   6   7
HETATM    7  C   UNL     1       4.561   0.375   1.012  1.00  0.00     0.004 C 
BRANCH   7   8
HETATM    8  C   UNL     1       3.057   0.491   1.252  1.00  0.00     0.026 C 
BRANCH   8   9
HETATM    9  C   UNL     1       2.277  -0.033   0.082  1.00  0.00    -0.037 C 
HETATM   10  C   UNL     1       1.422   0.711  -0.632  1.00  0.00     0.007 C 
ENDBRANCH   8   9
ENDBRANCH   7   8
ENDBRANCH   6   7
ENDBRANCH   5   6
ENDBRANCH   4   5
ENDBRANCH   3   4
ENDBRANCH   2   3
ENDBRANCH   1   2
BRANCH   1  11
HETATM   11  C   UNL     1      12.141   2.283   5.160  1.00  0.00     0.217 C 
HETATM   12  O   UNL     1      11.567   2.737   6.145  1.00  0.00    -0.274 OA
HETATM   13  N   UNL     1      13.509   2.243   5.076  1.00  0.00    -0.351 N 
HETATM   14  H   UNL     1      13.979   1.866   4.257  1.00  0.00     0.163 HD
BRANCH  13  15
HETATM   15  C   UNL     1      14.324   2.744   6.166  1.00  0.00     0.232 C 
BRANCH  15  16
HETATM   16  C   UNL     1      15.805   2.603   5.859  1.00  0.00     0.158 C 
HETATM   17  O   UNL     1      16.248   2.126   4.822  1.00  0.00    -0.649 OA
BRANCH  16  18
HETATM   18  O   UNL     1      16.606   3.059   6.850  1.00  0.00    -0.775 OA
HETATM   19  H   UNL     1      16.126   3.415   7.623  1.00  0.00     0.167 HD
ENDBRANCH  16  18
ENDBRANCH  15  16
ENDBRANCH  13  15
ENDBRANCH   1  11
TORSDOF 12
