REMARK  4 active torsions:
REMARK  status: ('A' for Active; 'I' for Inactive)
REMARK    1  A    between atoms: CB_2  and  CA_4 
REMARK    2  A    between atoms: CA_4  and  C_5 
REMARK    3  A    between atoms: CA_4  and  N_8 
REMARK    4  A    between atoms: C_5  and  OXT_7 
ROOT
ATOM      1  CA  VAL A   1       3.060  -1.281   0.692  1.00  0.00     0.317 C 
ENDROOT
BRANCH   1   2
ATOM      2  CB  VAL A   1       2.575  -0.011  -0.048  1.00  0.00     0.021 C 
ATOM      3  CG1 VAL A   1       1.045   0.075  -0.107  1.00  0.00     0.012 C 
ATOM      4  CG2 VAL A   1       3.111   1.266   0.613  1.00  0.00     0.012 C 
ENDBRANCH   1   2
BRANCH   1   5
ATOM      5  C   VAL A   1       2.561  -2.570   0.006  1.00  0.00     0.174 C 
ATOM      6  O   VAL A   1       3.157  -3.140  -0.898  1.00  0.00    -0.648 OA
BRANCH   5   7
ATOM      7  OXT VAL A   1       1.398  -3.046   0.512  1.00  0.00    -0.775 OA
ATOM      8  HXT VAL A   1       1.033  -2.518   1.246  1.00  0.00     0.167 HD
ENDBRANCH   5   7
ENDBRANCH   1   5
BRANCH   1   9
ATOM      9  N   VAL A   1       4.541  -1.317   0.736  1.00  0.00     0.093 N 
ATOM     10  H1  VAL A   1       4.875  -1.393  -0.231  1.00  0.00     0.314 HD
ATOM     11  H2  VAL A   1       4.837  -2.199   1.162  1.00  0.00     0.314 HD
ENDBRANCH   1   9
TORSDOF 4
