REMARK  1 active torsions:
REMARK  status: ('A' for Active; 'I' for Inactive)
REMARK    1  A    between atoms: C_2  and  O_4 
ROOT
HETATM    1  C   UNL     1       0.996  -0.017  -0.044  1.00  0.00     0.125 C 
HETATM    2  C   UNL     1       2.492  -0.091  -0.041  1.00  0.00     0.135 C 
HETATM    3  O   UNL     1       3.130  -1.130   0.006  1.00  0.00    -0.650 OA
ENDROOT
BRANCH   2   4
HETATM    4  O   UNL     1       3.078   1.126  -0.095  1.00  0.00    -0.777 OA
HETATM    5  H   UNL     1       2.442   1.865  -0.128  1.00  0.00     0.167 HD
ENDBRANCH   2   4
TORSDOF 1
