REMARK  15 active torsions:
REMARK  status: ('A' for Active; 'I' for Inactive)
REMARK    1  A    between atoms: C_1  and  C_2 
REMARK    2  A    between atoms: C_1  and  O_21 
REMARK    3  A    between atoms: C_3  and  O_20 
REMARK    4  A    between atoms: C_4  and  O_19 
REMARK    5  A    between atoms: C_5  and  O_18 
REMARK    6  A    between atoms: C_6  and  O_8 
REMARK    7  A    between atoms: O_8  and  C_9 
REMARK    8  A    between atoms: C_9  and  C_10 
REMARK    9  A    between atoms: C_10  and  C_11 
REMARK   10  A    between atoms: C_10  and  O_17 
REMARK   11  A    between atoms: C_11  and  C_12 
REMARK   12  A    between atoms: C_11  and  O_16 
REMARK   13  A    between atoms: C_12  and  C_13 
REMARK   14  A    between atoms: C_12  and  O_15 
REMARK   15  A    between atoms: C_13  and  O_14 
ROOT
HETATM    1  C   UNL     1       0.423   0.655   1.095  1.00  0.00     0.179 C 
HETATM    2  C   UNL     1      -1.114   0.695   1.011  1.00  0.00     0.180 C 
HETATM    3  C   UNL     1      -1.581   1.649  -0.102  1.00  0.00     0.183 C 
HETATM    4  C   UNL     1      -0.939   3.027   0.068  1.00  0.00     0.204 C 
HETATM    5  C   UNL     1       0.587   2.850   0.103  1.00  0.00     0.291 C 
HETATM    6  O   UNL     1       0.986   1.987   1.163  1.00  0.00    -0.348 OA
ENDROOT
BRANCH   5   7
HETATM    7  O   UNL     1       1.159   4.148   0.267  1.00  0.00    -0.356 OA
BRANCH   7   8
HETATM    8  C   UNL     1       2.586   4.159   0.304  1.00  0.00     0.205 C 
BRANCH   8   9
HETATM    9  C   UNL     1       3.271   3.668  -0.984  1.00  0.00     0.173 C 
BRANCH   9  10
HETATM   10  C   UNL     1       2.969   4.516  -2.242  1.00  0.00     0.179 C 
BRANCH  10  11
HETATM   11  C   UNL     1       3.622   3.940  -3.514  1.00  0.00     0.173 C 
BRANCH  11  12
HETATM   12  C   UNL     1       3.142   2.530  -3.885  1.00  0.00     0.198 C 
BRANCH  12  13
HETATM   13  O   UNL     1       3.772   2.109  -5.092  1.00  0.00    -0.398 OA
HETATM   14  H   UNL     1       3.858   2.915  -5.642  1.00  0.00     0.209 HD
ENDBRANCH  12  13
ENDBRANCH  11  12
BRANCH  11  15
HETATM   15  O   UNL     1       3.303   4.792  -4.633  1.00  0.00    -0.391 OA
HETATM   16  H   UNL     1       2.361   5.036  -4.523  1.00  0.00     0.210 HD
ENDBRANCH  11  15
ENDBRANCH  10  11
BRANCH  10  17
HETATM   17  O   UNL     1       1.565   4.701  -2.504  1.00  0.00    -0.390 OA
HETATM   18  H   UNL     1       1.096   3.873  -2.345  1.00  0.00     0.210 HD
ENDBRANCH  10  17
ENDBRANCH   9  10
BRANCH   9  19
HETATM   19  O   UNL     1       4.682   3.586  -0.774  1.00  0.00    -0.391 OA
HETATM   20  H   UNL     1       5.020   4.474  -0.553  1.00  0.00     0.210 HD
ENDBRANCH   9  19
ENDBRANCH   8   9
ENDBRANCH   7   8
ENDBRANCH   5   7
BRANCH   4  21
HETATM   21  O   UNL     1      -1.386   3.623   1.306  1.00  0.00    -0.388 OA
HETATM   22  H   UNL     1      -0.754   4.352   1.478  1.00  0.00     0.210 HD
ENDBRANCH   4  21
BRANCH   3  23
HETATM   23  O   UNL     1      -3.002   1.774  -0.102  1.00  0.00    -0.390 OA
HETATM   24  H   UNL     1      -3.231   2.174   0.762  1.00  0.00     0.210 HD
ENDBRANCH   3  23
BRANCH   1  25
HETATM   25  C   UNL     1       1.072  -0.133  -0.055  1.00  0.00     0.198 C 
BRANCH  25  26
HETATM   26  O   UNL     1       2.493  -0.071   0.028  1.00  0.00    -0.398 OA
HETATM   27  H   UNL     1       2.734   0.740   0.515  1.00  0.00     0.209 HD
ENDBRANCH  25  26
ENDBRANCH   1  25
BRANCH   2  28
HETATM   28  O   UNL     1      -1.640   1.133   2.276  1.00  0.00    -0.390 OA
HETATM   29  H   UNL     1      -1.426   2.087   2.365  1.00  0.00     0.210 HD
ENDBRANCH   2  28
TORSDOF 15
