MODEL 1
REMARK VINA RESULT:      -8.4      0.000      0.000
REMARK  7 active torsions:
REMARK  status: ('A' for Active; 'I' for Inactive)
REMARK    1  A    between atoms: O_1  and  C_2 
REMARK    2  A    between atoms: C_7  and  O_8 
REMARK    3  A    between atoms: N_10  and  C_11 
REMARK    4  A    between atoms: C_11  and  N_13 
REMARK    5  A    between atoms: N_13  and  C_14 
REMARK    6  A    between atoms: C_14  and  C_15 
REMARK    7  A    between atoms: C_15  and  C_16 
ROOT
HETATM    1  C   UNL     1     -23.173 -10.925  -0.238  1.00  0.00     0.099 A 
HETATM    2  C   UNL     1     -23.104  -9.558   0.014  1.00  0.00     0.047 A 
HETATM    3  C   UNL     1     -22.156  -8.756  -0.652  1.00  0.00    -0.047 A 
HETATM    4  C   UNL     1     -21.261  -9.351  -1.566  1.00  0.00    -0.031 A 
HETATM    5  C   UNL     1     -21.350 -10.733  -1.812  1.00  0.00     0.048 A 
HETATM    6  C   UNL     1     -22.298 -11.512  -1.149  1.00  0.00     0.099 A 
HETATM    7  C   UNL     1     -20.222  -8.520  -2.294  1.00  0.00     0.164 C 
HETATM    8  N   UNL     1     -20.853  -7.569  -3.229  1.00  0.00    -0.354 N 
HETATM    9  C   UNL     1     -21.307  -6.311  -2.620  1.00  0.00     0.126 C 
HETATM   10  C   UNL     1     -22.480  -6.465  -1.649  1.00  0.00     0.025 C 
HETATM   11  C   UNL     1     -22.131  -7.269  -0.394  1.00  0.00     0.041 C 
ENDROOT
BRANCH   8  12
HETATM   12  C   UNL     1     -20.935  -7.845  -4.600  1.00  0.00     0.170 C 
HETATM   13  S   UNL     1     -20.767  -9.390  -5.253  1.00  0.00    -0.041 SA
BRANCH  12  14
HETATM   14  N   UNL     1     -21.187  -6.728  -5.388  1.00  0.00    -0.367 N 
HETATM   15  H   UNL     1     -22.016  -6.784  -5.957  1.00  0.00     0.161 HD
BRANCH  14  16
HETATM   16  C   UNL     1     -20.111  -5.903  -5.954  1.00  0.00     0.126 C 
BRANCH  16  17
HETATM   17  C   UNL     1     -20.538  -4.497  -6.388  1.00  0.00     0.058 C 
BRANCH  17  18
HETATM   18  C   UNL     1     -20.875  -4.375  -7.855  1.00  0.00    -0.057 A 
HETATM   19  C   UNL     1     -22.168  -4.020  -8.268  1.00  0.00     0.009 A 
HETATM   20  C   UNL     1     -22.481  -3.935  -9.626  1.00  0.00     0.024 A 
HETATM   21  C   UNL     1     -21.496  -4.186 -10.578  1.00  0.00     0.034 A 
HETATM   22 CL   UNL     1     -21.886  -4.107 -12.252  1.00  0.00    -0.084 Cl
HETATM   23  C   UNL     1     -20.200  -4.504 -10.183  1.00  0.00     0.024 A 
HETATM   24  C   UNL     1     -19.888  -4.594  -8.825  1.00  0.00     0.009 A 
ENDBRANCH  17  18
ENDBRANCH  16  17
ENDBRANCH  14  16
ENDBRANCH  12  14
ENDBRANCH   8  12
BRANCH   6  25
HETATM   25  O   UNL     1     -22.383 -12.855  -1.389  1.00  0.00    -0.358 OA
HETATM   26  H   UNL     1     -23.170 -13.205  -0.945  1.00  0.00     0.217 HD
ENDBRANCH   6  25
BRANCH   1  27
HETATM   27  O   UNL     1     -24.101 -11.698   0.395  1.00  0.00    -0.358 OA
HETATM   28  H   UNL     1     -24.826 -11.131   0.708  1.00  0.00     0.217 HD
ENDBRANCH   1  27
TORSDOF 7
ENDMDL
MODEL 2
REMARK VINA RESULT:      -8.2      4.688      7.452
REMARK  7 active torsions:
REMARK  status: ('A' for Active; 'I' for Inactive)
REMARK    1  A    between atoms: O_1  and  C_2 
REMARK    2  A    between atoms: C_7  and  O_8 
REMARK    3  A    between atoms: N_10  and  C_11 
REMARK    4  A    between atoms: C_11  and  N_13 
REMARK    5  A    between atoms: N_13  and  C_14 
REMARK    6  A    between atoms: C_14  and  C_15 
REMARK    7  A    between atoms: C_15  and  C_16 
ROOT
HETATM    1  C   UNL     1     -22.214  -8.016  -0.101  1.00  0.00     0.099 A 
HETATM    2  C   UNL     1     -22.316  -7.189  -1.216  1.00  0.00     0.047 A 
HETATM    3  C   UNL     1     -21.429  -7.339  -2.299  1.00  0.00    -0.047 A 
HETATM    4  C   UNL     1     -20.421  -8.326  -2.242  1.00  0.00    -0.031 A 
HETATM    5  C   UNL     1     -20.339  -9.156  -1.110  1.00  0.00     0.048 A 
HETATM    6  C   UNL     1     -21.228  -8.997  -0.047  1.00  0.00     0.099 A 
HETATM    7  C   UNL     1     -19.444  -8.511  -3.387  1.00  0.00     0.164 C 
HETATM    8  N   UNL     1     -20.125  -8.998  -4.602  1.00  0.00    -0.354 N 
HETATM    9  C   UNL     1     -20.753  -7.951  -5.420  1.00  0.00     0.126 C 
HETATM   10  C   UNL     1     -21.954  -7.269  -4.763  1.00  0.00     0.025 C 
HETATM   11  C   UNL     1     -21.588  -6.459  -3.516  1.00  0.00     0.041 C 
ENDROOT
BRANCH   8  12
HETATM   12  C   UNL     1     -20.097 -10.353  -4.956  1.00  0.00     0.170 C 
HETATM   13  S   UNL     1     -18.716 -11.315  -4.859  1.00  0.00    -0.041 SA
BRANCH  12  14
HETATM   14  N   UNL     1     -21.322 -10.851  -5.384  1.00  0.00    -0.367 N 
HETATM   15  H   UNL     1     -21.809 -10.275  -6.051  1.00  0.00     0.161 HD
BRANCH  14  16
HETATM   16  C   UNL     1     -22.194 -11.654  -4.515  1.00  0.00     0.126 C 
BRANCH  16  17
HETATM   17  C   UNL     1     -22.926 -10.861  -3.428  1.00  0.00     0.058 C 
BRANCH  17  18
HETATM   18  C   UNL     1     -22.934 -11.525  -2.072  1.00  0.00    -0.057 A 
HETATM   19  C   UNL     1     -21.970 -12.488  -1.739  1.00  0.00     0.009 A 
HETATM   20  C   UNL     1     -21.998 -13.119  -0.494  1.00  0.00     0.024 A 
HETATM   21  C   UNL     1     -22.980 -12.776   0.431  1.00  0.00     0.034 A 
HETATM   22 CL   UNL     1     -23.032 -13.570   1.957  1.00  0.00    -0.084 Cl
HETATM   23  C   UNL     1     -23.921 -11.796   0.128  1.00  0.00     0.024 A 
HETATM   24  C   UNL     1     -23.896 -11.169  -1.119  1.00  0.00     0.009 A 
ENDBRANCH  17  18
ENDBRANCH  16  17
ENDBRANCH  14  16
ENDBRANCH  12  14
ENDBRANCH   8  12
BRANCH   6  25
HETATM   25  O   UNL     1     -21.146  -9.805   1.053  1.00  0.00    -0.358 OA
HETATM   26  H   UNL     1     -21.148  -9.253   1.849  1.00  0.00     0.217 HD
ENDBRANCH   6  25
BRANCH   1  27
HETATM   27  O   UNL     1     -23.084  -7.879   0.942  1.00  0.00    -0.358 OA
HETATM   28  H   UNL     1     -22.694  -7.282   1.602  1.00  0.00     0.217 HD
ENDBRANCH   1  27
TORSDOF 7
ENDMDL
MODEL 3
REMARK VINA RESULT:      -7.7      5.168      7.381
REMARK  7 active torsions:
REMARK  status: ('A' for Active; 'I' for Inactive)
REMARK    1  A    between atoms: O_1  and  C_2 
REMARK    2  A    between atoms: C_7  and  O_8 
REMARK    3  A    between atoms: N_10  and  C_11 
REMARK    4  A    between atoms: C_11  and  N_13 
REMARK    5  A    between atoms: N_13  and  C_14 
REMARK    6  A    between atoms: C_14  and  C_15 
REMARK    7  A    between atoms: C_15  and  C_16 
ROOT
HETATM    1  C   UNL     1     -20.744  -5.785  -4.852  1.00  0.00     0.099 A 
HETATM    2  C   UNL     1     -21.150  -5.911  -3.527  1.00  0.00     0.047 A 
HETATM    3  C   UNL     1     -21.523  -7.167  -3.011  1.00  0.00    -0.047 A 
HETATM    4  C   UNL     1     -21.501  -8.300  -3.853  1.00  0.00    -0.031 A 
HETATM    5  C   UNL     1     -21.081  -8.154  -5.187  1.00  0.00     0.048 A 
HETATM    6  C   UNL     1     -20.710  -6.903  -5.681  1.00  0.00     0.099 A 
HETATM    7  C   UNL     1     -21.904  -9.666  -3.333  1.00  0.00     0.164 C 
HETATM    8  N   UNL     1     -20.953 -10.159  -2.318  1.00  0.00    -0.354 N 
HETATM    9  C   UNL     1     -21.193  -9.665  -0.955  1.00  0.00     0.126 C 
HETATM   10  C   UNL     1     -20.943  -8.166  -0.772  1.00  0.00     0.025 C 
HETATM   11  C   UNL     1     -21.917  -7.285  -1.559  1.00  0.00     0.041 C 
ENDROOT
BRANCH   8  12
HETATM   12  C   UNL     1     -19.951 -11.080  -2.649  1.00  0.00     0.170 C 
HETATM   13  S   UNL     1     -20.255 -12.565  -3.386  1.00  0.00    -0.041 SA
BRANCH  12  14
HETATM   14  N   UNL     1     -18.666 -10.657  -2.331  1.00  0.00    -0.367 N 
HETATM   15  H   UNL     1     -18.377 -10.841  -1.384  1.00  0.00     0.161 HD
BRANCH  14  16
HETATM   16  C   UNL     1     -18.055  -9.467  -2.938  1.00  0.00     0.126 C 
BRANCH  16  17
HETATM   17  C   UNL     1     -16.530  -9.388  -2.808  1.00  0.00     0.058 C 
BRANCH  17  18
HETATM   18  C   UNL     1     -15.780 -10.355  -3.692  1.00  0.00    -0.057 A 
HETATM   19  C   UNL     1     -15.105 -11.456  -3.143  1.00  0.00     0.009 A 
HETATM   20  C   UNL     1     -14.390 -12.331  -3.963  1.00  0.00     0.024 A 
HETATM   21  C   UNL     1     -14.362 -12.119  -5.339  1.00  0.00     0.034 A 
HETATM   22 CL   UNL     1     -13.461 -13.181  -6.349  1.00  0.00    -0.084 Cl
HETATM   23  C   UNL     1     -15.056 -11.052  -5.902  1.00  0.00     0.024 A 
HETATM   24  C   UNL     1     -15.767 -10.174  -5.081  1.00  0.00     0.009 A 
ENDBRANCH  17  18
ENDBRANCH  16  17
ENDBRANCH  14  16
ENDBRANCH  12  14
ENDBRANCH   8  12
BRANCH   6  25
HETATM   25  O   UNL     1     -20.303  -6.763  -6.979  1.00  0.00    -0.358 OA
HETATM   26  H   UNL     1     -20.592  -7.537  -7.485  1.00  0.00     0.217 HD
ENDBRANCH   6  25
BRANCH   1  27
HETATM   27  O   UNL     1     -20.367  -4.571  -5.347  1.00  0.00    -0.358 OA
HETATM   28  H   UNL     1     -20.482  -4.572  -6.312  1.00  0.00     0.217 HD
ENDBRANCH   1  27
TORSDOF 7
ENDMDL
MODEL 4
REMARK VINA RESULT:      -7.6      5.813      7.917
REMARK  7 active torsions:
REMARK  status: ('A' for Active; 'I' for Inactive)
REMARK    1  A    between atoms: O_1  and  C_2 
REMARK    2  A    between atoms: C_7  and  O_8 
REMARK    3  A    between atoms: N_10  and  C_11 
REMARK    4  A    between atoms: C_11  and  N_13 
REMARK    5  A    between atoms: N_13  and  C_14 
REMARK    6  A    between atoms: C_14  and  C_15 
REMARK    7  A    between atoms: C_15  and  C_16 
ROOT
HETATM    1  C   UNL     1     -13.754 -13.417  -4.150  1.00  0.00     0.099 A 
HETATM    2  C   UNL     1     -14.376 -12.885  -3.024  1.00  0.00     0.047 A 
HETATM    3  C   UNL     1     -15.106 -11.684  -3.113  1.00  0.00    -0.047 A 
HETATM    4  C   UNL     1     -15.190 -11.010  -4.350  1.00  0.00    -0.031 A 
HETATM    5  C   UNL     1     -14.561 -11.567  -5.478  1.00  0.00     0.048 A 
HETATM    6  C   UNL     1     -13.846 -12.760  -5.374  1.00  0.00     0.099 A 
HETATM    7  C   UNL     1     -15.962  -9.711  -4.480  1.00  0.00     0.164 C 
HETATM    8  N   UNL     1     -17.408  -9.920  -4.273  1.00  0.00    -0.354 N 
HETATM    9  C   UNL     1     -17.835  -9.934  -2.867  1.00  0.00     0.126 C 
HETATM   10  C   UNL     1     -17.329 -11.133  -2.062  1.00  0.00     0.025 C 
HETATM   11  C   UNL     1     -15.808 -11.151  -1.887  1.00  0.00     0.041 C 
ENDROOT
BRANCH   8  12
HETATM   12  C   UNL     1     -18.289 -10.026  -5.357  1.00  0.00     0.170 C 
HETATM   13  S   UNL     1     -18.482 -11.430  -6.269  1.00  0.00    -0.041 SA
BRANCH  12  14
HETATM   14  N   UNL     1     -19.013  -8.868  -5.612  1.00  0.00    -0.367 N 
HETATM   15  H   UNL     1     -18.488  -8.011  -5.545  1.00  0.00     0.161 HD
BRANCH  14  16
HETATM   16  C   UNL     1     -20.439  -8.740  -5.281  1.00  0.00     0.126 C 
BRANCH  16  17
HETATM   17  C   UNL     1     -20.834  -7.408  -4.636  1.00  0.00     0.058 C 
BRANCH  17  18
HETATM   18  C   UNL     1     -21.369  -7.533  -3.229  1.00  0.00    -0.057 A 
HETATM   19  C   UNL     1     -21.847  -6.408  -2.540  1.00  0.00     0.009 A 
HETATM   20  C   UNL     1     -22.314  -6.524  -1.230  1.00  0.00     0.024 A 
HETATM   21  C   UNL     1     -22.324  -7.771  -0.609  1.00  0.00     0.034 A 
HETATM   22 CL   UNL     1     -22.876  -7.912   1.014  1.00  0.00    -0.084 Cl
HETATM   23  C   UNL     1     -21.887  -8.902  -1.293  1.00  0.00     0.024 A 
HETATM   24  C   UNL     1     -21.415  -8.784  -2.602  1.00  0.00     0.009 A 
ENDBRANCH  17  18
ENDBRANCH  16  17
ENDBRANCH  14  16
ENDBRANCH  12  14
ENDBRANCH   8  12
BRANCH   6  25
HETATM   25  O   UNL     1     -13.234 -13.299  -6.471  1.00  0.00    -0.358 OA
HETATM   26  H   UNL     1     -13.904 -13.717  -7.032  1.00  0.00     0.217 HD
ENDBRANCH   6  25
BRANCH   1  27
HETATM   27  O   UNL     1     -13.059 -14.588  -4.066  1.00  0.00    -0.358 OA
HETATM   28  H   UNL     1     -13.594 -15.302  -4.452  1.00  0.00     0.217 HD
ENDBRANCH   1  27
TORSDOF 7
ENDMDL
MODEL 5
REMARK VINA RESULT:      -7.5      4.430      6.788
REMARK  7 active torsions:
REMARK  status: ('A' for Active; 'I' for Inactive)
REMARK    1  A    between atoms: O_1  and  C_2 
REMARK    2  A    between atoms: C_7  and  O_8 
REMARK    3  A    between atoms: N_10  and  C_11 
REMARK    4  A    between atoms: C_11  and  N_13 
REMARK    5  A    between atoms: N_13  and  C_14 
REMARK    6  A    between atoms: C_14  and  C_15 
REMARK    7  A    between atoms: C_15  and  C_16 
ROOT
HETATM    1  C   UNL     1     -22.411  -7.998  -0.085  1.00  0.00     0.099 A 
HETATM    2  C   UNL     1     -22.359  -7.067  -1.119  1.00  0.00     0.047 A 
HETATM    3  C   UNL     1     -21.488  -7.259  -2.208  1.00  0.00    -0.047 A 
HETATM    4  C   UNL     1     -20.651  -8.394  -2.239  1.00  0.00    -0.031 A 
HETATM    5  C   UNL     1     -20.722  -9.327  -1.189  1.00  0.00     0.048 A 
HETATM    6  C   UNL     1     -21.594  -9.125  -0.119  1.00  0.00     0.099 A 
HETATM    7  C   UNL     1     -19.695  -8.628  -3.393  1.00  0.00     0.164 C 
HETATM    8  N   UNL     1     -20.422  -8.887  -4.651  1.00  0.00    -0.354 N 
HETATM    9  C   UNL     1     -20.861  -7.684  -5.370  1.00  0.00     0.126 C 
HETATM   10  C   UNL     1     -21.951  -6.881  -4.657  1.00  0.00     0.025 C 
HETATM   11  C   UNL     1     -21.483  -6.257  -3.338  1.00  0.00     0.041 C 
ENDROOT
BRANCH   8  12
HETATM   12  C   UNL     1     -20.603 -10.191  -5.129  1.00  0.00     0.170 C 
HETATM   13  S   UNL     1     -21.724 -11.273  -4.487  1.00  0.00    -0.041 SA
BRANCH  12  14
HETATM   14  N   UNL     1     -19.783 -10.519  -6.202  1.00  0.00    -0.367 N 
HETATM   15  H   UNL     1     -20.250 -10.587  -7.092  1.00  0.00     0.161 HD
BRANCH  14  16
HETATM   16  C   UNL     1     -18.606 -11.386  -6.060  1.00  0.00     0.126 C 
BRANCH  16  17
HETATM   17  C   UNL     1     -17.331 -10.672  -5.602  1.00  0.00     0.058 C 
BRANCH  17  18
HETATM   18  C   UNL     1     -16.963 -10.918  -4.158  1.00  0.00    -0.057 A 
HETATM   19  C   UNL     1     -16.064 -10.073  -3.491  1.00  0.00     0.009 A 
HETATM   20  C   UNL     1     -15.707 -10.322  -2.165  1.00  0.00     0.024 A 
HETATM   21  C   UNL     1     -16.263 -11.408  -1.493  1.00  0.00     0.034 A 
HETATM   22 CL   UNL     1     -15.806 -11.731   0.134  1.00  0.00    -0.084 Cl
HETATM   23  C   UNL     1     -17.185 -12.234  -2.130  1.00  0.00     0.024 A 
HETATM   24  C   UNL     1     -17.538 -11.988  -3.459  1.00  0.00     0.009 A 
ENDBRANCH  17  18
ENDBRANCH  16  17
ENDBRANCH  14  16
ENDBRANCH  12  14
ENDBRANCH   8  12
BRANCH   6  25
HETATM   25  O   UNL     1     -21.661 -10.033   0.901  1.00  0.00    -0.358 OA
HETATM   26  H   UNL     1     -21.116  -9.718   1.639  1.00  0.00     0.217 HD
ENDBRANCH   6  25
BRANCH   1  27
HETATM   27  O   UNL     1     -23.266  -7.820   0.963  1.00  0.00    -0.358 OA
HETATM   28  H   UNL     1     -23.950  -7.179   0.708  1.00  0.00     0.217 HD
ENDBRANCH   1  27
TORSDOF 7
ENDMDL
MODEL 6
REMARK VINA RESULT:      -7.5      4.996      7.449
REMARK  7 active torsions:
REMARK  status: ('A' for Active; 'I' for Inactive)
REMARK    1  A    between atoms: O_1  and  C_2 
REMARK    2  A    between atoms: C_7  and  O_8 
REMARK    3  A    between atoms: N_10  and  C_11 
REMARK    4  A    between atoms: C_11  and  N_13 
REMARK    5  A    between atoms: N_13  and  C_14 
REMARK    6  A    between atoms: C_14  and  C_15 
REMARK    7  A    between atoms: C_15  and  C_16 
ROOT
HETATM    1  C   UNL     1     -21.604  -6.958  -3.026  1.00  0.00     0.099 A 
HETATM    2  C   UNL     1     -21.821  -7.038  -1.653  1.00  0.00     0.047 A 
HETATM    3  C   UNL     1     -21.866  -8.290  -1.010  1.00  0.00    -0.047 A 
HETATM    4  C   UNL     1     -21.707  -9.468  -1.769  1.00  0.00    -0.031 A 
HETATM    5  C   UNL     1     -21.482  -9.367  -3.154  1.00  0.00     0.048 A 
HETATM    6  C   UNL     1     -21.435  -8.119  -3.775  1.00  0.00     0.099 A 
HETATM    7  C   UNL     1     -21.757 -10.834  -1.111  1.00  0.00     0.164 C 
HETATM    8  N   UNL     1     -20.615 -11.034  -0.198  1.00  0.00    -0.354 N 
HETATM    9  C   UNL     1     -20.794 -10.472   1.148  1.00  0.00     0.126 C 
HETATM   10  C   UNL     1     -20.840  -8.944   1.197  1.00  0.00     0.025 C 
HETATM   11  C   UNL     1     -22.059  -8.348   0.486  1.00  0.00     0.041 C 
ENDROOT
BRANCH   8  12
HETATM   12  C   UNL     1     -19.489 -11.767  -0.593  1.00  0.00     0.170 C 
HETATM   13  S   UNL     1     -19.375 -12.580  -2.066  1.00  0.00    -0.041 SA
BRANCH  12  14
HETATM   14  N   UNL     1     -18.452 -11.755   0.332  1.00  0.00    -0.367 N 
HETATM   15  H   UNL     1     -18.335 -10.888   0.832  1.00  0.00     0.161 HD
BRANCH  14  16
HETATM   16  C   UNL     1     -17.216 -12.525   0.141  1.00  0.00     0.126 C 
BRANCH  16  17
HETATM   17  C   UNL     1     -15.999 -11.695  -0.283  1.00  0.00     0.058 C 
BRANCH  17  18
HETATM   18  C   UNL     1     -15.889 -11.471  -1.772  1.00  0.00    -0.057 A 
HETATM   19  C   UNL     1     -15.514 -12.516  -2.630  1.00  0.00     0.009 A 
HETATM   20  C   UNL     1     -15.387 -12.295  -4.003  1.00  0.00     0.024 A 
HETATM   21  C   UNL     1     -15.652 -11.032  -4.526  1.00  0.00     0.034 A 
HETATM   22 CL   UNL     1     -15.471 -10.752  -6.214  1.00  0.00    -0.084 Cl
HETATM   23  C   UNL     1     -16.060  -9.996  -3.692  1.00  0.00     0.024 A 
HETATM   24  C   UNL     1     -16.182 -10.215  -2.319  1.00  0.00     0.009 A 
ENDBRANCH  17  18
ENDBRANCH  16  17
ENDBRANCH  14  16
ENDBRANCH  12  14
ENDBRANCH   8  12
BRANCH   6  25
HETATM   25  O   UNL     1     -21.217  -8.022  -5.121  1.00  0.00    -0.358 OA
HETATM   26  H   UNL     1     -21.364  -8.889  -5.527  1.00  0.00     0.217 HD
ENDBRANCH   6  25
BRANCH   1  27
HETATM   27  O   UNL     1     -21.546  -5.744  -3.646  1.00  0.00    -0.358 OA
HETATM   28  H   UNL     1     -20.694  -5.324  -3.440  1.00  0.00     0.217 HD
ENDBRANCH   1  27
TORSDOF 7
ENDMDL
MODEL 7
REMARK VINA RESULT:      -7.2      2.169      3.268
REMARK  7 active torsions:
REMARK  status: ('A' for Active; 'I' for Inactive)
REMARK    1  A    between atoms: O_1  and  C_2 
REMARK    2  A    between atoms: C_7  and  O_8 
REMARK    3  A    between atoms: N_10  and  C_11 
REMARK    4  A    between atoms: C_11  and  N_13 
REMARK    5  A    between atoms: N_13  and  C_14 
REMARK    6  A    between atoms: C_14  and  C_15 
REMARK    7  A    between atoms: C_15  and  C_16 
ROOT
HETATM    1  C   UNL     1     -21.951  -8.293   0.113  1.00  0.00     0.099 A 
HETATM    2  C   UNL     1     -21.541  -9.617  -0.013  1.00  0.00     0.047 A 
HETATM    3  C   UNL     1     -21.334 -10.181  -1.286  1.00  0.00    -0.047 A 
HETATM    4  C   UNL     1     -21.563  -9.401  -2.439  1.00  0.00    -0.031 A 
HETATM    5  C   UNL     1     -21.971  -8.063  -2.292  1.00  0.00     0.048 A 
HETATM    6  C   UNL     1     -22.167  -7.518  -1.023  1.00  0.00     0.099 A 
HETATM    7  C   UNL     1     -21.358  -9.979  -3.827  1.00  0.00     0.164 C 
HETATM    8  N   UNL     1     -19.936 -10.285  -4.078  1.00  0.00    -0.354 N 
HETATM    9  C   UNL     1     -19.484 -11.584  -3.562  1.00  0.00     0.126 C 
HETATM   10  C   UNL     1     -19.457 -11.687  -2.036  1.00  0.00     0.025 C 
HETATM   11  C   UNL     1     -20.845 -11.606  -1.395  1.00  0.00     0.041 C 
ENDROOT
BRANCH   8  12
HETATM   12  C   UNL     1     -19.125  -9.412  -4.814  1.00  0.00     0.170 C 
HETATM   13  S   UNL     1     -17.779  -9.911  -5.698  1.00  0.00    -0.041 SA
BRANCH  12  14
HETATM   14  N   UNL     1     -19.536  -8.085  -4.770  1.00  0.00    -0.367 N 
HETATM   15  H   UNL     1     -19.706  -7.721  -3.847  1.00  0.00     0.161 HD
BRANCH  14  16
HETATM   16  C   UNL     1     -20.351  -7.476  -5.830  1.00  0.00     0.126 C 
BRANCH  16  17
HETATM   17  C   UNL     1     -20.494  -5.954  -5.738  1.00  0.00     0.058 C 
BRANCH  17  18
HETATM   18  C   UNL     1     -20.874  -5.286  -7.038  1.00  0.00    -0.057 A 
HETATM   19  C   UNL     1     -19.996  -5.293  -8.133  1.00  0.00     0.009 A 
HETATM   20  C   UNL     1     -20.341  -4.650  -9.323  1.00  0.00     0.024 A 
HETATM   21  C   UNL     1     -21.574  -4.012  -9.430  1.00  0.00     0.034 A 
HETATM   22 CL   UNL     1     -21.990  -3.197 -10.887  1.00  0.00    -0.084 Cl
HETATM   23  C   UNL     1     -22.470  -4.027  -8.365  1.00  0.00     0.024 A 
HETATM   24  C   UNL     1     -22.123  -4.666  -7.173  1.00  0.00     0.009 A 
ENDBRANCH  17  18
ENDBRANCH  16  17
ENDBRANCH  14  16
ENDBRANCH  12  14
ENDBRANCH   8  12
BRANCH   6  25
HETATM   25  O   UNL     1     -22.565  -6.217  -0.881  1.00  0.00    -0.358 OA
HETATM   26  H   UNL     1     -22.882  -6.082   0.025  1.00  0.00     0.217 HD
ENDBRANCH   6  25
BRANCH   1  27
HETATM   27  O   UNL     1     -22.137  -7.742   1.348  1.00  0.00    -0.358 OA
HETATM   28  H   UNL     1     -22.207  -8.454   2.005  1.00  0.00     0.217 HD
ENDBRANCH   1  27
TORSDOF 7
ENDMDL
MODEL 8
REMARK VINA RESULT:      -7.1      5.601      8.638
REMARK  7 active torsions:
REMARK  status: ('A' for Active; 'I' for Inactive)
REMARK    1  A    between atoms: O_1  and  C_2 
REMARK    2  A    between atoms: C_7  and  O_8 
REMARK    3  A    between atoms: N_10  and  C_11 
REMARK    4  A    between atoms: C_11  and  N_13 
REMARK    5  A    between atoms: N_13  and  C_14 
REMARK    6  A    between atoms: C_14  and  C_15 
REMARK    7  A    between atoms: C_15  and  C_16 
ROOT
HETATM    1  C   UNL     1     -19.177  -9.074  -4.937  1.00  0.00     0.099 A 
HETATM    2  C   UNL     1     -17.990  -9.507  -5.522  1.00  0.00     0.047 A 
HETATM    3  C   UNL     1     -16.908  -9.917  -4.720  1.00  0.00    -0.047 A 
HETATM    4  C   UNL     1     -17.026  -9.871  -3.315  1.00  0.00    -0.031 A 
HETATM    5  C   UNL     1     -18.235  -9.438  -2.742  1.00  0.00     0.048 A 
HETATM    6  C   UNL     1     -19.300  -9.039  -3.551  1.00  0.00     0.099 A 
HETATM    7  C   UNL     1     -15.878 -10.299  -2.420  1.00  0.00     0.164 C 
HETATM    8  N   UNL     1     -15.606 -11.743  -2.546  1.00  0.00    -0.354 N 
HETATM    9  C   UNL     1     -14.748 -12.115  -3.680  1.00  0.00     0.126 C 
HETATM   10  C   UNL     1     -15.385 -11.898  -5.054  1.00  0.00     0.025 C 
HETATM   11  C   UNL     1     -15.647 -10.424  -5.379  1.00  0.00     0.041 C 
ENDROOT
BRANCH   8  12
HETATM   12  C   UNL     1     -16.088 -12.658  -1.600  1.00  0.00     0.170 C 
HETATM   13  S   UNL     1     -15.143 -13.308  -0.365  1.00  0.00    -0.041 SA
BRANCH  12  14
HETATM   14  N   UNL     1     -17.431 -12.977  -1.755  1.00  0.00    -0.367 N 
HETATM   15  H   UNL     1     -17.761 -12.991  -2.707  1.00  0.00     0.161 HD
BRANCH  14  16
HETATM   16  C   UNL     1     -18.448 -12.612  -0.760  1.00  0.00     0.126 C 
BRANCH  16  17
HETATM   17  C   UNL     1     -19.894 -12.675  -1.262  1.00  0.00     0.058 C 
BRANCH  17  18
HETATM   18  C   UNL     1     -20.768 -11.539  -0.788  1.00  0.00    -0.057 A 
HETATM   19  C   UNL     1     -22.034 -11.321  -1.353  1.00  0.00     0.009 A 
HETATM   20  C   UNL     1     -22.826 -10.253  -0.929  1.00  0.00     0.024 A 
HETATM   21  C   UNL     1     -22.363  -9.408   0.077  1.00  0.00     0.034 A 
HETATM   22 CL   UNL     1     -23.327  -8.075   0.583  1.00  0.00    -0.084 Cl
HETATM   23  C   UNL     1     -21.125  -9.632   0.672  1.00  0.00     0.024 A 
HETATM   24  C   UNL     1     -20.331 -10.698   0.244  1.00  0.00     0.009 A 
ENDBRANCH  17  18
ENDBRANCH  16  17
ENDBRANCH  14  16
ENDBRANCH  12  14
ENDBRANCH   8  12
BRANCH   6  25
HETATM   25  O   UNL     1     -20.474  -8.617  -2.993  1.00  0.00    -0.358 OA
HETATM   26  H   UNL     1     -20.301  -8.305  -2.092  1.00  0.00     0.217 HD
ENDBRANCH   6  25
BRANCH   1  27
HETATM   27  O   UNL     1     -20.230  -8.691  -5.715  1.00  0.00    -0.358 OA
HETATM   28  H   UNL     1     -19.908  -8.099  -6.415  1.00  0.00     0.217 HD
ENDBRANCH   1  27
TORSDOF 7
ENDMDL
MODEL 9
REMARK VINA RESULT:      -7.0      4.902      6.829
REMARK  7 active torsions:
REMARK  status: ('A' for Active; 'I' for Inactive)
REMARK    1  A    between atoms: O_1  and  C_2 
REMARK    2  A    between atoms: C_7  and  O_8 
REMARK    3  A    between atoms: N_10  and  C_11 
REMARK    4  A    between atoms: C_11  and  N_13 
REMARK    5  A    between atoms: N_13  and  C_14 
REMARK    6  A    between atoms: C_14  and  C_15 
REMARK    7  A    between atoms: C_15  and  C_16 
ROOT
HETATM    1  C   UNL     1     -20.441  -8.483  -4.886  1.00  0.00     0.099 A 
HETATM    2  C   UNL     1     -20.817  -7.742  -3.770  1.00  0.00     0.047 A 
HETATM    3  C   UNL     1     -21.506  -8.356  -2.706  1.00  0.00    -0.047 A 
HETATM    4  C   UNL     1     -21.830  -9.727  -2.785  1.00  0.00    -0.031 A 
HETATM    5  C   UNL     1     -21.436 -10.460  -3.918  1.00  0.00     0.048 A 
HETATM    6  C   UNL     1     -20.750  -9.838  -4.962  1.00  0.00     0.099 A 
HETATM    7  C   UNL     1     -22.578 -10.418  -1.661  1.00  0.00     0.164 C 
HETATM    8  N   UNL     1     -21.765 -10.480  -0.431  1.00  0.00    -0.354 N 
HETATM    9  C   UNL     1     -21.808  -9.270   0.400  1.00  0.00     0.126 C 
HETATM   10  C   UNL     1     -21.145  -8.044  -0.231  1.00  0.00     0.025 C 
HETATM   11  C   UNL     1     -21.864  -7.540  -1.486  1.00  0.00     0.041 C 
ENDROOT
BRANCH   8  12
HETATM   12  C   UNL     1     -21.072 -11.645  -0.078  1.00  0.00     0.170 C 
HETATM   13  S   UNL     1     -21.829 -13.078   0.386  1.00  0.00    -0.041 SA
BRANCH  12  14
HETATM   14  N   UNL     1     -19.689 -11.527  -0.159  1.00  0.00    -0.367 N 
HETATM   15  H   UNL     1     -19.284 -10.828   0.442  1.00  0.00     0.161 HD
BRANCH  14  16
HETATM   16  C   UNL     1     -18.949 -11.769  -1.405  1.00  0.00     0.126 C 
BRANCH  16  17
HETATM   17  C   UNL     1     -18.361 -10.515  -2.059  1.00  0.00     0.058 C 
BRANCH  17  18
HETATM   18  C   UNL     1     -17.554 -10.784  -3.307  1.00  0.00    -0.057 A 
HETATM   19  C   UNL     1     -17.701 -11.988  -4.011  1.00  0.00     0.009 A 
HETATM   20  C   UNL     1     -16.933 -12.243  -5.149  1.00  0.00     0.024 A 
HETATM   21  C   UNL     1     -16.027 -11.286  -5.598  1.00  0.00     0.034 A 
HETATM   22 CL   UNL     1     -15.060 -11.608  -6.984  1.00  0.00    -0.084 Cl
HETATM   23  C   UNL     1     -15.896 -10.072  -4.930  1.00  0.00     0.024 A 
HETATM   24  C   UNL     1     -16.661  -9.819  -3.790  1.00  0.00     0.009 A 
ENDBRANCH  17  18
ENDBRANCH  16  17
ENDBRANCH  14  16
ENDBRANCH  12  14
ENDBRANCH   8  12
BRANCH   6  25
HETATM   25  O   UNL     1     -20.368 -10.553  -6.063  1.00  0.00    -0.358 OA
HETATM   26  H   UNL     1     -21.107 -11.112  -6.348  1.00  0.00     0.217 HD
ENDBRANCH   6  25
BRANCH   1  27
HETATM   27  O   UNL     1     -19.760  -7.891  -5.910  1.00  0.00    -0.358 OA
HETATM   28  H   UNL     1     -19.089  -7.294  -5.540  1.00  0.00     0.217 HD
ENDBRANCH   1  27
TORSDOF 7
ENDMDL
