REMARK  6 active torsions:
REMARK  status: ('A' for Active; 'I' for Inactive)
REMARK    1  A    between atoms: C_2  and  C_3 
REMARK    2  A    between atoms: C_3  and  C_4 
REMARK    3  A    between atoms: C_4  and  C_5 
REMARK    4  A    between atoms: C_5  and  C_6 
REMARK    5  A    between atoms: C_5  and  O_8 
REMARK    6  A    between atoms: C_6  and  O_7 
ROOT
HETATM    1  C   UNL     1       5.078   2.050   2.091  1.00  0.00     0.141 C 
ENDROOT
BRANCH   1   2
HETATM    2  C   UNL     1       4.555   1.032   1.073  1.00  0.00     0.034 C 
BRANCH   2   3
HETATM    3  C   UNL     1       3.030   1.016   0.961  1.00  0.00     0.002 C 
BRANCH   3   4
HETATM    4  C   UNL     1       2.549  -0.001  -0.074  1.00  0.00    -0.004 C 
HETATM    5  C   UNL     1       1.031  -0.023  -0.157  1.00  0.00     0.005 C 
ENDBRANCH   3   4
ENDBRANCH   2   3
ENDBRANCH   1   2
BRANCH   1   6
HETATM    6  C   UNL     1       4.610   1.788   3.529  1.00  0.00     0.195 C 
BRANCH   6   7
HETATM    7  O   UNL     1       5.192   2.748   4.409  1.00  0.00    -0.398 OA
HETATM    8  H   UNL     1       6.097   2.904   4.071  1.00  0.00     0.209 HD
ENDBRANCH   6   7
ENDBRANCH   1   6
BRANCH   1   9
HETATM    9  O   UNL     1       6.515   2.024   2.084  1.00  0.00    -0.393 OA
HETATM   10  H   UNL     1       6.798   1.100   2.205  1.00  0.00     0.210 HD
ENDBRANCH   1   9
TORSDOF 6
