REMARK  11 active torsions:
REMARK  status: ('A' for Active; 'I' for Inactive)
REMARK    1  A    between atoms: C_1  and  C_2 
REMARK    2  A    between atoms: C_1  and  C_9 
REMARK    3  A    between atoms: C_2  and  C_3 
REMARK    4  A    between atoms: C_3  and  C_4 
REMARK    5  A    between atoms: C_4  and  C_5 
REMARK    6  A    between atoms: C_5  and  C_6 
REMARK    7  A    between atoms: C_6  and  O_8 
REMARK    8  A    between atoms: C_9  and  C_10 
REMARK    9  A    between atoms: C_10  and  C_11 
REMARK   10  A    between atoms: C_11  and  C_12 
REMARK   11  A    between atoms: C_12  and  O_13 
ROOT
HETATM    1  C   UNL     1       0.452   1.166  -0.955  1.00  0.00     0.000 C 
ENDROOT
BRANCH   1   2
HETATM    2  C   UNL     1       0.985   0.024  -0.099  1.00  0.00     0.000 C 
BRANCH   2   3
HETATM    3  C   UNL     1       2.510   0.017  -0.092  1.00  0.00     0.000 C 
BRANCH   3   4
HETATM    4  C   UNL     1       3.034  -1.128   0.767  1.00  0.00     0.002 C 
BRANCH   4   5
HETATM    5  C   UNL     1       4.557  -1.148   0.781  1.00  0.00     0.026 C 
BRANCH   5   6
HETATM    6  C   UNL     1       5.077  -2.291   1.639  1.00  0.00     0.164 C 
BRANCH   6   7
HETATM    7  O   UNL     1       6.496  -2.288   1.636  1.00  0.00    -0.401 OA
HETATM    8  H   UNL     1       6.785  -2.388   0.713  1.00  0.00     0.209 HD
ENDBRANCH   6   7
ENDBRANCH   5   6
ENDBRANCH   4   5
ENDBRANCH   3   4
ENDBRANCH   2   3
ENDBRANCH   1   2
BRANCH   1   9
HETATM    9  C   UNL     1      -1.074   1.173  -0.964  1.00  0.00     0.001 C 
BRANCH   9  10
HETATM   10  C   UNL     1      -1.591   2.321  -1.825  1.00  0.00     0.010 C 
BRANCH  10  11
HETATM   11  C   UNL     1      -3.115   2.374  -1.867  1.00  0.00     0.110 C 
BRANCH  11  12
HETATM   12  C   UNL     1      -3.580   3.524  -2.729  1.00  0.00     0.139 C 
HETATM   13  O   UNL     1      -2.848   4.307  -3.316  1.00  0.00    -0.650 OA
BRANCH  12  14
HETATM   14  O   UNL     1      -4.924   3.610  -2.800  1.00  0.00    -0.776 OA
HETATM   15  H   UNL     1      -5.394   2.924  -2.287  1.00  0.00     0.167 HD
ENDBRANCH  12  14
ENDBRANCH  11  12
ENDBRANCH  10  11
ENDBRANCH   9  10
ENDBRANCH   1   9
TORSDOF 11
