REMARK  5 active torsions:
REMARK  status: ('A' for Active; 'I' for Inactive)
REMARK    1  A    between atoms: C_1  and  C_2 
REMARK    2  A    between atoms: C_1  and  O_9 
REMARK    3  A    between atoms: C_2  and  C_3 
REMARK    4  A    between atoms: C_2  and  N_5 
REMARK    5  A    between atoms: C_3  and  O_4 
ROOT
HETATM    1  C   UNL     1       0.436   1.363  -0.013  1.00  0.00     0.195 C 
HETATM    2 BR   UNL     1      -1.532   1.295  -0.096  1.00  0.00    -0.050 Br
ENDROOT
BRANCH   1   3
HETATM    3  C   UNL     1       0.972  -0.071  -0.054  1.00  0.00     0.216 C 
BRANCH   3   4
HETATM    4  O   UNL     1       2.400  -0.141  -0.026  1.00  0.00    -0.397 OA
HETATM    5  H   UNL     1       2.720   0.031  -0.935  1.00  0.00     0.209 HD
ENDBRANCH   3   4
ENDBRANCH   1   3
BRANCH   1   6
HETATM    6  C   UNL     1       0.876   2.162   1.213  1.00  0.00     0.216 C 
BRANCH   6   7
HETATM    7  O   UNL     1       0.486   1.536   2.442  1.00  0.00    -0.397 OA
HETATM    8  H   UNL     1      -0.471   1.678   2.562  1.00  0.00     0.209 HD
ENDBRANCH   6   7
ENDBRANCH   1   6
BRANCH   1   9
HETATM    9  N   UNL     1       0.857   2.123  -1.256  1.00  0.00    -0.129 N 
HETATM   10  O   UNL     1       1.483   1.510  -2.134  1.00  0.00    -0.535 OA
HETATM   11  O   UNL     1       0.566   3.328  -1.322  1.00  0.00    -0.535 OA
ENDBRANCH   1   9
TORSDOF 5
