REMARK  7 active torsions:
REMARK  status: ('A' for Active; 'I' for Inactive)
REMARK    1  A    between atoms: C_2  and  O_3 
REMARK    2  A    between atoms: O_3  and  C_4 
REMARK    3  A    between atoms: C_5  and  O_14 
REMARK    4  A    between atoms: C_9  and  C_10 
REMARK    5  A    between atoms: C_10  and  C_11 
REMARK    6  A    between atoms: C_10  and  O_13 
REMARK    7  A    between atoms: C_11  and  O_12 
ROOT
HETATM    1  C   UNL     1       4.297  -0.510  -1.473  1.00  0.00     0.117 C 
HETATM    2  C   UNL     1       4.883  -0.010  -2.559  1.00  0.00     0.174 C 
HETATM    3  C   UNL     1       6.324  -0.273  -2.433  1.00  0.00     0.320 C 
HETATM    4  O   UNL     1       7.203   0.065  -3.206  1.00  0.00    -0.257 OA
HETATM    5  O   UNL     1       6.538  -0.991  -1.292  1.00  0.00    -0.301 OA
HETATM    6  C   UNL     1       5.310  -1.091  -0.546  1.00  0.00     0.222 C 
ENDROOT
BRANCH   6   7
HETATM    7  C   UNL     1       5.518  -0.355   0.794  1.00  0.00     0.177 C 
BRANCH   7   8
HETATM    8  C   UNL     1       6.569  -1.080   1.648  1.00  0.00     0.198 C 
BRANCH   8   9
HETATM    9  O   UNL     1       6.721  -0.412   2.898  1.00  0.00    -0.398 OA
HETATM   10  H   UNL     1       6.745   0.545   2.696  1.00  0.00     0.209 HD
ENDBRANCH   8   9
ENDBRANCH   7   8
BRANCH   7  11
HETATM   11  O   UNL     1       5.983   0.994   0.595  1.00  0.00    -0.390 OA
HETATM   12  H   UNL     1       6.823   0.947   0.098  1.00  0.00     0.210 HD
ENDBRANCH   7  11
ENDBRANCH   6   7
BRANCH   1  13
HETATM   13  O   UNL     1       2.931  -0.546  -1.294  1.00  0.00    -0.350 OA
BRANCH  13  14
HETATM   14  C   UNL     1       2.460  -1.684  -0.564  1.00  0.00     0.171 C 
HETATM   15  C   UNL     1       0.949  -1.778  -0.678  1.00  0.00     0.034 C 
ENDBRANCH  13  14
ENDBRANCH   1  13
BRANCH   2  16
HETATM   16  O   UNL     1       4.280   0.576  -3.634  1.00  0.00    -0.353 OA
HETATM   17  H   UNL     1       3.325   0.612  -3.431  1.00  0.00     0.218 HD
ENDBRANCH   2  16
TORSDOF 7
