REMARK  7 active torsions:
REMARK  status: ('A' for Active; 'I' for Inactive)
REMARK    1  A    between atoms: C_3  and  N_11 
REMARK    2  A    between atoms: C_4  and  N_8 
REMARK    3  A    between atoms: C_6  and  O_7 
REMARK    4  A    between atoms: N_11  and  C_12 
REMARK    5  A    between atoms: C_12  and  C_13 
REMARK    6  A    between atoms: C_13  and  C_14 
REMARK    7  A    between atoms: C_14  and  O_15 
ROOT
HETATM    1  C   UNL     1       0.265   1.190   0.033  1.00  0.00     0.039 A 
HETATM    2  C   UNL     1      -1.131   1.151   0.042  1.00  0.00     0.034 A 
HETATM    3  C   UNL     1      -1.854  -0.051   0.052  1.00  0.00     0.061 A 
HETATM    4  C   UNL     1      -1.092  -1.247   0.078  1.00  0.00     0.131 A 
HETATM    5  C   UNL     1       0.322  -1.213   0.058  1.00  0.00     0.075 A 
HETATM    6  C   UNL     1       0.980   0.009   0.036  1.00  0.00     0.068 A 
ENDROOT
BRANCH   3   7
HETATM    7  N   UNL     1      -3.252  -0.028  -0.025  1.00  0.00    -0.388 N 
HETATM    8  H   UNL     1      -3.697  -0.595   0.701  1.00  0.00     0.159 HD
BRANCH   7   9
HETATM    9  C   UNL     1      -3.964   1.187  -0.404  1.00  0.00     0.122 C 
BRANCH   9  10
HETATM   10  C   UNL     1      -5.392   0.888  -0.840  1.00  0.00     0.045 C 
BRANCH  10  11
HETATM   11  C   UNL     1      -5.451  -0.070  -2.021  1.00  0.00     0.165 C 
BRANCH  11  12
HETATM   12  O   UNL     1      -6.799  -0.190  -2.464  1.00  0.00    -0.401 OA
HETATM   13  H   UNL     1      -7.281  -0.692  -1.782  1.00  0.00     0.209 HD
ENDBRANCH  11  12
ENDBRANCH  10  11
ENDBRANCH   9  10
ENDBRANCH   7   9
ENDBRANCH   3   7
BRANCH   4  14
HETATM   14  N   UNL     1      -1.722  -2.588   0.085  1.00  0.00    -0.113 N 
HETATM   15  O   UNL     1      -2.942  -2.677   0.267  1.00  0.00    -0.532 OA
HETATM   16  O   UNL     1      -0.972  -3.567  -0.061  1.00  0.00    -0.532 OA
ENDBRANCH   4  14
BRANCH   6  17
HETATM   17  O   UNL     1       2.338   0.097   0.009  1.00  0.00    -0.361 OA
HETATM   18  H   UNL     1       2.720  -0.798  -0.021  1.00  0.00     0.217 HD
ENDBRANCH   6  17
TORSDOF 7
