REMARK  1 active torsions:
REMARK  status: ('A' for Active; 'I' for Inactive)
REMARK    1  A    between atoms: C_5  and  C_8 
ROOT
HETATM    1  C   UNL     1      -3.229   0.129  -0.153  1.00  0.00     0.022 C 
HETATM    2  C   UNL     1      -3.954   1.243  -0.006  1.00  0.00    -0.006 C 
HETATM    3  C   UNL     1      -3.574   2.686   0.257  1.00  0.00     0.031 C 
HETATM    4  C   UNL     1      -3.857   3.438  -1.066  1.00  0.00     0.011 C 
HETATM    5  C   UNL     1      -5.405   3.492  -1.129  1.00  0.00     0.018 C 
HETATM    6  C   UNL     1      -5.836   2.776   0.176  1.00  0.00     0.029 C 
HETATM    7  C   UNL     1      -5.458   1.312  -0.064  1.00  0.00     0.165 C 
HETATM    8  O   UNL     1      -6.203   0.376  -0.296  1.00  0.00    -0.292 OA
HETATM    9  C   UNL     1      -4.723   3.172   1.191  1.00  0.00    -0.025 C 
HETATM   10  C   UNL     1      -4.648   4.676   1.520  1.00  0.00     0.016 C 
HETATM   11  C   UNL     1      -4.804   2.432   2.545  1.00  0.00     0.016 C 
HETATM   12  C   UNL     1      -7.273   3.022   0.577  1.00  0.00     0.025 C 
ENDROOT
BRANCH   1  13
HETATM   13  C   UNL     1      -1.765   0.099  -0.117  1.00  0.00    -0.036 A 
HETATM   14  C   UNL     1      -1.090  -0.157   1.080  1.00  0.00     0.012 A 
HETATM   15  C   UNL     1       0.308  -0.234   1.104  1.00  0.00     0.007 A 
HETATM   16  C   UNL     1       1.051  -0.052  -0.069  1.00  0.00    -0.062 A 
HETATM   17  C   UNL     1       2.551  -0.133  -0.051  1.00  0.00     0.048 C 
HETATM   18  C   UNL     1       0.374   0.225  -1.262  1.00  0.00     0.007 A 
HETATM   19  C   UNL     1      -1.024   0.297  -1.286  1.00  0.00     0.012 A 
ENDBRANCH   1  13
TORSDOF 1
