REMARK  2 active torsions:
REMARK  status: ('A' for Active; 'I' for Inactive)
REMARK    1  A    between atoms: C_2  and  C_5 
REMARK    2  A    between atoms: C_8  and  O_11 
ROOT
HETATM    1  C   UNL     1       3.116  -1.197   0.572  1.00  0.00    -0.007 C 
HETATM    2  C   UNL     1       4.515  -1.568   0.037  1.00  0.00     0.008 C 
HETATM    3  C   UNL     1       4.516  -2.401  -1.243  1.00  0.00     0.032 C 
HETATM    4  C   UNL     1       3.549  -3.584  -1.218  1.00  0.00     0.118 C 
HETATM    5  C   UNL     1       2.187  -3.288  -0.600  1.00  0.00     0.032 C 
HETATM    6  C   UNL     1       2.291  -2.497   0.692  1.00  0.00     0.008 C 
ENDROOT
BRANCH   1   7
HETATM    7  C   UNL     1       2.398   0.036  -0.112  1.00  0.00    -0.048 C 
HETATM    8  C   UNL     1       2.204  -0.059  -1.635  1.00  0.00     0.015 C 
HETATM    9  C   UNL     1       3.213   1.328   0.141  1.00  0.00     0.015 C 
HETATM   10  C   UNL     1       1.007   0.254   0.526  1.00  0.00     0.015 C 
ENDBRANCH   1   7
BRANCH   4  11
HETATM   11  O   UNL     1       3.363  -4.055  -2.554  1.00  0.00    -0.396 OA
HETATM   12  H   UNL     1       2.946  -3.336  -3.067  1.00  0.00     0.210 HD
ENDBRANCH   4  11
TORSDOF 2
