REMARK  6 active torsions:
REMARK  status: ('A' for Active; 'I' for Inactive)
REMARK    1  A    between atoms: C_2  and  C_4 
REMARK    2  A    between atoms: C_4  and  C_5 
REMARK    3  A    between atoms: C_5  and  C_6 
REMARK    4  A    between atoms: C_6  and  C_7 
REMARK    5  A    between atoms: C_7  and  C_9 
REMARK    6  A    between atoms: C_24  and  O_26 
ROOT
HETATM    1  C   UNL     1       7.790   0.460   2.813  1.00  0.00    -0.002 C 
HETATM    2  C   UNL     1       8.667   0.620   1.554  1.00  0.00     0.006 C 
HETATM    3  C   UNL     1       9.827   1.481   2.042  1.00  0.00     0.010 C 
HETATM    4  C   UNL     1       9.670   1.549   3.585  1.00  0.00     0.023 C 
HETATM    5  C   UNL     1       8.880   0.217   3.927  1.00  0.00    -0.033 C 
HETATM    6  C   UNL     1       8.643   0.191   5.458  1.00  0.00     0.011 C 
HETATM    7  C   UNL     1       8.377   1.462   6.257  1.00  0.00     0.011 C 
HETATM    8  C   UNL     1       8.296   2.767   5.480  1.00  0.00     0.027 C 
HETATM    9  C   UNL     1       8.863   2.778   4.072  1.00  0.00    -0.070 C 
HETATM   10  C   UNL     1       8.442   3.844   3.350  1.00  0.00     0.004 C 
HETATM   11  C   UNL     1       7.972   5.054   4.000  1.00  0.00     0.004 C 
HETATM   12  C   UNL     1       8.372   5.262   5.282  1.00  0.00    -0.069 C 
HETATM   13  C   UNL     1       8.766   4.080   6.211  1.00  0.00    -0.013 C 
HETATM   14  C   UNL     1      10.292   4.145   6.442  1.00  0.00     0.017 C 
HETATM   15  C   UNL     1      11.043   4.937   5.366  1.00  0.00     0.033 C 
HETATM   16  C   UNL     1      10.534   6.410   5.250  1.00  0.00     0.122 C 
HETATM   17  C   UNL     1       9.040   6.566   5.596  1.00  0.00     0.066 C 
HETATM   18  C   UNL     1       8.023   4.192   7.568  1.00  0.00     0.021 C 
HETATM   19  C   UNL     1       9.758  -1.051   3.677  1.00  0.00     0.016 C 
ENDROOT
BRANCH   1  20
HETATM   20  C   UNL     1       6.334   0.081   2.498  1.00  0.00    -0.014 C 
HETATM   21  C   UNL     1       6.146  -1.085   1.538  1.00  0.00     0.010 C 
BRANCH  20  22
HETATM   22  C   UNL     1       5.715   1.403   1.824  1.00  0.00     0.005 C 
BRANCH  22  23
HETATM   23  C   UNL     1       4.243   1.293   1.531  1.00  0.00     0.001 C 
BRANCH  23  24
HETATM   24  C   UNL     1       3.604   2.534   0.894  1.00  0.00     0.004 C 
BRANCH  24  25
HETATM   25  C   UNL     1       2.081   2.303   0.782  1.00  0.00    -0.023 C 
HETATM   26  C   UNL     1       1.359   3.480   0.137  1.00  0.00     0.009 C 
HETATM   27  C   UNL     1       1.762   1.019   0.015  1.00  0.00     0.009 C 
ENDBRANCH  24  25
ENDBRANCH  23  24
ENDBRANCH  22  23
ENDBRANCH  20  22
ENDBRANCH   1  20
BRANCH  16  28
HETATM   28  O   UNL     1      10.773   6.884   3.916  1.00  0.00    -0.395 OA
HETATM   29  H   UNL     1      11.631   6.526   3.618  1.00  0.00     0.210 HD
ENDBRANCH  16  28
TORSDOF 6
