REMARK  3 active torsions:
REMARK  status: ('A' for Active; 'I' for Inactive)
REMARK       I    between atoms: C_2  and  N_4 
REMARK    1  A    between atoms: C_6  and  O_12 
REMARK    2  A    between atoms: C_8  and  C_9 
REMARK    3  A    between atoms: C_9  and  O_11 
ROOT
HETATM    1  C   UNL     1       1.356  -0.336   0.135  1.00  0.00     0.117 C 
HETATM    2  C   UNL     1       2.583   0.534   0.168  1.00  0.00     0.216 C 
HETATM    3  O   UNL     1       2.857   1.307  -0.754  1.00  0.00    -0.274 OA
HETATM    4  N   UNL     1       3.360   0.512   1.294  1.00  0.00    -0.335 N 
HETATM    5  C   UNL     1       3.041  -0.109   2.572  1.00  0.00     0.158 C 
HETATM    6  C   UNL     1       4.295   0.070   3.440  1.00  0.00     0.138 C 
HETATM    7  C   UNL     1       5.358   0.639   2.496  1.00  0.00     0.069 C 
HETATM    8  C   UNL     1       4.557   1.345   1.413  1.00  0.00     0.187 C 
ENDROOT
BRANCH   8   9
HETATM    9  C   UNL     1       4.182   2.789   1.781  1.00  0.00     0.163 C 
HETATM   10  O   UNL     1       4.531   3.356   2.806  1.00  0.00    -0.648 OA
BRANCH   9  11
HETATM   11  O   UNL     1       3.430   3.405   0.837  1.00  0.00    -0.775 OA
HETATM   12  H   UNL     1       3.238   2.823   0.060  1.00  0.00     0.167 HD
ENDBRANCH   9  11
ENDBRANCH   8   9
BRANCH   6  13
HETATM   13  O   UNL     1       4.734  -1.169   3.984  1.00  0.00    -0.394 OA
HETATM   14  H   UNL     1       4.963  -1.767   3.250  1.00  0.00     0.210 HD
ENDBRANCH   6  13
TORSDOF 3
