REMARK  24 active torsions:
REMARK  status: ('A' for Active; 'I' for Inactive)
REMARK    1  A    between atoms: CB_2  and  CA_4 
REMARK    2  A    between atoms: CA_4  and  C_5 
REMARK    3  A    between atoms: CA_4  and  N_14 
REMARK       I    between atoms: C_5  and  N_7 
REMARK    4  A    between atoms: N_7  and  CA_8 
REMARK    5  A    between atoms: CA_8  and  CB_9 
REMARK    6  A    between atoms: CA_8  and  C_12 
REMARK       I    between atoms: C_12  and  N_25 
REMARK       I    between atoms: N_14  and  C_15 
REMARK    7  A    between atoms: C_15  and  CA_17 
REMARK    8  A    between atoms: CA_17  and  CB_18 
REMARK    9  A    between atoms: CA_17  and  N_20 
REMARK   10  A    between atoms: CB_18  and  OG_19 
REMARK       I    between atoms: N_20  and  C_61 
REMARK   11  A    between atoms: N_25  and  CA_26 
REMARK   12  A    between atoms: CA_26  and  CB_27 
REMARK   13  A    between atoms: CA_26  and  C_30 
REMARK       I    between atoms: C_30  and  N_33 
REMARK   14  A    between atoms: N_33  and  CA_34 
REMARK   15  A    between atoms: CA_34  and  CB_35 
REMARK   16  A    between atoms: CA_34  and  C_43 
REMARK   17  A    between atoms: CB_35  and  CG_36 
REMARK   18  A    between atoms: CG_36  and  CD_37 
REMARK   19  A    between atoms: CD_37  and  NE_38 
REMARK       I    between atoms: CZ_40  and  NH1_41 
REMARK       I    between atoms: CZ_40  and  NH2_42 
REMARK       I    between atoms: C_43  and  N_50 
REMARK   20  A    between atoms: N_50  and  CA_51 
REMARK   21  A    between atoms: CA_51  and  CB_52 
REMARK   22  A    between atoms: CA_51  and  C_55 
REMARK   23  A    between atoms: CB_52  and  OG1_54 
REMARK   24  A    between atoms: C_55  and  OXT_57 
ROOT
ATOM      1  CA  VAL A   2      -3.232   4.979  -0.987  1.00  0.00     0.180 C 
ENDROOT
BRANCH   1   2
ATOM      2  N   VAL A   2      -1.749   4.897  -0.987  1.00  0.00    -0.346 N 
ATOM      3  C   SER A   1      -1.030   3.735  -1.183  1.00  0.00     0.241 C 
ATOM      4  O   SER A   1      -1.580   2.652  -1.377  1.00  0.00    -0.271 OA
ATOM      5  H   VAL A   2      -1.257   5.776  -0.841  1.00  0.00     0.163 HD
BRANCH   3   6
ATOM      6  CA  SER A   1       0.523   3.857  -1.215  1.00  0.00     0.180 C 
BRANCH   6   7
ATOM      7  N   SER A   1       1.081   2.642  -0.594  1.00  0.00    -0.346 N 
ATOM      8  C   SER A   1       2.251   2.641   0.153  1.00  0.00     0.241 C 
ATOM      9  O   SER A   1       2.939   3.655   0.273  1.00  0.00    -0.271 OA
ATOM     10  H   SER A   1       0.536   1.789  -0.657  1.00  0.00     0.163 HD
BRANCH   8  11
ATOM     11  CA  SER A   1       2.743   1.256   0.673  1.00  0.00     0.180 C 
BRANCH  11  12
ATOM     12  CB  SER A   1       3.644   0.524  -0.361  1.00  0.00     0.009 C 
ATOM     13  CG1 SER A   1       4.912   1.321  -0.707  1.00  0.00     0.012 C 
ATOM     14  CG2 SER A   1       4.094  -0.859   0.141  1.00  0.00     0.012 C 
ENDBRANCH  11  12
BRANCH  11  15
ATOM     15  N   SER A   1       1.587   0.424   1.047  1.00  0.00    -0.346 N 
ATOM     16  C   SER A   1       0.999   0.533   2.293  1.00  0.00     0.243 C 
ATOM     17  O   SER A   1       1.360   1.359   3.128  1.00  0.00    -0.271 OA
ATOM     18  H   SER A   1       1.109  -0.126   0.336  1.00  0.00     0.163 HD
BRANCH  16  19
ATOM     19  CA  SER A   1      -0.216  -0.382   2.515  1.00  0.00     0.200 C 
BRANCH  19  20
ATOM     20  CB  SER A   1      -0.337  -0.748   3.999  1.00  0.00     0.199 C 
BRANCH  20  21
ATOM     21  OG  SER A   1      -1.476  -1.583   4.232  1.00  0.00    -0.398 OA
ATOM     22  H   SER A   1      -2.261  -1.061   3.990  1.00  0.00     0.209 HD
ENDBRANCH  20  21
ENDBRANCH  19  20
BRANCH  19  23
ATOM     23  N   SER A   1      -1.435   0.287   2.060  1.00  0.00    -0.346 N 
HETATM   24  C   UNK A   0      -1.871   0.140   0.768  1.00  0.00     0.214 C 
HETATM   25  O   UNK A   0      -1.228  -0.477  -0.073  1.00  0.00    -0.274 OA
HETATM   26  C   UNK A   0      -3.228   0.726   0.510  1.00  0.00     0.117 C 
ATOM     27  H   SER A   1      -1.746   1.108   2.580  1.00  0.00     0.163 HD
ENDBRANCH  19  23
ENDBRANCH  16  19
ENDBRANCH  11  15
ENDBRANCH   8  11
ENDBRANCH   6   7
BRANCH   6  28
ATOM     28  CB  SER A   1       0.993   4.001  -2.690  1.00  0.00     0.009 C 
ATOM     29  CG1 SER A   1       0.391   5.240  -3.363  1.00  0.00     0.012 C 
ATOM     30  CG2 SER A   1       2.518   4.062  -2.832  1.00  0.00     0.012 C 
ENDBRANCH   6  28
ENDBRANCH   3   6
ENDBRANCH   1   2
BRANCH   1  31
ATOM     31  CB  VAL A   2      -3.850   4.238   0.224  1.00  0.00     0.009 C 
ATOM     32  CG1 VAL A   2      -3.363   4.758   1.577  1.00  0.00     0.012 C 
ATOM     33  CG2 VAL A   2      -5.377   4.137   0.201  1.00  0.00     0.012 C 
ENDBRANCH   1  31
BRANCH   1  34
ATOM     34  C   VAL A   2      -3.647   6.470  -0.982  1.00  0.00     0.241 C 
ATOM     35  O   VAL A   2      -2.890   7.333  -0.515  1.00  0.00    -0.271 OA
ATOM     36  N   ARG A   3      -4.899   6.766  -1.463  1.00  0.00    -0.346 N 
ATOM     37  H   ARG A   3      -5.469   6.035  -1.873  1.00  0.00     0.163 HD
BRANCH  36  38
ATOM     38  CA  ARG A   3      -5.512   8.106  -1.379  1.00  0.00     0.176 C 
BRANCH  38  39
ATOM     39  CB  ARG A   3      -4.686   9.182  -2.117  1.00  0.00     0.036 C 
BRANCH  39  40
ATOM     40  CG  ARG A   3      -4.366   8.884  -3.593  1.00  0.00     0.022 C 
BRANCH  40  41
ATOM     41  CD  ARG A   3      -5.608   8.833  -4.474  1.00  0.00     0.121 C 
BRANCH  41  42
ATOM     42  NE  ARG A   3      -5.262   8.501  -5.847  1.00  0.00    -0.372 N 
ATOM     43  CZ  ARG A   3      -6.127   7.844  -6.529  1.00  0.00     0.121 C 
ATOM     44  NH1 ARG A   3      -7.362   7.386  -6.209  1.00  0.00    -0.279 NA
ATOM     45  NH2 ARG A   3      -5.838   7.504  -7.803  1.00  0.00    -0.279 NA
ATOM     46 HH11 ARG A   3      -7.551   7.288  -5.221  1.00  0.00     0.126 HD
ATOM     47 HH12 ARG A   3      -7.560   6.505  -6.672  1.00  0.00     0.126 HD
ATOM     48 HH21 ARG A   3      -4.987   7.974  -8.096  1.00  0.00     0.126 HD
ATOM     49 HH22 ARG A   3      -6.598   7.698  -8.443  1.00  0.00     0.126 HD
ATOM     50  HE  ARG A   3      -4.368   8.779  -6.251  1.00  0.00     0.161 HD
ENDBRANCH  41  42
ENDBRANCH  40  41
ENDBRANCH  39  40
ENDBRANCH  38  39
BRANCH  38  51
ATOM     51  C   ARG A   3      -6.971   8.018  -1.907  1.00  0.00     0.241 C 
ATOM     52  O   ARG A   3      -7.421   6.965  -2.368  1.00  0.00    -0.271 OA
ATOM     53  N   THR A   4      -7.708   9.177  -1.925  1.00  0.00    -0.343 N 
ATOM     54  H   THR A   4      -7.327  10.017  -1.490  1.00  0.00     0.163 HD
BRANCH  53  55
ATOM     55  CA  THR A   4      -8.981   9.376  -2.678  1.00  0.00     0.210 C 
BRANCH  55  56
ATOM     56  CB  THR A   4     -10.149   8.508  -2.152  1.00  0.00     0.147 C 
ATOM     57  CG2 THR A   4     -11.501   8.821  -2.786  1.00  0.00     0.042 C 
BRANCH  56  58
ATOM     58  OG1 THR A   4      -9.961   7.123  -2.470  1.00  0.00    -0.393 OA
ATOM     59  HG1 THR A   4      -9.002   6.921  -2.462  1.00  0.00     0.210 HD
ENDBRANCH  56  58
ENDBRANCH  55  56
BRANCH  55  60
ATOM     60  C   THR A   4      -9.302  10.874  -2.572  1.00  0.00     0.166 C 
ATOM     61  O   THR A   4      -8.929  11.569  -1.634  1.00  0.00    -0.648 OA
BRANCH  60  62
ATOM     62  OXT THR A   4     -10.000  11.392  -3.606  1.00  0.00    -0.775 OA
ATOM     63  HXT THR A   4     -10.222  10.779  -4.333  1.00  0.00     0.167 HD
ENDBRANCH  60  62
ENDBRANCH  55  60
ENDBRANCH  53  55
ENDBRANCH  38  51
ENDBRANCH  36  38
ENDBRANCH   1  34
TORSDOF 24
