REMARK  6 active torsions:
REMARK  status: ('A' for Active; 'I' for Inactive)
REMARK       I    between atoms: C_2  and  N_4 
REMARK    1  A    between atoms: N_4  and  CA_5 
REMARK    2  A    between atoms: CA_5  and  CB_6 
REMARK    3  A    between atoms: CA_5  and  C_10 
REMARK    4  A    between atoms: CB_6  and  CG_7 
REMARK    5  A    between atoms: CG_7  and  SD_8 
REMARK    6  A    between atoms: C_10  and  OXT_12 
ROOT
ATOM      1  CA  MET A   1       4.582   0.903   0.904  1.00  0.00     0.183 C 
ENDROOT
BRANCH   1   2
ATOM      2  N   MET A   1       3.121   0.895   0.853  1.00  0.00    -0.347 N 
HETATM    3  C   UNK A   0       2.417  -0.167   0.345  1.00  0.00     0.214 C 
HETATM    4  C   UNK A   0       0.926   0.008   0.407  1.00  0.00     0.117 C 
HETATM    5  O   UNK A   0       2.951  -1.177  -0.101  1.00  0.00    -0.274 OA
ATOM      6  H   MET A   1       2.636   1.690   1.260  1.00  0.00     0.163 HD
ENDBRANCH   1   2
BRANCH   1   7
ATOM      7  CB  MET A   1       5.157   1.455  -0.406  1.00  0.00     0.046 C 
BRANCH   7   8
ATOM      8  CG  MET A   1       6.684   1.444  -0.503  1.00  0.00     0.076 C 
BRANCH   8   9
ATOM      9  SD  MET A   1       7.436  -0.193  -0.221  1.00  0.00    -0.173 SA
ATOM     10  CE  MET A   1       6.743  -1.082  -1.645  1.00  0.00     0.089 C 
ENDBRANCH   8   9
ENDBRANCH   7   8
ENDBRANCH   1   7
BRANCH   1  11
ATOM     11  C   MET A   1       4.997   1.773   2.092  1.00  0.00     0.163 C 
ATOM     12  O   MET A   1       4.342   2.730   2.492  1.00  0.00    -0.648 OA
BRANCH  11  13
ATOM     13  OXT MET A   1       6.174   1.418   2.655  1.00  0.00    -0.775 OA
ATOM     14  HXT MET A   1       6.605   0.640   2.242  1.00  0.00     0.167 HD
ENDBRANCH  11  13
ENDBRANCH   1  11
TORSDOF 6
