REMARK  16 active torsions:
REMARK  status: ('A' for Active; 'I' for Inactive)
REMARK       I    between atoms: C_2  and  N_4 
REMARK    1  A    between atoms: N_4  and  C_5 
REMARK    2  A    between atoms: C_5  and  C_6 
REMARK    3  A    between atoms: C_6  and  C_7 
REMARK       I    between atoms: C_7  and  N_10 
REMARK    4  A    between atoms: N_10  and  CA_11 
REMARK    5  A    between atoms: CA_11  and  CB_12 
REMARK    6  A    between atoms: CA_11  and  C_19 
REMARK    7  A    between atoms: CB_12  and  CG_13 
REMARK       I    between atoms: C_19  and  N_23 
REMARK    8  A    between atoms: N_23  and  CA_24 
REMARK    9  A    between atoms: CA_24  and  CB_25 
REMARK   10  A    between atoms: CA_24  and  C_27 
REMARK   11  A    between atoms: CB_25  and  OG_26 
REMARK       I    between atoms: C_27  and  N_31 
REMARK   12  A    between atoms: N_31  and  CA_32 
REMARK   13  A    between atoms: CA_32  and  CB_33 
REMARK   14  A    between atoms: CA_32  and  C_40 
REMARK   15  A    between atoms: CB_33  and  CG_34 
REMARK   16  A    between atoms: C_40  and  OXT_42 
ROOT
ATOM      1  C   HIS A   1       9.344   4.104  -3.658  1.00  0.00     0.221 C 
ATOM      2  O   HIS A   1       8.612   4.513  -4.561  1.00  0.00    -0.278 OA
ATOM      3  N   SER A   2      10.572   4.694  -3.360  1.00  0.00    -0.246 NA
ATOM      4  H   SER A   2      11.184   3.932  -3.078  1.00  0.00     0.131 HD
ENDROOT
BRANCH   3   5
ATOM      5  CA  SER A   2      11.303   5.633  -4.267  1.00  0.00     0.178 C 
BRANCH   5   6
ATOM      6  CB  SER A   2      10.576   6.992  -4.433  1.00  0.00     0.193 C 
BRANCH   6   7
ATOM      7  OG  SER A   2       9.214   6.955  -4.866  1.00  0.00    -0.399 OA
ATOM      8  H   SER A   2       8.914   6.023  -4.935  1.00  0.00     0.209 HD
ENDBRANCH   6   7
ENDBRANCH   5   6
BRANCH   5   9
ATOM      9  C   SER A   2      12.908   5.925  -3.916  1.00  0.00     0.238 C 
ATOM     10  O   SER A   2      13.546   6.769  -4.549  1.00  0.00    -0.272 OA
ATOM     11  N   HIS A   3      13.563   5.118  -2.971  1.00  0.00    -0.345 N 
ATOM     12  H   HIS A   3      12.988   4.360  -2.621  1.00  0.00     0.163 HD
BRANCH  11  13
ATOM     13  CA  HIS A   3      15.061   4.991  -2.656  1.00  0.00     0.188 C 
BRANCH  13  14
ATOM     14  CB  HIS A   3      15.274   4.904  -1.096  1.00  0.00     0.094 C 
BRANCH  14  15
ATOM     15  CG  HIS A   3      15.022   3.557  -0.478  1.00  0.00     0.028 A 
ATOM     16  CD2 HIS A   3      14.694   2.376  -1.078  1.00  0.00     0.114 A 
ATOM     17  NE2 HIS A   3      14.492   1.345  -0.212  1.00  0.00    -0.360 N 
ATOM     18  CE1 HIS A   3      14.705   1.879   0.960  1.00  0.00     0.180 A 
ATOM     19  HE2 HIS A   3      14.235   0.382  -0.428  1.00  0.00     0.166 HD
ATOM     20  ND1 HIS A   3      15.104   3.191   0.848  1.00  0.00    -0.354 N 
ATOM     21  HD1 HIS A   3      15.373   3.763   1.632  1.00  0.00     0.166 HD
ENDBRANCH  14  15
ENDBRANCH  13  14
BRANCH  13  22
ATOM     22  C   HIS A   3      16.080   3.908  -3.298  1.00  0.00     0.163 C 
ATOM     23  O   HIS A   3      15.879   2.796  -3.757  1.00  0.00    -0.648 OA
BRANCH  22  24
ATOM     24  OXT HIS A   3      17.373   4.278  -3.244  1.00  0.00    -0.775 OA
ATOM     25  HXT HIS A   3      17.564   5.176  -2.867  1.00  0.00     0.167 HD
ENDBRANCH  22  24
ENDBRANCH  13  22
ENDBRANCH  11  13
ENDBRANCH   5   9
ENDBRANCH   3   5
BRANCH   1  26
ATOM     26  CA  HIS A   1       8.861   2.991  -2.668  1.00  0.00     0.176 C 
BRANCH  26  27
ATOM     27  N   HIS A   1       9.988   2.372  -1.972  1.00  0.00    -0.348 N 
HETATM   28  C   UNK A   0      10.724   1.404  -2.636  1.00  0.00     0.219 C 
HETATM   29  O   UNK A   0      10.377   0.932  -3.714  1.00  0.00    -0.274 OA
ATOM     30  H   HIS A   1      10.262   2.698  -1.053  1.00  0.00     0.163 HD
BRANCH  28  31
HETATM   31  C   UNK A   0      12.031   1.060  -1.974  1.00  0.00     0.122 C 
BRANCH  31  32
HETATM   32  C   UNK A   0      13.073   0.490  -2.966  1.00  0.00     0.132 C 
BRANCH  32  33
HETATM   33  N   UNK A   0      13.633   1.317  -4.083  1.00  0.00    -0.361 N 
HETATM   34  C   UNK A   0      13.200   2.565  -4.409  1.00  0.00     0.213 C 
HETATM   35  C   UNK A   0      13.831   3.346  -5.558  1.00  0.00     0.117 C 
HETATM   36  O   UNK A   0      12.378   3.110  -3.679  1.00  0.00    -0.274 OA
HETATM   37  H   UNK A   0      14.629   1.195  -4.264  1.00  0.00     0.162 HD
ENDBRANCH  32  33
ENDBRANCH  31  32
ENDBRANCH  28  31
ENDBRANCH  26  27
BRANCH  26  38
ATOM     38  CB  HIS A   1       7.821   3.609  -1.721  1.00  0.00     0.092 C 
BRANCH  38  39
ATOM     39  CG  HIS A   1       7.258   2.682  -0.688  1.00  0.00     0.028 A 
ATOM     40  CD2 HIS A   1       7.104   1.312  -0.622  1.00  0.00     0.114 A 
ATOM     41  NE2 HIS A   1       6.479   0.943   0.542  1.00  0.00    -0.360 N 
ATOM     42  CE1 HIS A   1       6.220   2.065   1.170  1.00  0.00     0.180 A 
ATOM     43  HE2 HIS A   1       6.262  -0.004   0.853  1.00  0.00     0.166 HD
ATOM     44  ND1 HIS A   1       6.689   3.143   0.476  1.00  0.00    -0.354 N 
ATOM     45  HD1 HIS A   1       6.605   4.108   0.764  1.00  0.00     0.166 HD
ENDBRANCH  38  39
ENDBRANCH  26  38
ENDBRANCH   1  26
TORSDOF 16
