REMARK WARNING: 32 MAX_TORS EXCEEDED!!!
REMARK  35 active torsions:
REMARK  status: ('A' for Active; 'I' for Inactive)
REMARK       I    between atoms: C_2  and  N_4 
REMARK    1  A    between atoms: N_4  and  C_5 
REMARK    2  A    between atoms: C_5  and  C_6 
REMARK    3  A    between atoms: C_5  and  C_11 
REMARK    4  A    between atoms: C_6  and  C_7 
REMARK    5  A    between atoms: C_7  and  C_8 
REMARK    6  A    between atoms: C_8  and  O_10 
REMARK    7  A    between atoms: C_11  and  N_13 
REMARK    8  A    between atoms: N_13  and  C_14 
REMARK    9  A    between atoms: C_14  and  C_15 
REMARK   10  A    between atoms: C_14  and  C_20 
REMARK   11  A    between atoms: C_15  and  C_16 
REMARK   12  A    between atoms: C_16  and  C_17 
REMARK   13  A    between atoms: C_17  and  O_19 
REMARK       I    between atoms: C_20  and  N_22 
REMARK   14  A    between atoms: N_22  and  C_23 
REMARK   15  A    between atoms: C_23  and  C_24 
REMARK   16  A    between atoms: C_23  and  C_28 
REMARK   17  A    between atoms: C_24  and  C_25 
REMARK   18  A    between atoms: C_25  and  S_26 
REMARK       I    between atoms: C_28  and  N_30 
REMARK   19  A    between atoms: N_30  and  C_31 
REMARK   20  A    between atoms: C_31  and  C_32 
REMARK   21  A    between atoms: C_31  and  C_37 
REMARK   22  A    between atoms: C_32  and  C_33 
REMARK   23  A    between atoms: C_33  and  C_34 
REMARK       I    between atoms: C_34  and  N_36 
REMARK       I    between atoms: C_37  and  N_39 
REMARK   24  A    between atoms: N_39  and  C_40 
REMARK   25  A    between atoms: C_40  and  C_41 
REMARK   26  A    between atoms: C_40  and  C_49 
REMARK   27  A    between atoms: C_41  and  C_42 
REMARK   28  A    between atoms: C_42  and  C_43 
REMARK   29  A    between atoms: C_43  and  N_44 
REMARK       I    between atoms: N_44  and  C_46 
REMARK       I    between atoms: C_46  and  N_47 
REMARK       I    between atoms: C_46  and  N_48 
REMARK       I    between atoms: C_49  and  N_51 
REMARK   30  A    between atoms: N_51  and  C_52 
REMARK   31  A    between atoms: C_52  and  C_53 
REMARK   32  A    between atoms: C_52  and  C_61 
REMARK   33  A    between atoms: C_53  and  C_54 
REMARK   34  A    between atoms: C_54  and  C_55 
REMARK   35  A    between atoms: C_55  and  N_56 
REMARK       I    between atoms: N_56  and  C_58 
REMARK       I    between atoms: C_58  and  N_60 
REMARK       I    between atoms: C_61  and  N_63 
ROOT
HETATM    1  C   UNL     1      13.225  -5.900  -6.543  1.00  0.00     0.177 C 
ENDROOT
BRANCH   1   2
HETATM    2  N   UNL     1      12.616  -4.972  -5.535  1.00  0.00    -0.346 N 
HETATM    3  C   UNL     1      11.256  -4.815  -5.274  1.00  0.00     0.241 C 
HETATM    4  O   UNL     1      10.368  -5.429  -5.870  1.00  0.00    -0.271 OA
HETATM    5  H   UNL     1      13.298  -4.491  -4.944  1.00  0.00     0.163 HD
BRANCH   3   6
HETATM    6  C   UNL     1      10.880  -3.840  -4.083  1.00  0.00     0.177 C 
BRANCH   6   7
HETATM    7  N   UNL     1       9.504  -3.295  -4.273  1.00  0.00    -0.346 N 
HETATM    8  C   UNL     1       9.054  -2.036  -3.939  1.00  0.00     0.241 C 
HETATM    9  O   UNL     1       9.743  -1.236  -3.311  1.00  0.00    -0.271 OA
HETATM   10  H   UNL     1       8.856  -3.977  -4.642  1.00  0.00     0.163 HD
BRANCH   8  11
HETATM   11  C   UNL     1       7.583  -1.706  -4.387  1.00  0.00     0.174 C 
BRANCH  11  12
HETATM   12  N   UNL     1       7.223  -0.389  -3.816  1.00  0.00    -0.379 N 
HETATM   13  H   UNL     1       7.990  -0.001  -3.254  1.00  0.00     0.160 HD
BRANCH  12  14
HETATM   14  C   UNL     1       6.035   0.351  -3.916  1.00  0.00     0.019 C 
HETATM   15  C   UNL     1       4.849  -0.263  -4.064  1.00  0.00     0.040 C 
BRANCH  14  16
HETATM   16  C   UNL     1       6.124   1.901  -3.796  1.00  0.00     0.133 C 
BRANCH  16  17
HETATM   17  N   UNL     1       4.784   2.527  -3.835  1.00  0.00    -0.351 N 
HETATM   18  C   UNL     1       4.513   3.769  -4.346  1.00  0.00     0.214 C 
HETATM   19  C   UNL     1       3.040   4.148  -4.258  1.00  0.00     0.117 C 
HETATM   20  O   UNL     1       5.363   4.499  -4.852  1.00  0.00    -0.274 OA
HETATM   21  H   UNL     1       4.048   2.083  -3.306  1.00  0.00     0.163 HD
ENDBRANCH  16  17
BRANCH  16  22
HETATM   22  C   UNL     1       6.842   2.318  -2.505  1.00  0.00     0.042 C 
BRANCH  22  23
HETATM   23  C   UNL     1       6.118   1.828  -1.249  1.00  0.00     0.112 C 
BRANCH  23  24
HETATM   24  C   UNL     1       6.883   2.192  -0.016  1.00  0.00     0.139 C 
HETATM   25  O   UNL     1       7.290   1.382   0.798  1.00  0.00    -0.650 OA
BRANCH  24  26
HETATM   26  O   UNL     1       6.996   3.528   0.148  1.00  0.00    -0.776 OA
HETATM   27  H   UNL     1       6.587   4.069  -0.552  1.00  0.00     0.167 HD
ENDBRANCH  24  26
ENDBRANCH  23  24
ENDBRANCH  22  23
ENDBRANCH  16  22
ENDBRANCH  14  16
ENDBRANCH  12  14
ENDBRANCH  11  12
BRANCH  11  28
HETATM   28  C   UNL     1       7.460  -1.706  -5.947  1.00  0.00     0.045 C 
BRANCH  28  29
HETATM   29  C   UNL     1       7.757  -3.067  -6.604  1.00  0.00     0.112 C 
BRANCH  29  30
HETATM   30  C   UNL     1       7.633  -3.203  -8.108  1.00  0.00     0.139 C 
HETATM   31  O   UNL     1       7.335  -2.313  -8.886  1.00  0.00    -0.650 OA
BRANCH  30  32
HETATM   32  O   UNL     1       7.954  -4.460  -8.510  1.00  0.00    -0.776 OA
HETATM   33  H   UNL     1       8.310  -5.008  -7.779  1.00  0.00     0.167 HD
ENDBRANCH  30  32
ENDBRANCH  29  30
ENDBRANCH  28  29
ENDBRANCH  11  28
ENDBRANCH   8  11
ENDBRANCH   6   7
BRANCH   6  34
HETATM   34  C   UNL     1      10.900  -4.637  -2.769  1.00  0.00     0.045 C 
BRANCH  34  35
HETATM   35  C   UNL     1      12.264  -5.235  -2.398  1.00  0.00     0.076 C 
BRANCH  35  36
HETATM   36  S   UNL     1      13.576  -3.989  -2.177  1.00  0.00    -0.173 SA
HETATM   37  C   UNL     1      12.817  -3.031  -0.846  1.00  0.00     0.089 C 
ENDBRANCH  35  36
ENDBRANCH  34  35
ENDBRANCH   6  34
ENDBRANCH   3   6
ENDBRANCH   1   2
BRANCH   1  38
HETATM   38  C   UNL     1      12.694  -5.620  -7.954  1.00  0.00     0.044 C 
BRANCH  38  39
HETATM   39  C   UNL     1      13.070  -4.208  -8.396  1.00  0.00     0.105 C 
BRANCH  39  40
HETATM   40  C   UNL     1      12.608  -3.883  -9.786  1.00  0.00     0.215 C 
HETATM   41  O   UNL     1      12.006  -4.650 -10.525  1.00  0.00    -0.274 OA
HETATM   42  N   UNL     1      12.952  -2.619 -10.165  1.00  0.00    -0.370 N 
HETATM   43  H   UNL     1      13.435  -1.974  -9.556  1.00  0.00     0.159 HD
HETATM   44  H   UNL     1      12.702  -2.317 -11.100  1.00  0.00     0.159 HD
ENDBRANCH  39  40
ENDBRANCH  38  39
ENDBRANCH   1  38
BRANCH   1  45
HETATM   45  C   UNL     1      14.806  -5.793  -6.562  1.00  0.00     0.241 C 
HETATM   46  O   UNL     1      15.400  -5.036  -5.793  1.00  0.00    -0.271 OA
HETATM   47  N   UNL     1      15.472  -6.556  -7.508  1.00  0.00    -0.346 N 
HETATM   48  H   UNL     1      14.946  -7.141  -8.151  1.00  0.00     0.163 HD
BRANCH  47  49
HETATM   49  C   UNL     1      16.935  -6.523  -7.767  1.00  0.00     0.176 C 
BRANCH  49  50
HETATM   50  C   UNL     1      17.686  -7.488  -6.842  1.00  0.00     0.036 C 
BRANCH  50  51
HETATM   51  C   UNL     1      17.285  -8.937  -7.121  1.00  0.00     0.022 C 
BRANCH  51  52
HETATM   52  C   UNL     1      18.069  -9.910  -6.266  1.00  0.00     0.122 C 
BRANCH  52  53
HETATM   53  N   UNL     1      17.577 -11.235  -6.617  1.00  0.00    -0.367 N 
HETATM   54  C   UNL     1      18.089 -12.237  -6.014  1.00  0.00     0.143 C 
HETATM   55  N   UNL     1      19.055 -12.266  -5.085  1.00  0.00    -0.376 N 
HETATM   56  N   UNL     1      17.605 -13.469  -6.271  1.00  0.00    -0.274 NA
HETATM   57  H   UNL     1      19.612 -11.427  -4.972  1.00  0.00     0.158 HD
HETATM   58  H   UNL     1      19.618 -13.111  -4.999  1.00  0.00     0.158 HD
HETATM   59  H   UNL     1      16.990 -13.471  -7.079  1.00  0.00     0.127 HD
HETATM   60  H   UNL     1      18.252 -14.247  -6.272  1.00  0.00     0.127 HD
ATOM     61  HN  UNL     1      16.849 -11.358  -7.320  1.00  0.00     0.162 HD
ENDBRANCH  52  53
ENDBRANCH  51  52
ENDBRANCH  50  51
ENDBRANCH  49  50
BRANCH  49  62
HETATM   62  C   UNL     1      17.254  -6.929  -9.241  1.00  0.00     0.241 C 
HETATM   63  O   UNL     1      16.348  -7.240 -10.026  1.00  0.00    -0.271 OA
HETATM   64  N   UNL     1      18.596  -6.985  -9.583  1.00  0.00    -0.346 N 
HETATM   65  H   UNL     1      19.316  -6.772  -8.899  1.00  0.00     0.163 HD
BRANCH  64  66
HETATM   66  C   UNL     1      19.086  -7.486 -10.876  1.00  0.00     0.176 C 
BRANCH  66  67
HETATM   67  C   UNL     1      18.592  -6.602 -12.034  1.00  0.00     0.036 C 
BRANCH  67  68
HETATM   68  C   UNL     1      18.964  -5.117 -11.898  1.00  0.00     0.022 C 
BRANCH  68  69
HETATM   69  C   UNL     1      20.462  -4.846 -11.929  1.00  0.00     0.122 C 
BRANCH  69  70
HETATM   70  N   UNL     1      20.693  -3.416 -11.842  1.00  0.00    -0.367 N 
HETATM   71  C   UNL     1      21.919  -3.044 -11.761  1.00  0.00     0.143 C 
HETATM   72  N   UNL     1      23.046  -3.790 -11.774  1.00  0.00    -0.376 N 
HETATM   73  N   UNL     1      22.171  -1.728 -11.667  1.00  0.00    -0.274 NA
HETATM   74  H   UNL     1      22.948  -4.776 -11.580  1.00  0.00     0.158 HD
HETATM   75  H   UNL     1      23.878  -3.384 -11.373  1.00  0.00     0.158 HD
HETATM   76  H   UNL     1      21.306  -1.236 -11.465  1.00  0.00     0.127 HD
HETATM   77  H   UNL     1      22.910  -1.460 -11.036  1.00  0.00     0.127 HD
ATOM     78  HN  UNL     1      19.925  -2.745 -11.845  1.00  0.00     0.162 HD
ENDBRANCH  69  70
ENDBRANCH  68  69
ENDBRANCH  67  68
ENDBRANCH  66  67
BRANCH  66  79
HETATM   79  C   UNL     1      20.636  -7.603 -10.855  1.00  0.00     0.238 C 
HETATM   80  O   UNL     1      21.318  -7.319  -9.868  1.00  0.00    -0.271 OA
HETATM   81  N   UNL     1      21.250  -7.972 -12.021  1.00  0.00    -0.368 N 
HETATM   82  H   UNL     1      20.749  -8.190 -12.874  1.00  0.00     0.159 HD
HETATM   83  H   UNL     1      22.259  -7.909 -12.076  1.00  0.00     0.159 HD
ENDBRANCH  66  79
ENDBRANCH  64  66
ENDBRANCH  49  62
ENDBRANCH  47  49
ENDBRANCH   1  45
TORSDOF 35
