REMARK  15 active torsions:
REMARK  status: ('A' for Active; 'I' for Inactive)
REMARK    1  A    between atoms: CA_2  and  C_3 
REMARK    2  A    between atoms: CA_2  and  N_6 
REMARK    3  A    between atoms: C_3  and  OXT_5 
REMARK       I    between atoms: N_6  and  C_9 
REMARK    4  A    between atoms: C_9  and  C_11 
REMARK    5  A    between atoms: C_11  and  C_12 
REMARK    6  A    between atoms: C_12  and  C_13 
REMARK    7  A    between atoms: C_13  and  C_14 
REMARK    8  A    between atoms: C_14  and  C_15 
REMARK    9  A    between atoms: C_15  and  N_16 
REMARK       I    between atoms: N_16  and  C_17 
REMARK   10  A    between atoms: C_17  and  C_19 
REMARK   11  A    between atoms: C_19  and  C_20 
REMARK   12  A    between atoms: C_19  and  N_28 
REMARK   13  A    between atoms: C_20  and  C_21 
REMARK   14  A    between atoms: C_21  and  C_22 
REMARK   15  A    between atoms: C_22  and  N_23 
REMARK       I    between atoms: C_25  and  N_26 
REMARK       I    between atoms: C_25  and  N_27 
REMARK       I    between atoms: N_28  and  C_29 
ROOT
HETATM    1  N   UNK A   0      10.427  -5.825   1.750  1.00  0.00    -0.359 N 
HETATM    2  C   UNK A   0      11.114  -6.873   2.331  1.00  0.00     0.240 C 
HETATM    3  O   UNK A   0      10.538  -7.815   2.873  1.00  0.00    -0.271 OA
HETATM    4  H   UNK A   0      10.952  -5.091   1.289  1.00  0.00     0.162 HD
ENDROOT
BRANCH   2   5
HETATM    5  C   UNK A   0      12.649  -6.832   2.133  1.00  0.00     0.176 C 
BRANCH   5   6
HETATM    6  C   UNK A   0      13.345  -7.564   3.298  1.00  0.00     0.036 C 
BRANCH   6   7
HETATM    7  C   UNK A   0      14.873  -7.546   3.213  1.00  0.00     0.022 C 
BRANCH   7   8
HETATM    8  C   UNK A   0      15.524  -8.272   4.386  1.00  0.00     0.121 C 
BRANCH   8   9
HETATM    9  N   UNK A   0      16.967  -8.289   4.158  1.00  0.00    -0.372 N 
HETATM   10  C   UNK A   0      17.713  -8.828   5.044  1.00  0.00     0.121 C 
HETATM   11  N   UNK A   0      17.361  -9.378   6.223  1.00  0.00    -0.279 NA
HETATM   12  N   UNK A   0      19.046  -8.906   4.848  1.00  0.00    -0.279 NA
HETATM   13  H   UNK A   0      16.381  -9.624   6.296  1.00  0.00     0.126 HD
HETATM   14  H   UNK A   0      17.963 -10.139   6.528  1.00  0.00     0.126 HD
HETATM   15  H   UNK A   0      19.355  -8.233   4.148  1.00  0.00     0.126 HD
HETATM   16  H   UNK A   0      19.619  -8.900   5.674  1.00  0.00     0.126 HD
ATOM     17  HN  UNK A   0      17.368  -7.881   3.314  1.00  0.00     0.161 HD
ENDBRANCH   8   9
ENDBRANCH   7   8
ENDBRANCH   6   7
ENDBRANCH   5   6
BRANCH   5  18
HETATM   18  N   UNK A   0      12.946  -7.451   0.839  1.00  0.00    -0.348 N 
HETATM   19  C   UNK A   0      14.060  -7.105   0.110  1.00  0.00     0.214 C 
HETATM   20  O   UNK A   0      14.810  -6.185   0.419  1.00  0.00    -0.274 OA
HETATM   21  C   UNK A   0      14.310  -7.947  -1.112  1.00  0.00     0.117 C 
HETATM   22  H   UNK A   0      12.406  -8.266   0.577  1.00  0.00     0.163 HD
ENDBRANCH   5  18
ENDBRANCH   2   5
BRANCH   1  23
HETATM   23  C   UNK A   0       8.991  -5.674   1.883  1.00  0.00     0.122 C 
BRANCH  23  24
HETATM   24  C   UNK A   0       8.219  -6.310   0.724  1.00  0.00     0.020 C 
BRANCH  24  25
HETATM   25  C   UNK A   0       6.693  -6.155   0.857  1.00  0.00     0.002 C 
BRANCH  25  26
HETATM   26  C   UNK A   0       6.250  -4.690   0.876  1.00  0.00     0.009 C 
BRANCH  26  27
HETATM   27  C   UNK A   0       4.736  -4.507   1.010  1.00  0.00     0.103 C 
BRANCH  27  28
HETATM   28  C   UNK A   0       4.380  -3.031   1.068  1.00  0.00     0.218 C 
ATOM     29  N   ALA A   1       3.038  -2.754   1.170  1.00  0.00    -0.347 N 
ATOM     30  H   ALA A   1       2.398  -3.501   1.417  1.00  0.00     0.163 HD
HETATM   31  O   UNK A   0       5.206  -2.120   1.083  1.00  0.00    -0.274 OA
BRANCH  29  32
ATOM     32  CA  ALA A   1       2.548  -1.380   1.185  1.00  0.00     0.178 C 
ATOM     33  CB  ALA A   1       1.148  -1.301   0.594  1.00  0.00     0.043 C 
BRANCH  32  34
ATOM     34  C   ALA A   1       2.576  -0.839   2.614  1.00  0.00     0.163 C 
ATOM     35  O   ALA A   1       1.597  -0.415   3.200  1.00  0.00    -0.648 OA
BRANCH  34  36
ATOM     36  OXT ALA A   1       3.806  -0.853   3.182  1.00  0.00    -0.775 OA
ATOM     37  HXT ALA A   1       4.501  -1.175   2.565  1.00  0.00     0.167 HD
ENDBRANCH  34  36
ENDBRANCH  32  34
ENDBRANCH  29  32
ENDBRANCH  27  28
ENDBRANCH  26  27
ENDBRANCH  25  26
ENDBRANCH  24  25
ENDBRANCH  23  24
ENDBRANCH   1  23
TORSDOF 15
