REMARK  3 active torsions:
REMARK  status: ('A' for Active; 'I' for Inactive)
REMARK       I    between atoms: C_2  and  N_4 
REMARK    1  A    between atoms: N_4  and  C_5 
REMARK    2  A    between atoms: C_5  and  C_6 
REMARK    3  A    between atoms: C_6  and  O_7 
ROOT
HETATM    1  C   UNL     1       1.026   0.052  -0.121  1.00  0.00     0.117 C 
HETATM    2  C   UNL     1       2.525   0.112  -0.007  1.00  0.00     0.213 C 
HETATM    3  O   UNL     1       3.108   0.985   0.623  1.00  0.00    -0.274 OA
HETATM    4  N   UNL     1       3.165  -0.905  -0.676  1.00  0.00    -0.359 N 
HETATM    5  H   UNL     1       2.624  -1.614  -1.154  1.00  0.00     0.162 HD
ENDROOT
BRANCH   4   6
HETATM    6  C   UNL     1       4.617  -1.000  -0.712  1.00  0.00     0.148 C 
BRANCH   6   7
HETATM    7  C   UNL     1       5.169  -1.791   0.471  1.00  0.00     0.183 C 
BRANCH   7   8
HETATM    8  O   UNL     1       4.680  -3.133   0.431  1.00  0.00    -0.399 OA
HETATM    9  H   UNL     1       3.721  -3.072   0.581  1.00  0.00     0.209 HD
ENDBRANCH   7   8
ENDBRANCH   6   7
ENDBRANCH   4   6
TORSDOF 3
