REMARK  5 active torsions:
REMARK  status: ('A' for Active; 'I' for Inactive)
REMARK       I    between atoms: C_2  and  N_4 
REMARK    1  A    between atoms: N_4  and  CA_5 
REMARK    2  A    between atoms: CA_5  and  CB_6 
REMARK    3  A    between atoms: CA_5  and  C_8 
REMARK    4  A    between atoms: CB_6  and  SG_7 
REMARK    5  A    between atoms: C_8  and  OXT_10 
ROOT
ATOM      1  CA  CYS A   1       4.625  -0.710  -0.846  1.00  0.00     0.191 C 
ENDROOT
BRANCH   1   2
ATOM      2  N   CYS A   1       3.160  -0.711  -0.789  1.00  0.00    -0.346 N 
HETATM    3  C   UNK A   0       2.439   0.249  -0.127  1.00  0.00     0.214 C 
HETATM    4  C   UNK A   0       0.950   0.052  -0.192  1.00  0.00     0.117 C 
HETATM    5  O   UNK A   0       2.962   1.197   0.449  1.00  0.00    -0.274 OA
ATOM      6  H   CYS A   1       2.675  -1.349  -1.418  1.00  0.00     0.163 HD
ENDBRANCH   1   2
BRANCH   1   7
ATOM      7  CB  CYS A   1       5.277  -1.469   0.320  1.00  0.00     0.106 C 
BRANCH   7   8
ATOM      8  SG  CYS A   1       4.901  -0.845   1.996  1.00  0.00    -0.180 SA
ATOM      9  HG  CYS A   1       4.450   0.371   1.629  1.00  0.00     0.101 HD
ENDBRANCH   7   8
ENDBRANCH   1   7
BRANCH   1  10
ATOM     10  C   CYS A   1       5.021  -1.398  -2.157  1.00  0.00     0.164 C 
ATOM     11  O   CYS A   1       4.347  -2.284  -2.683  1.00  0.00    -0.648 OA
BRANCH  10  12
ATOM     12  OXT CYS A   1       6.174  -0.965  -2.708  1.00  0.00    -0.775 OA
ATOM     13  HXT CYS A   1       6.623  -0.230  -2.247  1.00  0.00     0.167 HD
ENDBRANCH  10  12
ENDBRANCH   1  10
TORSDOF 5
