REMARK  4 active torsions:
REMARK  status: ('A' for Active; 'I' for Inactive)
REMARK    1  A    between atoms: C_9  and  O_25 
REMARK    2  A    between atoms: C_10  and  N_11 
REMARK    3  A    between atoms: N_13  and  C_15 
REMARK    4  A    between atoms: C_18  and  S_21 
ROOT
HETATM    1 NA   UNL     2       1.114  -0.755   2.589  1.00  0.00     0.000 Na
ENDROOT
TORSDOF 4
