REMARK  4 active torsions:
REMARK  status: ('A' for Active; 'I' for Inactive)
REMARK    1  A    between atoms: C_9  and  C_12 
REMARK    2  A    between atoms: C_10  and  O_11 
REMARK    3  A    between atoms: C_16  and  S_27 
REMARK    4  A    between atoms: C_18  and  S_23 
ROOT
HETATM    1 NA   UNL     3       0.595   1.662   3.205  1.00  0.00     0.000 Na
ENDROOT
TORSDOF 4
