REMARK  1 active torsions:
REMARK  status: ('A' for Active; 'I' for Inactive)
REMARK    1  A    between atoms: C_2  and  O_3 
ROOT
HETATM    1  C   UNL     1       1.061  -0.077   0.026  1.00  0.00     0.033 C 
HETATM    2  C   UNL     1       2.575  -0.079   0.033  1.00  0.00     0.159 C 
ENDROOT
BRANCH   2   3
HETATM    3  O   UNL     1       3.057  -1.082   0.915  1.00  0.00    -0.401 OA
HETATM    4  H   UNL     1       2.718  -0.879   1.804  1.00  0.00     0.209 HD
ENDBRANCH   2   3
TORSDOF 1
