REMARK  1 active torsions:
REMARK  status: ('A' for Active; 'I' for Inactive)
REMARK    1  A    between atoms: C_2  and  O_3 
ROOT
HETATM    1  C   UNL     1       0.950  -0.026   0.076  1.00  0.00     0.033 C 
HETATM    2  C   UNL     1       2.464  -0.019   0.078  1.00  0.00     0.159 C 
ENDROOT
BRANCH   2   3
HETATM    3  O   UNL     1       2.946   0.797   1.136  1.00  0.00    -0.401 OA
HETATM    4  H   UNL     1       2.607   1.696   0.991  1.00  0.00     0.209 HD
ENDBRANCH   2   3
TORSDOF 1
