REMARK  1 active torsions:
REMARK  status: ('A' for Active; 'I' for Inactive)
REMARK    1  A    between atoms: C_1  and  N_8 
REMARK       I    between atoms: N_8  and  C_9 
REMARK       I    between atoms: C_9  and  N_11 
ROOT
HETATM    1  C   UNL     1      -0.626  -1.416   0.100  1.00  0.00     0.284 A 
HETATM    2  C   UNL     1      -1.138   0.037   0.122  1.00  0.00     0.268 A 
HETATM    3  O   UNL     1      -2.294   0.391   0.312  1.00  0.00    -0.269 OA
HETATM    4  N   UNL     1      -0.072   0.869  -0.037  1.00  0.00    -0.276 N 
HETATM    5  C   UNL     1       1.081   0.158  -0.041  1.00  0.00     0.324 A 
HETATM    6  O   UNL     1       2.205   0.624  -0.075  1.00  0.00    -0.247 OA
HETATM    7  N   UNL     1       0.776  -1.175   0.020  1.00  0.00    -0.313 N 
HETATM    8  H   UNL     1      -0.109   1.872  -0.006  1.00  0.00     0.173 HD
HETATM    9  H   UNL     1       1.474  -1.907   0.039  1.00  0.00     0.166 HD
ENDROOT
BRANCH   1  10
HETATM   10  N   UNL     1      -1.002  -2.117   1.292  1.00  0.00    -0.314 N 
HETATM   11  C   UNL     1      -0.669  -3.429   1.418  1.00  0.00     0.315 C 
HETATM   12  O   UNL     1       0.032  -4.058   0.642  1.00  0.00    -0.248 OA
HETATM   13  N   UNL     1      -1.186  -3.988   2.539  1.00  0.00    -0.352 N 
HETATM   14  H   UNL     1      -1.262  -3.396   3.353  1.00  0.00     0.160 HD
HETATM   15  H   UNL     1      -0.825  -4.916   2.726  1.00  0.00     0.160 HD
HETATM   16  H   UNL     1      -1.909  -1.879   1.670  1.00  0.00     0.166 HD
ENDBRANCH   1  10
TORSDOF 1
