REMARK  0 active torsions:
REMARK  status: ('A' for Active; 'I' for Inactive)
ROOT
HETATM    1  C   UNL     1       0.469  -1.353   1.080  1.00  0.00     0.129 C 
HETATM    2  C   UNL     1       1.854  -0.915   0.689  1.00  0.00     0.168 C 
HETATM    3  O   UNL     1       2.443  -1.590  -0.183  1.00  0.00    -0.648 OA
HETATM    4  O   UNL     1       2.164   0.270   1.037  1.00  0.00    -0.648 OA
ENDROOT
TORSDOF 0
