REMARK  0 active torsions:
REMARK  status: ('A' for Active; 'I' for Inactive)
ROOT
HETATM    1  C   UNL     1       1.071  -0.119  -0.445  1.00  0.00     0.347 C 
HETATM    2  O   UNL     1       0.575   0.018  -1.545  1.00  0.00    -0.616 OA
HETATM    3  O   UNL     1       0.423  -0.091   0.603  1.00  0.00    -0.616 OA
HETATM    4  O   UNL     1       2.254  -0.058  -0.146  1.00  0.00    -0.616 OA
ENDROOT
TORSDOF 0
