REMARK  4 active torsions:
REMARK  status: ('A' for Active; 'I' for Inactive)
REMARK    1  A    between atoms: C_2  and  O_9 
REMARK    2  A    between atoms: C_3  and  O_8 
REMARK    3  A    between atoms: C_4  and  C_6 
REMARK    4  A    between atoms: C_6  and  O_7 
ROOT
HETATM    1  C   UNL     1      -0.858  -0.942  -0.110  1.00  0.00     0.202 C 
HETATM    2  C   UNL     1       0.645  -1.160  -0.028  1.00  0.00     0.173 C 
HETATM    3  C   UNL     1       1.251   0.241  -0.065  1.00  0.00     0.180 C 
HETATM    4  C   UNL     1       0.050   1.173  -0.277  1.00  0.00     0.176 C 
HETATM    5  O   UNL     1      -1.105   0.445   0.166  1.00  0.00    -0.378 OA
ENDROOT
BRANCH   4   6
HETATM    6  C   UNL     1      -0.138   1.653  -1.713  1.00  0.00     0.198 C 
BRANCH   6   7
HETATM    7  O   UNL     1       1.001   2.408  -2.131  1.00  0.00    -0.398 OA
HETATM    8  H   UNL     1       0.860   3.325  -1.830  1.00  0.00     0.209 HD
ENDBRANCH   6   7
ENDBRANCH   4   6
BRANCH   3   9
HETATM    9  O   UNL     1       2.293   0.304  -1.040  1.00  0.00    -0.390 OA
HETATM   10  H   UNL     1       2.192   1.146  -1.538  1.00  0.00     0.210 HD
ENDBRANCH   3   9
BRANCH   2  11
HETATM   11  O   UNL     1       1.098  -1.961  -1.119  1.00  0.00    -0.391 OA
HETATM   12  H   UNL     1       1.872  -1.477  -1.481  1.00  0.00     0.210 HD
ENDBRANCH   2  11
TORSDOF 4
