REMARK  12 active torsions:
REMARK  status: ('A' for Active; 'I' for Inactive)
REMARK    1  A    between atoms: C_2  and  C_19 
REMARK    2  A    between atoms: C_3  and  C_4 
REMARK    3  A    between atoms: C_5  and  C_6 
REMARK    4  A    between atoms: C_7  and  C_9 
REMARK    5  A    between atoms: C_10  and  C_11 
REMARK    6  A    between atoms: C_12  and  C_14 
REMARK    7  A    between atoms: C_15  and  C_16 
REMARK    8  A    between atoms: C_16  and  O_18 
REMARK    9  A    between atoms: C_20  and  C_21 
REMARK   10  A    between atoms: C_22  and  C_24 
REMARK   11  A    between atoms: C_25  and  C_26 
REMARK   12  A    between atoms: C_26  and  O_28 
ROOT
HETATM    1  C   UNL     1       2.478  -2.314   1.033  1.00  0.00     0.001 C 
HETATM    2  C   UNL     1       3.158  -3.381   1.482  1.00  0.00     0.001 C 
ENDROOT
BRANCH   1   3
HETATM    3  C   UNL     1       3.130  -1.111   0.532  1.00  0.00     0.007 C 
HETATM    4  C   UNL     1       2.524   0.003   0.066  1.00  0.00    -0.062 C 
HETATM    5  C   UNL     1       1.019   0.162  -0.001  1.00  0.00     0.048 C 
BRANCH   4   6
HETATM    6  C   UNL     1       3.330   1.146  -0.412  1.00  0.00     0.007 C 
HETATM    7  C   UNL     1       2.801   2.288  -0.890  1.00  0.00     0.001 C 
BRANCH   7   8
HETATM    8  C   UNL     1       3.506   3.460  -1.381  1.00  0.00     0.007 C 
HETATM    9  C   UNL     1       2.915   4.587  -1.852  1.00  0.00    -0.062 C 
HETATM   10  C   UNL     1       1.417   4.792  -1.938  1.00  0.00     0.048 C 
BRANCH   9  11
HETATM   11  C   UNL     1       3.735   5.717  -2.325  1.00  0.00     0.013 C 
HETATM   12  C   UNL     1       3.242   6.873  -2.808  1.00  0.00     0.082 C 
BRANCH  12  13
HETATM   13  C   UNL     1       4.149   7.945  -3.257  1.00  0.00     0.165 C 
HETATM   14  O   UNL     1       5.365   7.862  -3.221  1.00  0.00    -0.647 OA
BRANCH  13  15
HETATM   15  O   UNL     1       3.493   9.035  -3.713  1.00  0.00    -0.773 OA
HETATM   16  H   UNL     1       2.521   8.973  -3.689  1.00  0.00     0.167 HD
ENDBRANCH  13  15
ENDBRANCH  12  13
ENDBRANCH   9  11
ENDBRANCH   7   8
ENDBRANCH   4   6
ENDBRANCH   1   3
BRANCH   2  17
HETATM   17  C   UNL     1       2.536  -4.598   1.989  1.00  0.00     0.007 C 
HETATM   18  C   UNL     1       3.186  -5.691   2.450  1.00  0.00    -0.062 C 
HETATM   19  C   UNL     1       4.697  -5.796   2.501  1.00  0.00     0.048 C 
BRANCH  18  20
HETATM   20  C   UNL     1       2.429  -6.865   2.938  1.00  0.00     0.007 C 
HETATM   21  C   UNL     1       3.015  -7.980   3.410  1.00  0.00     0.001 C 
BRANCH  21  22
HETATM   22  C   UNL     1       2.377  -9.183   3.911  1.00  0.00     0.007 C 
HETATM   23  C   UNL     1       3.039 -10.273   4.372  1.00  0.00    -0.062 C 
HETATM   24  C   UNL     1       4.549 -10.396   4.431  1.00  0.00     0.048 C 
BRANCH  23  25
HETATM   25  C   UNL     1       2.286 -11.439   4.857  1.00  0.00     0.013 C 
HETATM   26  C   UNL     1       2.833 -12.572   5.335  1.00  0.00     0.082 C 
BRANCH  26  27
HETATM   27  C   UNL     1       1.987 -13.688   5.798  1.00  0.00     0.165 C 
HETATM   28  O   UNL     1       0.769 -13.686   5.788  1.00  0.00    -0.647 OA
BRANCH  27  29
HETATM   29  O   UNL     1       2.721 -14.729   6.242  1.00  0.00    -0.773 OA
HETATM   30  H   UNL     1       3.686 -14.618   6.204  1.00  0.00     0.167 HD
ENDBRANCH  27  29
ENDBRANCH  26  27
ENDBRANCH  23  25
ENDBRANCH  21  22
ENDBRANCH  18  20
ENDBRANCH   2  17
TORSDOF 12
