REMARK  7 active torsions:
REMARK  status: ('A' for Active; 'I' for Inactive)
REMARK    1  A    between atoms: CG_1  and  CB_2 
REMARK    2  A    between atoms: CG_1  and  CD_8 
REMARK    3  A    between atoms: CB_2  and  CA_3 
REMARK    4  A    between atoms: CA_3  and  C_4 
REMARK    5  A    between atoms: CA_3  and  N_7 
REMARK    6  A    between atoms: C_4  and  OXT_6 
REMARK    7  A    between atoms: CD_8  and  NE_9 
REMARK       I    between atoms: NE_9  and  CZ_11 
REMARK       I    between atoms: CZ_11  and  NH2_13 
ROOT
ATOM      1  CG  ARG A   1       1.128  -0.110   0.046  1.00  0.00     0.022 C 
ENDROOT
BRANCH   1   2
ATOM      2  CB  ARG A   1       0.521   0.920   1.000  1.00  0.00     0.048 C 
BRANCH   2   3
ATOM      3  CA  ARG A   1      -1.011   0.883   1.036  1.00  0.00     0.314 C 
BRANCH   3   4
ATOM      4  C   ARG A   1      -1.542  -0.468   1.551  1.00  0.00     0.173 C 
ATOM      5  O   ARG A   1      -1.765  -0.708   2.731  1.00  0.00    -0.648 OA
BRANCH   4   6
ATOM      6  OXT ARG A   1      -1.771  -1.376   0.576  1.00  0.00    -0.775 OA
ATOM      7  HXT ARG A   1      -1.536  -1.071  -0.320  1.00  0.00     0.167 HD
ENDBRANCH   4   6
ENDBRANCH   3   4
BRANCH   3   8
ATOM      8  N   ARG A   1      -1.488   1.966   1.926  1.00  0.00     0.093 N 
ATOM      9  H1  ARG A   1      -1.160   1.751   2.874  1.00  0.00     0.314 HD
ATOM     10  H2  ARG A   1      -2.505   1.893   2.008  1.00  0.00     0.314 HD
ENDBRANCH   3   8
ENDBRANCH   2   3
ENDBRANCH   1   2
BRANCH   1  11
ATOM     11  CD  ARG A   1       2.652   0.005  -0.015  1.00  0.00     0.122 C 
BRANCH  11  12
ATOM     12  NE  ARG A   1       3.142  -1.050  -0.894  1.00  0.00    -0.367 N 
ATOM     13  CZ  ARG A   1       4.408  -1.164  -1.055  1.00  0.00     0.143 C 
ATOM     14  NH1 ARG A   1       5.402  -0.413  -0.536  1.00  0.00    -0.376 N 
ATOM     15  NH2 ARG A   1       4.885  -2.185  -1.797  1.00  0.00    -0.274 NA
ATOM     16 HH11 ARG A   1       5.131   0.468  -0.125  1.00  0.00     0.158 HD
ATOM     17 HH12 ARG A   1       6.260  -0.359  -1.064  1.00  0.00     0.158 HD
ATOM     18 HH21 ARG A   1       4.148  -2.659  -2.308  1.00  0.00     0.127 HD
ATOM     19 HH22 ARG A   1       5.715  -2.024  -2.345  1.00  0.00     0.127 HD
ATOM     20  HE  ARG A   1       2.495  -1.680  -1.368  1.00  0.00     0.162 HD
ENDBRANCH  11  12
ENDBRANCH   1  11
TORSDOF 7
