REMARK  12 active torsions:
REMARK  status: ('A' for Active; 'I' for Inactive)
REMARK    1  A    between atoms: C_1  and  C_2 
REMARK    2  A    between atoms: C_1  and  O_23 
REMARK    3  A    between atoms: C_3  and  O_22 
REMARK    4  A    between atoms: C_4  and  O_21 
REMARK    5  A    between atoms: C_5  and  O_20 
REMARK    6  A    between atoms: C_6  and  O_8 
REMARK    7  A    between atoms: O_8  and  C_9 
REMARK    8  A    between atoms: C_10  and  O_19 
REMARK    9  A    between atoms: C_11  and  C_15 
REMARK   10  A    between atoms: C_15  and  C_16 
REMARK   11  A    between atoms: C_15  and  O_18 
REMARK   12  A    between atoms: C_16  and  O_17 
ROOT
HETATM    1  C   UNL     1       0.288  -1.312  -0.206  1.00  0.00     0.179 C 
HETATM    2  C   UNL     1      -0.522  -1.318   1.098  1.00  0.00     0.180 C 
HETATM    3  C   UNL     1       0.335  -1.898   2.230  1.00  0.00     0.183 C 
HETATM    4  C   UNL     1       0.788  -3.320   1.872  1.00  0.00     0.205 C 
HETATM    5  C   UNL     1       1.485  -3.350   0.486  1.00  0.00     0.298 C 
HETATM    6  O   UNL     1       0.735  -2.637  -0.524  1.00  0.00    -0.348 OA
ENDROOT
BRANCH   5   7
HETATM    7  O   UNL     1       1.600  -4.701  -0.003  1.00  0.00    -0.309 OA
BRANCH   7   8
HETATM    8  C   UNL     1       2.305  -5.587   0.756  1.00  0.00     0.179 A 
HETATM    9  C   UNL     1       2.009  -6.873   0.934  1.00  0.00     0.115 A 
HETATM   10  C   UNL     1       2.993  -7.563   1.792  1.00  0.00     0.222 A 
HETATM   11  O   UNL     1       3.971  -6.536   2.057  1.00  0.00    -0.301 OA
HETATM   12  C   UNL     1       3.554  -5.357   1.501  1.00  0.00     0.320 A 
HETATM   13  O   UNL     1       4.133  -4.289   1.602  1.00  0.00    -0.257 OA
BRANCH   9  14
HETATM   14  O   UNL     1       0.937  -7.546   0.418  1.00  0.00    -0.359 OA
HETATM   15  H   UNL     1       0.391  -6.903  -0.078  1.00  0.00     0.217 HD
ENDBRANCH   9  14
BRANCH  10  16
HETATM   16  C   UNL     1       3.663  -8.791   1.148  1.00  0.00     0.177 C 
BRANCH  16  17
HETATM   17  C   UNL     1       4.374  -8.484  -0.175  1.00  0.00     0.198 C 
BRANCH  17  18
HETATM   18  O   UNL     1       4.938  -9.680  -0.713  1.00  0.00    -0.398 OA
HETATM   19  H   UNL     1       5.324 -10.159   0.046  1.00  0.00     0.209 HD
ENDBRANCH  17  18
ENDBRANCH  16  17
BRANCH  16  20
HETATM   20  O   UNL     1       4.640  -9.358   2.047  1.00  0.00    -0.390 OA
HETATM   21  H   UNL     1       5.160  -8.617   2.412  1.00  0.00     0.210 HD
ENDBRANCH  16  20
ENDBRANCH  10  16
ENDBRANCH   7   8
ENDBRANCH   5   7
BRANCH   4  22
HETATM   22  O   UNL     1      -0.350  -4.214   1.885  1.00  0.00    -0.388 OA
HETATM   23  H   UNL     1      -1.006  -3.824   1.266  1.00  0.00     0.210 HD
ENDBRANCH   4  22
BRANCH   3  24
HETATM   24  O   UNL     1      -0.418  -1.919   3.447  1.00  0.00    -0.390 OA
HETATM   25  H   UNL     1      -1.153  -2.544   3.286  1.00  0.00     0.210 HD
ENDBRANCH   3  24
BRANCH   1  26
HETATM   26  C   UNL     1       1.403  -0.258  -0.237  1.00  0.00     0.198 C 
BRANCH  26  27
HETATM   27  O   UNL     1       0.848   1.042  -0.068  1.00  0.00    -0.398 OA
HETATM   28  H   UNL     1       0.879   1.500  -0.928  1.00  0.00     0.209 HD
ENDBRANCH  26  27
ENDBRANCH   1  26
BRANCH   2  29
HETATM   29  O   UNL     1      -1.676  -2.177   0.924  1.00  0.00    -0.390 OA
HETATM   30  H   UNL     1      -2.052  -1.989   0.044  1.00  0.00     0.210 HD
ENDBRANCH   2  29
TORSDOF 12
