REMARK  22 active torsions:
REMARK  status: ('A' for Active; 'I' for Inactive)
REMARK    1  A    between atoms: C_5  and  C_33 
REMARK    2  A    between atoms: C_19  and  O_26 
REMARK    3  A    between atoms: C_20  and  O_25 
REMARK    4  A    between atoms: C_21  and  C_23 
REMARK    5  A    between atoms: C_23  and  O_24 
REMARK    6  A    between atoms: C_33  and  O_35 
REMARK    7  A    between atoms: O_35  and  C_36 
REMARK    8  A    between atoms: C_37  and  O_67 
REMARK    9  A    between atoms: C_38  and  O_66 
REMARK   10  A    between atoms: C_39  and  O_65 
REMARK   11  A    between atoms: C_40  and  C_42 
REMARK   12  A    between atoms: C_42  and  O_43 
REMARK   13  A    between atoms: O_43  and  C_44 
REMARK   14  A    between atoms: C_45  and  O_64 
REMARK   15  A    between atoms: C_46  and  O_63 
REMARK   16  A    between atoms: C_47  and  O_52 
REMARK   17  A    between atoms: C_48  and  C_50 
REMARK   18  A    between atoms: C_50  and  O_51 
REMARK   19  A    between atoms: O_52  and  C_53 
REMARK   20  A    between atoms: C_54  and  O_62 
REMARK   21  A    between atoms: C_55  and  O_61 
REMARK   22  A    between atoms: C_56  and  O_60 
ROOT
HETATM    1  C   UNL     1       2.766   6.055   2.012  1.00  0.00     0.301 C 
HETATM    2  C   UNL     1       1.240   5.908   2.130  1.00  0.00     0.205 C 
HETATM    3  C   UNL     1       0.598   6.275   0.778  1.00  0.00     0.183 C 
HETATM    4  C   UNL     1       0.945   7.707   0.301  1.00  0.00     0.180 C 
HETATM    5  C   UNL     1       2.482   7.927   0.361  1.00  0.00     0.180 C 
HETATM    6  O   UNL     1       3.073   7.441   1.604  1.00  0.00    -0.348 OA
ENDROOT
BRANCH   1   7
HETATM    7  O   UNL     1       3.301   5.037   1.127  1.00  0.00    -0.286 OA
BRANCH   7   8
HETATM    8  C   UNL     1       3.548   3.701   1.500  1.00  0.00     0.270 C 
HETATM    9  O   UNL     1       3.407   3.267   2.630  1.00  0.00    -0.264 OA
BRANCH   8  10
HETATM   10  C   UNL     1       3.949   2.891   0.178  1.00  0.00     0.056 C 
HETATM   11  C   UNL     1       2.594   2.829  -0.550  1.00  0.00     0.021 C 
HETATM   12  C   UNL     1       1.732   1.779   0.138  1.00  0.00     0.006 C 
HETATM   13  C   UNL     1       2.233   0.384  -0.234  1.00  0.00    -0.014 C 
HETATM   14  C   UNL     1       1.151  -0.633   0.163  1.00  0.00     0.010 C 
HETATM   15  C   UNL     1       3.703   0.150   0.299  1.00  0.00    -0.005 C 
HETATM   16  C   UNL     1       4.651   1.394  -0.071  1.00  0.00     0.037 C 
HETATM   17  C   UNL     1       3.689  -0.303   1.764  1.00  0.00     0.011 C 
HETATM   18  C   UNL     1       6.275   1.289  -0.092  1.00  0.00    -0.069 C 
HETATM   19  C   UNL     1       7.020   2.612   0.189  1.00  0.00    -0.013 C 
HETATM   20  C   UNL     1       7.147   0.228  -0.292  1.00  0.00    -0.022 C 
HETATM   21  C   UNL     1       6.178   3.827   0.507  1.00  0.00     0.016 C 
HETATM   22  C   UNL     1       8.075   2.177   1.390  1.00  0.00    -0.028 C 
HETATM   23  C   UNL     1       7.597   3.039  -1.266  1.00  0.00     0.021 C 
HETATM   24  C   UNL     1       4.953   3.858  -0.439  1.00  0.00     0.022 C 
HETATM   25  C   UNL     1       9.260   1.712   0.496  1.00  0.00     0.007 C 
HETATM   26  C   UNL     1       8.581   3.080   2.545  1.00  0.00     0.011 C 
HETATM   27  C   UNL     1       7.423   1.010   2.342  1.00  0.00     0.016 C 
HETATM   28  C   UNL     1       8.790   0.289  -0.015  1.00  0.00     0.033 C 
HETATM   29  C   UNL     1      10.632   2.568   0.681  1.00  0.00    -0.033 C 
HETATM   30  C   UNL     1      11.154   2.415   2.116  1.00  0.00     0.007 C 
HETATM   31  C   UNL     1      11.660   2.357  -0.486  1.00  0.00     0.044 C 
HETATM   32  C   UNL     1      10.431   4.157   0.542  1.00  0.00     0.016 C 
HETATM   33  C   UNL     1       9.967   2.593   3.125  1.00  0.00     0.007 C 
HETATM   34  C   UNL     1      12.221   1.265   2.339  1.00  0.00     0.010 C 
HETATM   35  C   UNL     1      12.818   0.755   0.985  1.00  0.00     0.157 C 
HETATM   36  C   UNL     1      13.337   1.847   3.257  1.00  0.00     0.020 C 
HETATM   37  C   UNL     1      13.009   1.810  -0.087  1.00  0.00     0.148 C 
BRANCH  34  38
HETATM   38  C   UNL     1      11.649   0.006   3.062  1.00  0.00     0.176 C 
BRANCH  38  39
HETATM   39  O   UNL     1      12.626  -1.002   3.206  1.00  0.00    -0.400 OA
HETATM   40  H   UNL     1      13.291  -0.920   2.499  1.00  0.00     0.209 HD
ENDBRANCH  38  39
ENDBRANCH  34  38
BRANCH  35  41
HETATM   41  O   UNL     1      14.063   0.077   1.196  1.00  0.00    -0.392 OA
HETATM   42  H   UNL     1      14.758   0.760   1.096  1.00  0.00     0.210 HD
ENDBRANCH  35  41
BRANCH  37  43
HETATM   43  O   UNL     1      13.927   2.815   0.338  1.00  0.00    -0.393 OA
HETATM   44  H   UNL     1      13.440   3.551   0.743  1.00  0.00     0.210 HD
ENDBRANCH  37  43
ENDBRANCH   8  10
ENDBRANCH   7   8
ENDBRANCH   1   7
BRANCH   2  45
HETATM   45  O   UNL     1       0.695   6.738   3.165  1.00  0.00    -0.388 OA
HETATM   46  H   UNL     1       1.426   7.085   3.709  1.00  0.00     0.210 HD
ENDBRANCH   2  45
BRANCH   3  47
HETATM   47  O   UNL     1      -0.810   6.014   0.787  1.00  0.00    -0.390 OA
HETATM   48  H   UNL     1      -1.162   6.274   1.662  1.00  0.00     0.210 HD
ENDBRANCH   3  47
BRANCH   5  49
HETATM   49  C   UNL     1       2.865   9.447   0.061  1.00  0.00     0.205 C 
BRANCH  49  50
HETATM   50  O   UNL     1       2.126  10.378   0.863  1.00  0.00    -0.356 OA
BRANCH  50  51
HETATM   51  C   UNL     1       2.424  11.786   0.738  1.00  0.00     0.291 C 
HETATM   52  C   UNL     1       1.861  12.456   1.990  1.00  0.00     0.204 C 
HETATM   53  C   UNL     1       0.351  12.192   1.987  1.00  0.00     0.183 C 
HETATM   54  C   UNL     1      -0.358  12.983   0.863  1.00  0.00     0.187 C 
HETATM   55  C   UNL     1       0.460  12.742  -0.477  1.00  0.00     0.180 C 
HETATM   56  O   UNL     1       1.888  12.467  -0.398  1.00  0.00    -0.348 OA
BRANCH  52  57
HETATM   57  O   UNL     1       2.151  13.858   2.078  1.00  0.00    -0.388 OA
HETATM   58  H   UNL     1       1.656  14.341   1.386  1.00  0.00     0.210 HD
ENDBRANCH  52  57
BRANCH  53  59
HETATM   59  O   UNL     1      -0.161  12.354   3.304  1.00  0.00    -0.390 OA
HETATM   60  H   UNL     1       0.493  12.890   3.798  1.00  0.00     0.210 HD
ENDBRANCH  53  59
BRANCH  54  61
HETATM   61  O   UNL     1      -0.609  14.391   1.160  1.00  0.00    -0.348 OA
BRANCH  61  62
HETATM   62  C   UNL     1      -1.449  14.636   2.321  1.00  0.00     0.292 C 
HETATM   63  C   UNL     1      -2.908  14.082   2.280  1.00  0.00     0.204 C 
HETATM   64  C   UNL     1      -3.850  15.088   1.572  1.00  0.00     0.183 C 
HETATM   65  C   UNL     1      -3.724  16.497   2.164  1.00  0.00     0.178 C 
HETATM   66  C   UNL     1      -2.251  16.940   2.204  1.00  0.00     0.152 C 
HETATM   67  O   UNL     1      -1.372  15.988   2.793  1.00  0.00    -0.351 OA
HETATM   68  C   UNL     1      -2.104  18.223   3.036  1.00  0.00     0.042 C 
BRANCH  63  69
HETATM   69  O   UNL     1      -3.365  13.757   3.617  1.00  0.00    -0.388 OA
HETATM   70  H   UNL     1      -2.856  14.319   4.232  1.00  0.00     0.210 HD
ENDBRANCH  63  69
BRANCH  64  71
HETATM   71  O   UNL     1      -5.234  14.708   1.624  1.00  0.00    -0.390 OA
HETATM   72  H   UNL     1      -5.333  13.800   1.283  1.00  0.00     0.210 HD
ENDBRANCH  64  71
BRANCH  65  73
HETATM   73  O   UNL     1      -4.299  16.563   3.477  1.00  0.00    -0.390 OA
HETATM   74  H   UNL     1      -5.097  15.998   3.470  1.00  0.00     0.210 HD
ENDBRANCH  65  73
ENDBRANCH  61  62
ENDBRANCH  54  61
BRANCH  55  75
HETATM   75  C   UNL     1       0.335  13.918  -1.473  1.00  0.00     0.198 C 
BRANCH  75  76
HETATM   76  O   UNL     1       1.159  13.669  -2.618  1.00  0.00    -0.398 OA
HETATM   77  H   UNL     1       2.027  13.424  -2.238  1.00  0.00     0.209 HD
ENDBRANCH  75  76
ENDBRANCH  55  75
ENDBRANCH  50  51
ENDBRANCH  49  50
ENDBRANCH   5  49
BRANCH   4  78
HETATM   78  O   UNL     1       0.207   8.723   0.994  1.00  0.00    -0.390 OA
HETATM   79  H   UNL     1       0.830   9.181   1.590  1.00  0.00     0.210 HD
ENDBRANCH   4  78
TORSDOF 22
