REMARK  12 active torsions:
REMARK  status: ('A' for Active; 'I' for Inactive)
REMARK    1  A    between atoms: C_3  and  C_12 
REMARK    2  A    between atoms: C_6  and  O_9 
REMARK    3  A    between atoms: C_13  and  C_14 
REMARK    4  A    between atoms: C_15  and  C_16 
REMARK    5  A    between atoms: C_17  and  C_18 
REMARK    6  A    between atoms: C_19  and  C_20 
REMARK    7  A    between atoms: C_21  and  C_22 
REMARK    8  A    between atoms: C_23  and  C_25 
REMARK    9  A    between atoms: C_26  and  C_27 
REMARK   10  A    between atoms: C_28  and  C_30 
REMARK   11  A    between atoms: C_31  and  C_32 
REMARK   12  A    between atoms: C_36  and  O_41 
ROOT
HETATM    1  C   UNL     1       4.376   3.845  -1.062  1.00  0.00    -0.022 C 
HETATM    2  C   UNL     1       4.729   2.685  -1.731  1.00  0.00     0.054 C 
ENDROOT
BRANCH   1   3
HETATM    3  C   UNL     1       5.056   5.228  -0.912  1.00  0.00     0.003 C 
HETATM    4  C   UNL     1       4.582   6.426  -1.144  1.00  0.00    -0.062 C 
HETATM    5  C   UNL     1       5.385   7.671  -0.673  1.00  0.00     0.048 C 
BRANCH   4   6
HETATM    6  C   UNL     1       3.256   6.720  -1.737  1.00  0.00     0.007 C 
HETATM    7  C   UNL     1       2.131   6.312  -1.139  1.00  0.00     0.001 C 
BRANCH   7   8
HETATM    8  C   UNL     1       0.729   6.619  -1.333  1.00  0.00     0.007 C 
HETATM    9  C   UNL     1      -0.225   6.583  -0.355  1.00  0.00    -0.062 C 
HETATM   10  C   UNL     1      -1.649   6.493  -0.888  1.00  0.00     0.048 C 
BRANCH   9  11
HETATM   11  C   UNL     1      -0.097   6.441   1.171  1.00  0.00     0.007 C 
HETATM   12  C   UNL     1       0.823   6.929   2.008  1.00  0.00     0.009 C 
BRANCH  12  13
HETATM   13  C   UNL     1       1.170   6.895   3.569  1.00  0.00    -0.041 C 
HETATM   14  C   UNL     1       2.398   7.499   3.864  1.00  0.00    -0.006 C 
HETATM   15  C   UNL     1       3.243   8.493   3.016  1.00  0.00     0.052 C 
HETATM   16  C   UNL     1       3.119   7.286   5.173  1.00  0.00     0.184 C 
HETATM   17  C   UNL     1       2.432   6.547   6.308  1.00  0.00     0.193 C 
HETATM   18  O   UNL     1       4.274   7.723   5.340  1.00  0.00    -0.290 OA
HETATM   19  C   UNL     1       1.200   5.720   6.034  1.00  0.00     0.053 C 
HETATM   20  C   UNL     1       0.290   5.975   4.778  1.00  0.00    -0.017 C 
HETATM   21  C   UNL     1       0.117   4.570   4.176  1.00  0.00     0.020 C 
HETATM   22  C   UNL     1      -1.246   6.194   5.574  1.00  0.00     0.020 C 
BRANCH  17  23
HETATM   23  O   UNL     1       3.310   5.739   7.104  1.00  0.00    -0.388 OA
HETATM   24  H   UNL     1       3.997   5.377   6.516  1.00  0.00     0.210 HD
ENDBRANCH  17  23
ENDBRANCH  12  13
ENDBRANCH   9  11
ENDBRANCH   7   8
ENDBRANCH   4   6
ENDBRANCH   1   3
BRANCH   2  25
HETATM   25  C   UNL     1       4.261   1.103  -1.968  1.00  0.00    -0.016 C 
HETATM   26  C   UNL     1       3.949  -0.009  -1.140  1.00  0.00    -0.066 C 
HETATM   27  C   UNL     1       3.850  -0.230   0.413  1.00  0.00     0.048 C 
BRANCH  26  28
HETATM   28  C   UNL     1       3.653  -1.446  -1.684  1.00  0.00     0.006 C 
HETATM   29  C   UNL     1       2.869  -1.761  -2.847  1.00  0.00     0.001 C 
BRANCH  29  30
HETATM   30  C   UNL     1       2.856  -3.040  -3.565  1.00  0.00     0.007 C 
HETATM   31  C   UNL     1       2.650  -3.166  -4.901  1.00  0.00    -0.062 C 
HETATM   32  C   UNL     1       2.524  -2.017  -5.888  1.00  0.00     0.048 C 
BRANCH  31  33
HETATM   33  C   UNL     1       2.531  -4.509  -5.542  1.00  0.00     0.007 C 
HETATM   34  C   UNL     1       1.827  -4.785  -6.625  1.00  0.00     0.009 C 
BRANCH  34  35
HETATM   35  C   UNL     1       1.466  -6.153  -7.079  1.00  0.00    -0.041 A 
HETATM   36  C   UNL     1       0.671  -6.894  -6.286  1.00  0.00    -0.006 A 
HETATM   37  C   UNL     1       0.371  -8.331  -6.602  1.00  0.00     0.184 A 
HETATM   38  C   UNL     1       0.060  -6.461  -4.974  1.00  0.00     0.052 C 
HETATM   39  O   UNL     1      -0.284  -8.998  -5.807  1.00  0.00    -0.290 OA
HETATM   40  C   UNL     1       0.945  -8.957  -7.866  1.00  0.00     0.193 A 
HETATM   41  C   UNL     1       1.802  -8.110  -8.783  1.00  0.00     0.053 A 
HETATM   42  C   UNL     1       2.131  -6.646  -8.382  1.00  0.00    -0.017 A 
HETATM   43  C   UNL     1       3.663  -6.578  -8.172  1.00  0.00     0.020 C 
HETATM   44  C   UNL     1       1.766  -5.783  -9.623  1.00  0.00     0.020 C 
BRANCH  40  45
HETATM   45  O   UNL     1       1.672 -10.148  -7.558  1.00  0.00    -0.388 OA
HETATM   46  H   UNL     1       2.395  -9.900  -6.957  1.00  0.00     0.210 HD
ENDBRANCH  40  45
ENDBRANCH  34  35
ENDBRANCH  31  33
ENDBRANCH  29  30
ENDBRANCH  26  28
ENDBRANCH   2  25
TORSDOF 12
