REMARK  7 active torsions:
REMARK  status: ('A' for Active; 'I' for Inactive)
REMARK    1  A    between atoms: C_3  and  C_4 
REMARK    2  A    between atoms: C_4  and  C_5 
REMARK    3  A    between atoms: C_5  and  C_6 
REMARK    4  A    between atoms: C_6  and  C_8 
REMARK    5  A    between atoms: C_6  and  C_10 
REMARK    6  A    between atoms: C_11  and  C_12 
REMARK    7  A    between atoms: C_15  and  O_18 
ROOT
HETATM    1  C   UNL     1       2.642   4.742   1.754  1.00  0.00    -0.009 C 
HETATM    2  C   UNL     1       1.793   5.320   0.601  1.00  0.00     0.024 C 
ENDROOT
BRANCH   1   3
HETATM    3  C   UNL     1       3.470   3.515   1.238  1.00  0.00     0.021 C 
BRANCH   3   4
HETATM    4  C   UNL     1       4.383   3.803   0.033  1.00  0.00     0.028 C 
BRANCH   4   5
HETATM    5  C   UNL     1       5.271   2.656  -0.362  1.00  0.00    -0.025 C 
HETATM    6  C   UNL     1       6.503   2.400   0.121  1.00  0.00    -0.091 C 
HETATM    7  C   UNL     1       7.148   3.136   1.260  1.00  0.00     0.042 C 
HETATM    8  C   UNL     1       7.345   1.322  -0.511  1.00  0.00     0.042 C 
ENDBRANCH   4   5
ENDBRANCH   3   4
ENDBRANCH   1   3
BRANCH   1   9
HETATM    9  C   UNL     1       1.775   4.234   2.914  1.00  0.00    -0.024 C 
HETATM   10  C   UNL     1       0.441   4.281   3.038  1.00  0.00     0.008 C 
ENDBRANCH   1   9
BRANCH   1  11
HETATM   11  C   UNL     1       3.575   5.851   2.249  1.00  0.00    -0.013 C 
HETATM   12  C   UNL     1       3.328   6.722   3.242  1.00  0.00     0.008 C 
BRANCH  12  13
HETATM   13  C   UNL     1       4.320   7.717   3.646  1.00  0.00    -0.036 A 
HETATM   14  C   UNL     1       4.388   8.960   3.009  1.00  0.00     0.014 A 
HETATM   15  C   UNL     1       5.332   9.907   3.420  1.00  0.00     0.037 A 
HETATM   16  C   UNL     1       6.205   9.599   4.459  1.00  0.00     0.065 A 
HETATM   17  C   UNL     1       6.158   8.361   5.086  1.00  0.00     0.037 A 
HETATM   18  C   UNL     1       5.215   7.417   4.679  1.00  0.00     0.014 A 
BRANCH  16  19
HETATM   19  O   UNL     1       7.135  10.495   4.897  1.00  0.00    -0.361 OA
HETATM   20  H   UNL     1       7.034  11.318   4.391  1.00  0.00     0.217 HD
ENDBRANCH  16  19
ENDBRANCH  12  13
ENDBRANCH   1  11
TORSDOF 7
