REMARK  4 active torsions:
REMARK  status: ('A' for Active; 'I' for Inactive)
REMARK    1  A    between atoms: C_5  and  C_6 
REMARK    2  A    between atoms: C_5  and  C_14 
REMARK    3  A    between atoms: C_9  and  N_12 
REMARK    4  A    between atoms: C_17  and  N_20 
ROOT
HETATM    1  C   UNL     1       1.100   0.296   0.203  1.00  0.00     0.050 C 
HETATM    2  C   UNL     1       2.603   0.246   0.128  1.00  0.00    -0.035 A 
HETATM    3  C   UNL     1       3.293   1.395   0.147  1.00  0.00     0.021 A 
HETATM    4  C   UNL     1       4.779   1.416   0.048  1.00  0.00    -0.024 A 
HETATM    5  C   UNL     1       5.461   2.586   0.166  1.00  0.00    -0.005 C 
HETATM    6  C   UNL     1       5.485   0.112  -0.152  1.00  0.00     0.014 A 
HETATM    7  C   UNL     1       4.805  -1.043  -0.145  1.00  0.00     0.030 A 
HETATM    8  C   UNL     1       3.332  -1.050   0.032  1.00  0.00     0.031 A 
HETATM    9  N   UNL     1       2.696  -2.164   0.132  1.00  0.00    -0.399 N 
ATOM     10  HN  UNL     1       1.683  -2.148   0.249  1.00  0.00     0.156 HD
HETATM   11  H   UNL     1       3.183  -3.072   0.097  1.00  0.00     0.156 HD
ENDROOT
BRANCH   5  12
HETATM   12  C   UNL     1       6.931   2.620   0.123  1.00  0.00    -0.024 A 
HETATM   13  C   UNL     1       7.589   2.887  -1.083  1.00  0.00     0.021 A 
HETATM   14  C   UNL     1       8.991   2.900  -1.144  1.00  0.00    -0.035 A 
HETATM   15  C   UNL     1       9.739   2.640   0.032  1.00  0.00     0.031 A 
HETATM   16  C   UNL     1       9.666   3.182  -2.458  1.00  0.00     0.050 C 
HETATM   17  C   UNL     1       9.064   2.377   1.234  1.00  0.00     0.030 A 
HETATM   18  C   UNL     1       7.672   2.366   1.280  1.00  0.00     0.014 A 
BRANCH  15  19
HETATM   19  N   UNL     1      11.158   2.635   0.025  1.00  0.00    -0.399 N 
HETATM   20  H   UNL     1      11.699   2.821  -0.831  1.00  0.00     0.156 HD
HETATM   21  H   UNL     1      11.681   2.439   0.891  1.00  0.00     0.156 HD
ENDBRANCH  15  19
ENDBRANCH   5  12
BRANCH   5  22
HETATM   22  C   UNL     1       4.764   3.845   0.509  1.00  0.00    -0.024 A 
HETATM   23  C   UNL     1       4.222   4.680  -0.476  1.00  0.00     0.021 A 
HETATM   24  C   UNL     1       3.539   5.858  -0.112  1.00  0.00    -0.035 A 
HETATM   25  C   UNL     1       3.402   6.186   1.259  1.00  0.00     0.031 A 
HETATM   26  C   UNL     1       2.965   6.742  -1.185  1.00  0.00     0.050 C 
HETATM   27  C   UNL     1       3.945   5.336   2.231  1.00  0.00     0.030 A 
HETATM   28  C   UNL     1       4.620   4.177   1.859  1.00  0.00     0.014 A 
BRANCH  25  29
HETATM   29  N   UNL     1       2.721   7.361   1.682  1.00  0.00    -0.399 N 
HETATM   30  H   UNL     1       2.308   8.022   1.011  1.00  0.00     0.156 HD
HETATM   31  H   UNL     1       2.634   7.578   2.685  1.00  0.00     0.156 HD
ENDBRANCH  25  29
ENDBRANCH   5  22
TORSDOF 4
