REMARK  4 active torsions:
REMARK  status: ('A' for Active; 'I' for Inactive)
REMARK    1  A    between atoms: N_5  and  C_23 
REMARK    2  A    between atoms: C_8  and  N_9 
REMARK    3  A    between atoms: N_11  and  C_13 
REMARK    4  A    between atoms: C_15  and  N_19 
ROOT
HETATM    1 CL   UNL     2       1.198  -0.612  -3.297  1.00  0.00     0.000 Cl
ENDROOT
TORSDOF 4
