REMARK  4 active torsions:
REMARK  status: ('A' for Active; 'I' for Inactive)
REMARK    1  A    between atoms: C_5  and  C_8 
REMARK    2  A    between atoms: N_9  and  N_11 
REMARK    3  A    between atoms: N_11  and  C_13 
REMARK    4  A    between atoms: O_20  and  S_21 
ROOT
HETATM    1  S   UNL     2       3.124  -1.767  -2.178  1.00  0.00     0.251 S 
HETATM    2  O   UNL     2       2.568  -2.383  -0.970  1.00  0.00    -0.572 OA
HETATM    3  O   UNL     2       2.523  -2.242  -3.416  1.00  0.00    -0.572 OA
HETATM    4  O   UNL     2       4.574  -1.649  -2.184  1.00  0.00    -0.572 OA
ENDROOT
BRANCH   1   5
HETATM    5  O   UNL     2       2.598  -0.228  -2.062  1.00  0.00    -0.262 OA
HETATM    6  C   UNL     2       1.229  -0.001  -2.296  1.00  0.00     0.228 C 
ENDBRANCH   1   5
TORSDOF 4
