REMARK  3 active torsions:
REMARK  status: ('A' for Active; 'I' for Inactive)
REMARK    1  A    between atoms: C_6  and  N_7 
REMARK    2  A    between atoms: N_9  and  C_11 
REMARK    3  A    between atoms: C_14  and  N_17 
ROOT
HETATM    1 CL   UNL     2       1.023  -0.444  -3.145  1.00  0.00     0.000 Cl
ENDROOT
TORSDOF 3
