REMARK  13 active torsions:
REMARK  status: ('A' for Active; 'I' for Inactive)
REMARK    1  A    between atoms: C_2  and  C_3 
REMARK    2  A    between atoms: C_3  and  C_4 
REMARK    3  A    between atoms: C_4  and  C_5 
REMARK    4  A    between atoms: C_5  and  C_6 
REMARK    5  A    between atoms: C_6  and  C_7 
REMARK    6  A    between atoms: C_7  and  C_8 
REMARK    7  A    between atoms: C_8  and  C_9 
REMARK    8  A    between atoms: C_9  and  C_10 
REMARK    9  A    between atoms: C_10  and  C_11 
REMARK   10  A    between atoms: C_11  and  C_12 
REMARK   11  A    between atoms: C_12  and  C_13 
REMARK   12  A    between atoms: C_14  and  O_31 
REMARK   13  A    between atoms: C_15  and  N_20 
ROOT
HETATM    1  C   UNL     1      13.257   6.663  -5.563  1.00  0.00    -0.022 A 
HETATM    2  C   UNL     1      13.490   7.973  -5.105  1.00  0.00     0.102 A 
HETATM    3  C   UNL     1      14.060   8.932  -5.955  1.00  0.00     0.109 A 
HETATM    4  C   UNL     1      14.359   8.571  -7.287  1.00  0.00     0.043 A 
HETATM    5  C   UNL     1      14.102   7.277  -7.760  1.00  0.00    -0.059 A 
HETATM    6  C   UNL     1      13.553   6.334  -6.891  1.00  0.00     0.017 A 
HETATM    7  C   UNL     1      14.412   6.870  -9.168  1.00  0.00     0.048 C 
ENDROOT
BRANCH   1   8
HETATM    8  C   UNL     1      12.736   5.573  -4.668  1.00  0.00     0.041 C 
BRANCH   8   9
HETATM    9  C   UNL     1      11.207   5.555  -4.626  1.00  0.00     0.005 C 
BRANCH   9  10
HETATM   10  C   UNL     1      10.679   4.459  -3.703  1.00  0.00     0.000 C 
BRANCH  10  11
HETATM   11  C   UNL     1      11.140   4.661  -2.264  1.00  0.00     0.000 C 
BRANCH  11  12
HETATM   12  C   UNL     1      10.624   3.559  -1.355  1.00  0.00     0.000 C 
BRANCH  12  13
HETATM   13  C   UNL     1      11.145   3.779   0.059  1.00  0.00     0.000 C 
BRANCH  13  14
HETATM   14  C   UNL     1      10.654   2.677   0.981  1.00  0.00     0.000 C 
BRANCH  14  15
HETATM   15  C   UNL     1      11.160   2.903   2.399  1.00  0.00     0.000 C 
BRANCH  15  16
HETATM   16  C   UNL     1      10.656   1.801   3.321  1.00  0.00     0.000 C 
BRANCH  16  17
HETATM   17  C   UNL     1      11.153   2.022   4.744  1.00  0.00    -0.000 C 
BRANCH  17  18
HETATM   18  C   UNL     1      10.647   0.922   5.670  1.00  0.00    -0.005 C 
HETATM   19  C   UNL     1      11.139   1.139   7.089  1.00  0.00     0.005 C 
ENDBRANCH  17  18
ENDBRANCH  16  17
ENDBRANCH  15  16
ENDBRANCH  14  15
ENDBRANCH  13  14
ENDBRANCH  12  13
ENDBRANCH  11  12
ENDBRANCH  10  11
ENDBRANCH   9  10
ENDBRANCH   8   9
ENDBRANCH   1   8
BRANCH   2  20
HETATM   20  O   UNL     1      13.169   8.295  -3.814  1.00  0.00    -0.358 OA
HETATM   21  H   UNL     1      12.508   7.684  -3.457  1.00  0.00     0.217 HD
ENDBRANCH   2  20
BRANCH   3  22
HETATM   22  N   UNL     1      14.356  10.261  -5.518  1.00  0.00    -0.193 N 
HETATM   23  N   UNL     1      14.113  10.696  -4.259  1.00  0.00    -0.277 N 
HETATM   24  C   UNL     1      14.540  11.959  -4.266  1.00  0.00     0.078 A 
ATOM     25  HN  UNL     1      13.699  10.177  -3.484  1.00  0.00     0.189 HD
HETATM   26  C   UNL     1      14.537  12.896  -3.220  1.00  0.00     0.033 A 
HETATM   27  C   UNL     1      15.045  12.264  -5.598  1.00  0.00     0.078 A 
HETATM   28  C   UNL     1      15.057  14.155  -3.566  1.00  0.00     0.002 A 
HETATM   29  C   UNL     1      15.550  14.460  -4.865  1.00  0.00     0.002 A 
HETATM   30  C   UNL     1      15.564  13.530  -5.924  1.00  0.00     0.033 A 
HETATM   31  N   UNL     1      14.913  11.174  -6.365  1.00  0.00    -0.277 N 
ATOM     32  HN  UNL     1      15.167  11.055  -7.346  1.00  0.00     0.189 HD
ENDBRANCH   3  22
TORSDOF 13
