REMARK  4 active torsions:
REMARK  status: ('A' for Active; 'I' for Inactive)
REMARK    1  A    between atoms: O_2  and  C_3 
REMARK    2  A    between atoms: C_5  and  O_17 
REMARK    3  A    between atoms: C_6  and  C_9 
REMARK    4  A    between atoms: C_9  and  C_11 
ROOT
HETATM    1  C   UNL     1       3.109   1.086  -0.005  1.00  0.00     0.070 A 
HETATM    2  C   UNL     1       2.464   2.324  -0.040  1.00  0.00     0.074 A 
HETATM    3  C   UNL     1       3.218   3.505  -0.077  1.00  0.00     0.082 A 
HETATM    4  C   UNL     1       4.619   3.462  -0.101  1.00  0.00     0.048 A 
HETATM    5  C   UNL     1       5.256   2.215  -0.096  1.00  0.00     0.021 A 
HETATM    6  C   UNL     1       4.503   1.039  -0.028  1.00  0.00     0.038 A 
ENDROOT
BRANCH   4   7
HETATM    7  C   UNL     1       5.436   4.703  -0.207  1.00  0.00     0.195 C 
HETATM    8  O   UNL     1       5.091   5.600  -0.972  1.00  0.00    -0.287 OA
BRANCH   7   9
HETATM    9  C   UNL     1       6.724   4.849   0.536  1.00  0.00     0.015 A 
HETATM   10  C   UNL     1       6.979   4.190   1.744  1.00  0.00     0.015 A 
HETATM   11  C   UNL     1       8.217   4.341   2.377  1.00  0.00     0.001 A 
HETATM   12  C   UNL     1       9.193   5.166   1.820  1.00  0.00     0.000 A 
HETATM   13  C   UNL     1       8.935   5.848   0.632  1.00  0.00     0.001 A 
HETATM   14  C   UNL     1       7.704   5.693  -0.007  1.00  0.00     0.015 A 
ENDBRANCH   7   9
ENDBRANCH   4   7
BRANCH   3  15
HETATM   15  O   UNL     1       2.563   4.707  -0.048  1.00  0.00    -0.360 OA
HETATM   16  H   UNL     1       1.617   4.575  -0.218  1.00  0.00     0.217 HD
ENDBRANCH   3  15
BRANCH   1  17
HETATM   17  O   UNL     1       2.501  -0.138   0.055  1.00  0.00    -0.356 OA
HETATM   18  C   UNL     1       1.078  -0.159   0.035  1.00  0.00     0.210 C 
ENDBRANCH   1  17
TORSDOF 4
