REMARK  2 active torsions:
REMARK  status: ('A' for Active; 'I' for Inactive)
REMARK    1  A    between atoms: C_4  and  C_7 
REMARK    2  A    between atoms: C_7  and  O_8 
ROOT
HETATM    1  C   UNL     1       1.394  -0.205   0.049  1.00  0.00     0.000 A 
HETATM    2  C   UNL     1       0.531  -1.298   0.050  1.00  0.00     0.001 A 
HETATM    3  C   UNL     1      -0.851  -1.102   0.000  1.00  0.00     0.009 A 
HETATM    4  C   UNL     1      -1.384   0.194  -0.054  1.00  0.00    -0.035 A 
HETATM    5  C   UNL     1      -0.502   1.285  -0.049  1.00  0.00     0.009 A 
HETATM    6  C   UNL     1       0.878   1.087   0.004  1.00  0.00     0.001 A 
ENDROOT
BRANCH   4   7
HETATM    7  C   UNL     1      -2.868   0.424  -0.160  1.00  0.00     0.202 C 
BRANCH   7   8
HETATM    8  O   UNL     1      -3.338   1.211   0.929  1.00  0.00    -0.396 OA
HETATM    9  H   UNL     1      -3.042   0.762   1.742  1.00  0.00     0.209 HD
ENDBRANCH   7   8
ENDBRANCH   4   7
TORSDOF 2
