REMARK  4 active torsions:
REMARK  status: ('A' for Active; 'I' for Inactive)
REMARK    1  A    between atoms: C_4  and  C_7 
REMARK    2  A    between atoms: C_7  and  C_9 
REMARK    3  A    between atoms: C_10  and  O_16 
REMARK    4  A    between atoms: C_12  and  O_15 
ROOT
HETATM    1  C   UNL     1      -3.850  -0.648  -0.323  1.00  0.00     0.048 A 
HETATM    2  C   UNL     1      -3.952  -1.573   0.728  1.00  0.00     0.082 A 
HETATM    3  C   UNL     1      -4.879  -2.614   0.674  1.00  0.00     0.074 A 
HETATM    4  C   UNL     1      -5.722  -2.716  -0.429  1.00  0.00     0.068 A 
HETATM    5  C   UNL     1      -5.668  -1.784  -1.458  1.00  0.00     0.037 A 
HETATM    6  C   UNL     1      -4.745  -0.740  -1.399  1.00  0.00     0.021 A 
ENDROOT
BRANCH   1   7
HETATM    7  C   UNL     1      -2.813   0.418  -0.280  1.00  0.00     0.195 C 
HETATM    8  O   UNL     1      -2.400   0.794   0.814  1.00  0.00    -0.287 OA
BRANCH   7   9
HETATM    9  C   UNL     1      -2.255   1.011  -1.525  1.00  0.00     0.015 A 
HETATM   10  C   UNL     1      -2.031   0.233  -2.669  1.00  0.00     0.015 A 
HETATM   11  C   UNL     1      -1.547   0.826  -3.836  1.00  0.00     0.001 A 
HETATM   12  C   UNL     1      -1.259   2.190  -3.855  1.00  0.00     0.000 A 
HETATM   13  C   UNL     1      -1.445   2.961  -2.707  1.00  0.00     0.001 A 
HETATM   14  C   UNL     1      -1.938   2.373  -1.540  1.00  0.00     0.015 A 
ENDBRANCH   7   9
ENDBRANCH   1   7
BRANCH   2  15
HETATM   15  O   UNL     1      -3.164  -1.514   1.847  1.00  0.00    -0.360 OA
HETATM   16  H   UNL     1      -2.694  -0.649   1.836  1.00  0.00     0.217 HD
ENDBRANCH   2  15
BRANCH   4  17
HETATM   17  O   UNL     1      -6.635  -3.722  -0.540  1.00  0.00    -0.361 OA
HETATM   18  H   UNL     1      -6.565  -4.292   0.244  1.00  0.00     0.217 HD
ENDBRANCH   4  17
TORSDOF 4
