REMARK  10 active torsions:
REMARK  status: ('A' for Active; 'I' for Inactive)
REMARK    1  A    between atoms: C_3  and  C_10 
REMARK    2  A    between atoms: C_11  and  C_12 
REMARK    3  A    between atoms: C_13  and  C_14 
REMARK    4  A    between atoms: C_15  and  C_16 
REMARK    5  A    between atoms: C_17  and  C_18 
REMARK    6  A    between atoms: C_19  and  C_20 
REMARK    7  A    between atoms: C_21  and  C_23 
REMARK    8  A    between atoms: C_24  and  C_25 
REMARK    9  A    between atoms: C_26  and  C_28 
REMARK   10  A    between atoms: C_29  and  C_30 
ROOT
HETATM    1  C   UNL     1      -2.349  -1.777   1.303  1.00  0.00     0.001 C 
HETATM    2  C   UNL     1      -2.297  -0.588   1.953  1.00  0.00     0.001 C 
ENDROOT
BRANCH   1   3
HETATM    3  C   UNL     1      -3.290  -2.880   1.494  1.00  0.00     0.007 C 
HETATM    4  C   UNL     1      -4.545  -2.970   0.967  1.00  0.00    -0.062 C 
HETATM    5  C   UNL     1      -5.477  -4.143   1.143  1.00  0.00     0.048 C 
BRANCH   4   6
HETATM    6  C   UNL     1      -5.123  -1.862   0.216  1.00  0.00     0.007 C 
HETATM    7  C   UNL     1      -5.274  -0.693   0.843  1.00  0.00     0.001 C 
BRANCH   7   8
HETATM    8  C   UNL     1      -5.701   0.570   0.312  1.00  0.00     0.007 C 
HETATM    9  C   UNL     1      -6.373   1.460   1.078  1.00  0.00    -0.062 C 
HETATM   10  C   UNL     1      -6.574   2.866   0.607  1.00  0.00     0.048 C 
BRANCH   9  11
HETATM   11  C   UNL     1      -6.955   1.121   2.382  1.00  0.00     0.007 C 
HETATM   12  C   UNL     1      -7.700   0.015   2.541  1.00  0.00     0.009 C 
BRANCH  12  13
HETATM   13  C   UNL     1      -8.433  -0.461   3.705  1.00  0.00    -0.048 C 
HETATM   14  C   UNL     1      -9.671  -1.001   3.474  1.00  0.00    -0.077 C 
HETATM   15  C   UNL     1     -10.355  -1.238   2.134  1.00  0.00     0.044 C 
HETATM   16  C   UNL     1     -10.570  -1.473   4.591  1.00  0.00     0.034 C 
HETATM   17  C   UNL     1     -10.058  -0.990   5.932  1.00  0.00     0.005 C 
HETATM   18  C   UNL     1      -8.603  -1.442   6.046  1.00  0.00     0.014 C 
HETATM   19  C   UNL     1      -7.705  -0.584   5.104  1.00  0.00    -0.020 C 
HETATM   20  C   UNL     1      -6.359  -1.336   4.918  1.00  0.00     0.020 C 
HETATM   21  C   UNL     1      -7.349   0.699   5.917  1.00  0.00     0.020 C 
ENDBRANCH  12  13
ENDBRANCH   9  11
ENDBRANCH   7   8
ENDBRANCH   4   6
ENDBRANCH   1   3
BRANCH   2  22
HETATM   22  C   UNL     1      -1.487   0.559   1.492  1.00  0.00     0.007 C 
HETATM   23  C   UNL     1      -1.449   1.836   1.951  1.00  0.00    -0.062 C 
HETATM   24  C   UNL     1      -2.189   2.412   3.139  1.00  0.00     0.048 C 
BRANCH  23  25
HETATM   25  C   UNL     1      -0.628   2.902   1.331  1.00  0.00     0.007 C 
HETATM   26  C   UNL     1      -1.102   3.805   0.443  1.00  0.00     0.001 C 
BRANCH  26  27
HETATM   27  C   UNL     1      -0.503   5.123   0.180  1.00  0.00     0.007 C 
HETATM   28  C   UNL     1      -0.766   5.942  -0.872  1.00  0.00    -0.062 C 
HETATM   29  C   UNL     1      -1.504   5.473  -2.103  1.00  0.00     0.048 C 
BRANCH  28  30
HETATM   30  C   UNL     1      -0.368   7.374  -0.850  1.00  0.00     0.007 C 
HETATM   31  C   UNL     1      -0.586   8.257  -1.851  1.00  0.00     0.009 C 
BRANCH  31  32
HETATM   32  C   UNL     1      -0.385   9.715  -1.856  1.00  0.00    -0.048 C 
HETATM   33  C   UNL     1       0.829  10.304  -1.715  1.00  0.00    -0.077 C 
HETATM   34  C   UNL     1       1.026  11.811  -1.742  1.00  0.00     0.034 C 
HETATM   35  C   UNL     1       2.139   9.568  -1.578  1.00  0.00     0.044 C 
HETATM   36  C   UNL     1      -0.254  12.630  -1.658  1.00  0.00     0.005 C 
HETATM   37  C   UNL     1      -1.317  12.023  -2.554  1.00  0.00     0.014 C 
HETATM   38  C   UNL     1      -1.662  10.559  -2.157  1.00  0.00    -0.020 C 
HETATM   39  C   UNL     1      -2.492   9.997  -3.338  1.00  0.00     0.020 C 
HETATM   40  C   UNL     1      -2.570  10.577  -0.909  1.00  0.00     0.020 C 
ENDBRANCH  31  32
ENDBRANCH  28  30
ENDBRANCH  26  27
ENDBRANCH  23  25
ENDBRANCH   2  22
TORSDOF 10
