REMARK  7 active torsions:
REMARK  status: ('A' for Active; 'I' for Inactive)
REMARK    1  A    between atoms: C_2  and  C_3 
REMARK    2  A    between atoms: C_3  and  C_4 
REMARK    3  A    between atoms: C_3  and  C_28 
REMARK    4  A    between atoms: C_4  and  C_5 
REMARK    5  A    between atoms: C_5  and  C_6 
REMARK    6  A    between atoms: C_6  and  C_8 
REMARK    7  A    between atoms: C_23  and  O_25 
ROOT
HETATM    1  C   UNL     1      -1.840  -2.493  -3.115  1.00  0.00    -0.002 C 
HETATM    2  C   UNL     1      -0.583  -2.871  -2.268  1.00  0.00     0.006 C 
HETATM    3  C   UNL     1       0.238  -1.566  -2.152  1.00  0.00     0.006 C 
HETATM    4  C   UNL     1      -0.701  -0.461  -2.655  1.00  0.00    -0.001 C 
HETATM    5  C   UNL     1      -1.366  -1.201  -3.886  1.00  0.00    -0.036 C 
HETATM    6  C   UNL     1      -2.228  -0.091  -4.515  1.00  0.00     0.010 C 
HETATM    7  C   UNL     1      -3.349   0.522  -3.697  1.00  0.00     0.007 C 
HETATM    8  C   UNL     1      -3.116   0.705  -2.174  1.00  0.00     0.003 C 
HETATM    9  C   UNL     1      -1.862  -0.057  -1.638  1.00  0.00    -0.001 C 
HETATM   10  C   UNL     1      -1.550   0.241  -0.178  1.00  0.00     0.033 C 
HETATM   11  C   UNL     1      -2.783  -0.123   0.616  1.00  0.00    -0.023 C 
HETATM   12  C   UNL     1      -4.052  -0.144   0.136  1.00  0.00    -0.072 C 
HETATM   13  C   UNL     1      -4.428   0.345  -1.295  1.00  0.00    -0.017 C 
HETATM   14  C   UNL     1      -5.323   1.602  -1.032  1.00  0.00     0.016 C 
HETATM   15  C   UNL     1      -6.518   1.297  -0.091  1.00  0.00     0.033 C 
HETATM   16  C   UNL     1      -6.030   0.757   1.259  1.00  0.00     0.122 C 
HETATM   17  C   UNL     1      -5.185  -0.507   1.049  1.00  0.00     0.066 C 
HETATM   18  C   UNL     1      -5.350  -0.688  -2.031  1.00  0.00     0.020 C 
HETATM   19  C   UNL     1      -0.428  -1.671  -5.027  1.00  0.00     0.016 C 
ENDROOT
BRANCH   1  20
HETATM   20  C   UNL     1      -2.829  -3.588  -3.511  1.00  0.00    -0.014 C 
HETATM   21  C   UNL     1      -3.436  -4.211  -2.201  1.00  0.00     0.010 C 
BRANCH  20  22
HETATM   22  C   UNL     1      -2.319  -4.698  -4.408  1.00  0.00     0.005 C 
BRANCH  22  23
HETATM   23  C   UNL     1      -3.498  -5.616  -4.771  1.00  0.00     0.005 C 
BRANCH  23  24
HETATM   24  C   UNL     1      -3.190  -6.692  -5.818  1.00  0.00    -0.012 C 
BRANCH  24  25
HETATM   25  C   UNL     1      -2.216  -7.759  -5.271  1.00  0.00     0.000 C 
HETATM   26  C   UNL     1      -2.661  -8.406  -3.960  1.00  0.00     0.005 C 
ENDBRANCH  24  25
BRANCH  24  27
HETATM   27  C   UNL     1      -2.709  -6.078  -7.167  1.00  0.00    -0.019 C 
HETATM   28  C   UNL     1      -2.582  -7.146  -8.265  1.00  0.00     0.010 C 
HETATM   29  C   UNL     1      -3.644  -4.970  -7.676  1.00  0.00     0.010 C 
ENDBRANCH  24  27
ENDBRANCH  23  24
ENDBRANCH  22  23
ENDBRANCH  20  22
ENDBRANCH   1  20
BRANCH  16  30
HETATM   30  O   UNL     1      -7.122   0.501   2.129  1.00  0.00    -0.395 OA
HETATM   31  H   UNL     1      -7.664  -0.204   1.741  1.00  0.00     0.210 HD
ENDBRANCH  16  30
TORSDOF 7
