REMARK  0 active torsions:
REMARK  status: ('A' for Active; 'I' for Inactive)
ROOT
HETATM    1  C   UNL     1       0.975   0.540   0.202  1.00  0.00     0.043 C 
HETATM    2  C   UNL     1       2.471   0.360   0.190  1.00  0.00    -0.087 C 
HETATM    3  C   UNL     1       3.259   0.944  -0.737  1.00  0.00    -0.024 C 
HETATM    4  C   UNL     1       4.765   0.824  -0.832  1.00  0.00     0.031 C 
HETATM    5  C   UNL     1       5.297  -0.393  -1.605  1.00  0.00     0.037 C 
HETATM    6  C   UNL     1       5.202  -1.743  -0.904  1.00  0.00    -0.084 C 
HETATM    7  C   UNL     1       6.161  -2.174  -0.069  1.00  0.00     0.014 C 
HETATM    8  C   UNL     1       4.072  -2.627  -1.314  1.00  0.00     0.019 C 
HETATM    9  C   UNL     1       3.930  -4.121  -0.880  1.00  0.00     0.018 C 
HETATM   10  C   UNL     1       2.374  -3.915  -0.999  1.00  0.00    -0.043 C 
HETATM   11  C   UNL     1       2.688  -2.407  -0.624  1.00  0.00     0.002 C 
HETATM   12  C   UNL     1       2.645  -2.060   0.886  1.00  0.00     0.010 C 
HETATM   13  C   UNL     1       3.008  -0.608   1.213  1.00  0.00     0.034 C 
HETATM   14  C   UNL     1       1.437  -4.613  -0.016  1.00  0.00     0.015 C 
HETATM   15  C   UNL     1       1.848  -4.137  -2.431  1.00  0.00     0.015 C 
ENDROOT
TORSDOF 0
