REMARK  5 active torsions:
REMARK  status: ('A' for Active; 'I' for Inactive)
REMARK    1  A    between atoms: N_2  and  C_5 
REMARK    2  A    between atoms: C_5  and  C_6 
REMARK    3  A    between atoms: C_6  and  O_8 
REMARK    4  A    between atoms: C_14  and  C_16 
REMARK    5  A    between atoms: C_16  and  O_18 
ROOT
HETATM    1  C   UNL     1       3.377  -1.205  -0.009  1.00  0.00     0.345 C 
ENDROOT
BRANCH   1   2
HETATM    2  N   UNL     1       3.063  -0.013  -0.981  1.00  0.00    -0.069 N 
HETATM    3  C   UNL     1       1.557  -0.059  -1.233  1.00  0.00     0.272 C 
HETATM    4  C   UNL     1       3.779  -0.156  -2.297  1.00  0.00     0.272 C 
HETATM    5  C   UNL     1       3.402   1.291  -0.297  1.00  0.00     0.272 C 
ENDBRANCH   1   2
BRANCH   1   6
HETATM    6  C   UNL     1       4.831  -1.336   0.445  1.00  0.00     0.166 C 
HETATM    7  O   UNL     1       5.788  -0.931  -0.192  1.00  0.00    -0.649 OA
BRANCH   6   8
HETATM    8  O   UNL     1       4.978  -1.936   1.650  1.00  0.00    -0.775 OA
HETATM    9  H   UNL     1       4.132  -2.192   2.087  1.00  0.00     0.167 HD
ENDBRANCH   6   8
ENDBRANCH   1   6
TORSDOF 5
