REMARK  2 active torsions:
REMARK  status: ('A' for Active; 'I' for Inactive)
REMARK    1  A    between atoms: N_2  and  C_5 
REMARK    2  A    between atoms: C_5  and  C_6 
ROOT
HETATM    1  C   UNL     1       1.021  -0.024   0.045  1.00  0.00     0.272 C 
HETATM    2  N   UNL     1       2.520  -0.086   0.095  1.00  0.00    -0.069 N 
HETATM    3  C   UNL     1       3.030   0.113   1.512  1.00  0.00     0.272 C 
HETATM    4  C   UNL     1       3.035  -1.409  -0.447  1.00  0.00     0.272 C 
ENDROOT
BRANCH   2   5
HETATM    5  C   UNL     1       3.112   1.075  -0.805  1.00  0.00     0.348 C 
BRANCH   5   6
HETATM    6  C   UNL     1       4.659   1.182  -0.887  1.00  0.00     0.199 C 
HETATM    7  O   UNL     1       5.179   0.461  -1.782  1.00  0.00    -0.647 OA
HETATM    8  O   UNL     1       5.178   1.874   0.031  1.00  0.00    -0.647 OA
ENDBRANCH   5   6
ENDBRANCH   2   5
TORSDOF 2
