REMARK  4 active torsions:
REMARK  status: ('A' for Active; 'I' for Inactive)
REMARK    1  A    between atoms: C_2  and  C_4 
REMARK    2  A    between atoms: C_7  and  C_31 
REMARK    3  A    between atoms: C_16  and  O_29 
REMARK    4  A    between atoms: C_31  and  O_32 
ROOT
HETATM    1  C   UNL     1       3.788   0.954   0.475  1.00  0.00     0.018 C 
HETATM    2  C   UNL     1       4.283   1.173   1.956  1.00  0.00     0.010 C 
HETATM    3  C   UNL     1       4.951  -0.150   2.471  1.00  0.00     0.012 C 
HETATM    4  C   UNL     1       4.523  -1.156   1.375  1.00  0.00    -0.014 C 
HETATM    5  C   UNL     1       4.682  -0.238   0.116  1.00  0.00     0.009 C 
HETATM    6  C   UNL     1       6.182   0.138  -0.062  1.00  0.00    -0.000 C 
HETATM    7  C   UNL     1       6.438   1.321  -0.972  1.00  0.00     0.006 C 
HETATM    8  C   UNL     1       7.645   2.009  -0.376  1.00  0.00     0.006 C 
HETATM    9  C   UNL     1       8.846   1.055  -0.430  1.00  0.00     0.003 C 
HETATM   10  C   UNL     1      10.170   1.760   0.058  1.00  0.00    -0.035 C 
HETATM   11  C   UNL     1      10.299   3.204  -0.585  1.00  0.00     0.012 C 
HETATM   12  C   UNL     1      11.716   3.751  -0.733  1.00  0.00     0.033 C 
HETATM   13  C   UNL     1      12.587   2.713  -1.438  1.00  0.00     0.126 C 
HETATM   14  C   UNL     1      12.754   1.437  -0.538  1.00  0.00    -0.017 C 
HETATM   15  C   UNL     1      11.320   0.821  -0.529  1.00  0.00     0.004 C 
HETATM   16  C   UNL     1      11.215  -0.687  -0.228  1.00  0.00     0.007 C 
HETATM   17  C   UNL     1       9.835  -1.245  -0.673  1.00  0.00     0.011 C 
HETATM   18  C   UNL     1       8.658  -0.497   0.035  1.00  0.00    -0.032 C 
HETATM   19  C   UNL     1       7.159  -1.051  -0.324  1.00  0.00    -0.032 C 
HETATM   20  C   UNL     1       6.727  -2.261   0.591  1.00  0.00     0.011 C 
HETATM   21  C   UNL     1       5.257  -2.432   0.948  1.00  0.00     0.013 C 
HETATM   22  C   UNL     1       7.051  -1.499  -1.809  1.00  0.00     0.016 C 
HETATM   23  C   UNL     1       8.932  -0.854   1.537  1.00  0.00     0.016 C 
HETATM   24  C   UNL     1      13.804   0.525  -1.207  1.00  0.00     0.018 C 
HETATM   25  C   UNL     1      13.282   1.688   0.889  1.00  0.00     0.018 C 
HETATM   26  C   UNL     1      10.050   2.073   1.579  1.00  0.00     0.016 C 
ENDROOT
BRANCH   1  27
HETATM   27  C   UNL     1       2.324   0.603   0.086  1.00  0.00    -0.089 C 
HETATM   28  C   UNL     1       1.196   1.228   0.851  1.00  0.00     0.043 C 
HETATM   29  C   UNL     1       1.985  -0.242  -0.916  1.00  0.00     0.014 C 
ENDBRANCH   1  27
BRANCH   4  30
HETATM   30  C   UNL     1       3.109  -1.591   1.884  1.00  0.00     0.173 C 
BRANCH  30  31
HETATM   31  O   UNL     1       3.197  -2.301   3.140  1.00  0.00    -0.400 OA
HETATM   32  H   UNL     1       3.756  -3.084   3.026  1.00  0.00     0.209 HD
ENDBRANCH  30  31
ENDBRANCH   4  30
BRANCH  13  33
HETATM   33  O   UNL     1      13.781   3.272  -1.908  1.00  0.00    -0.395 OA
HETATM   34  H   UNL     1      13.703   3.296  -2.883  1.00  0.00     0.210 HD
ENDBRANCH  13  33
TORSDOF 4
