REMARK  6 active torsions:
REMARK  status: ('A' for Active; 'I' for Inactive)
REMARK    1  A    between atoms: C_4  and  C_6 
REMARK    2  A    between atoms: C_6  and  C_7 
REMARK    3  A    between atoms: C_7  and  C_8 
REMARK    4  A    between atoms: C_8  and  C_9 
REMARK    5  A    between atoms: C_9  and  C_10 
REMARK    6  A    between atoms: C_10  and  O_12 
ROOT
HETATM    1  C   UNL     1      -0.932   1.499   0.184  1.00  0.00     0.101 C 
HETATM    2  C   UNL     1       0.143   0.799  -0.654  1.00  0.00     0.119 C 
HETATM    3  C   UNL     1      -0.064  -0.731  -0.622  1.00  0.00     0.123 C 
HETATM    4  C   UNL     1      -1.461  -1.080  -0.099  1.00  0.00     0.072 C 
HETATM    5  S   UNL     1      -1.776   0.215   1.143  1.00  0.00    -0.160 SA
HETATM    6  N   UNL     1       1.004  -1.193   0.245  1.00  0.00    -0.335 N 
HETATM    7  C   UNL     1       1.920  -0.200   0.499  1.00  0.00     0.316 C 
HETATM    8  O   UNL     1       2.953  -0.324   1.128  1.00  0.00    -0.247 OA
HETATM    9  N   UNL     1       1.470   0.958  -0.096  1.00  0.00    -0.336 N 
HETATM   10  H   UNL     1       1.186  -2.145   0.534  1.00  0.00     0.164 HD
HETATM   11  H   UNL     1       1.967   1.827   0.047  1.00  0.00     0.164 HD
ENDROOT
BRANCH   4  12
HETATM   12  C   UNL     1      -2.567  -1.030  -1.165  1.00  0.00     0.017 C 
BRANCH  12  13
HETATM   13  C   UNL     1      -2.376  -2.073  -2.269  1.00  0.00     0.002 C 
BRANCH  13  14
HETATM   14  C   UNL     1      -3.510  -2.018  -3.293  1.00  0.00     0.010 C 
BRANCH  14  15
HETATM   15  C   UNL     1      -3.271  -3.019  -4.423  1.00  0.00     0.110 C 
BRANCH  15  16
HETATM   16  C   UNL     1      -4.368  -2.976  -5.461  1.00  0.00     0.139 C 
HETATM   17  O   UNL     1      -5.332  -2.230  -5.437  1.00  0.00    -0.650 OA
BRANCH  16  18
HETATM   18  O   UNL     1      -4.164  -3.869  -6.455  1.00  0.00    -0.776 OA
HETATM   19  H   UNL     1      -3.353  -4.401  -6.350  1.00  0.00     0.167 HD
ENDBRANCH  16  18
ENDBRANCH  15  16
ENDBRANCH  14  15
ENDBRANCH  13  14
ENDBRANCH  12  13
ENDBRANCH   4  12
TORSDOF 6
