REMARK  20 active torsions:
REMARK  status: ('A' for Active; 'I' for Inactive)
REMARK    1  A    between atoms: C_2  and  C_3 
REMARK    2  A    between atoms: C_3  and  C_4 
REMARK    3  A    between atoms: C_4  and  C_5 
REMARK    4  A    between atoms: C_5  and  C_6 
REMARK    5  A    between atoms: C_5  and  C_8 
REMARK    6  A    between atoms: C_8  and  O_9 
REMARK    7  A    between atoms: O_9  and  C_10 
REMARK    8  A    between atoms: C_12  and  O_49 
REMARK    9  A    between atoms: C_13  and  C_16 
REMARK   10  A    between atoms: C_19  and  C_33 
REMARK   11  A    between atoms: C_22  and  C_25 
REMARK   12  A    between atoms: C_28  and  O_31 
REMARK   13  A    between atoms: C_34  and  O_48 
REMARK   14  A    between atoms: C_36  and  O_39 
REMARK   15  A    between atoms: O_39  and  C_40 
REMARK   16  A    between atoms: C_40  and  C_41 
REMARK   17  A    between atoms: C_41  and  C_42 
REMARK   18  A    between atoms: C_41  and  C_44 
REMARK   19  A    between atoms: C_44  and  C_45 
REMARK   20  A    between atoms: C_45  and  C_46 
ROOT
HETATM    1  C   UNL     1      11.260  -4.717   5.144  1.00  0.00     0.121 A 
HETATM    2  N   UNL     1      11.101  -4.245   6.377  1.00  0.00    -0.327 N 
ATOM      3  HN  UNL     1      10.259  -3.744   6.661  1.00  0.00     0.169 HD
HETATM    4  C   UNL     1      12.107  -4.467   7.217  1.00  0.00     0.121 A 
HETATM    5  N   UNL     1      13.204  -5.148   6.909  1.00  0.00    -0.327 N 
ATOM      6  HN  UNL     1      13.956  -5.303   7.580  1.00  0.00     0.169 HD
HETATM    7  C   UNL     1      13.254  -5.614   5.663  1.00  0.00     0.118 A 
HETATM    8  N   UNL     1      12.308  -5.430   4.741  1.00  0.00    -0.327 N 
ATOM      9  HN  UNL     1      12.383  -5.808   3.797  1.00  0.00     0.169 HD
ENDROOT
BRANCH   1  10
HETATM   10  C   UNL     1      10.194  -4.452   4.164  1.00  0.00     0.041 A 
HETATM   11  C   UNL     1       9.358  -3.317   4.223  1.00  0.00     0.082 A 
HETATM   12  C   UNL     1       8.334  -3.096   3.286  1.00  0.00     0.074 A 
HETATM   13  C   UNL     1       8.118  -4.025   2.269  1.00  0.00     0.071 A 
HETATM   14  C   UNL     1       8.932  -5.155   2.188  1.00  0.00     0.038 A 
HETATM   15  C   UNL     1       9.960  -5.357   3.113  1.00  0.00     0.021 A 
BRANCH  11  16
HETATM   16  O   UNL     1       9.550  -2.394   5.222  1.00  0.00    -0.360 OA
HETATM   17  H   UNL     1       8.853  -1.717   5.182  1.00  0.00     0.217 HD
ENDBRANCH  11  16
BRANCH  13  18
HETATM   18  O   UNL     1       7.104  -3.983   1.353  1.00  0.00    -0.351 OA
BRANCH  18  19
HETATM   19  C   UNL     1       6.683  -2.696   0.903  1.00  0.00     0.180 C 
BRANCH  19  20
HETATM   20  C   UNL     1       5.622  -2.913  -0.191  1.00  0.00     0.009 C 
BRANCH  20  21
HETATM   21  C   UNL     1       5.080  -1.553  -0.683  1.00  0.00     0.007 C 
BRANCH  21  22
HETATM   22  C   UNL     1       3.946  -1.700  -1.700  1.00  0.00     0.000 C 
BRANCH  22  23
HETATM   23  C   UNL     1       3.391  -0.359  -2.173  1.00  0.00    -0.005 C 
HETATM   24  C   UNL     1       2.264  -0.581  -3.172  1.00  0.00     0.005 C 
ENDBRANCH  22  23
ENDBRANCH  21  22
ENDBRANCH  20  21
BRANCH  20  25
HETATM   25  C   UNL     1       6.124  -3.849  -1.317  1.00  0.00     0.002 C 
HETATM   26  C   UNL     1       7.335  -3.344  -2.089  1.00  0.00     0.005 C 
ENDBRANCH  20  25
ENDBRANCH  19  20
ENDBRANCH  18  19
ENDBRANCH  13  18
ENDBRANCH   1  10
BRANCH   4  27
HETATM   27  C   UNL     1      11.986  -3.900   8.568  1.00  0.00     0.041 A 
HETATM   28  C   UNL     1      10.844  -3.202   9.005  1.00  0.00     0.082 A 
HETATM   29  C   UNL     1      10.740  -2.703  10.303  1.00  0.00     0.074 A 
HETATM   30  C   UNL     1      11.791  -2.872  11.198  1.00  0.00     0.071 A 
HETATM   31  C   UNL     1      12.951  -3.518  10.788  1.00  0.00     0.038 A 
HETATM   32  C   UNL     1      13.043  -4.034   9.493  1.00  0.00     0.021 A 
BRANCH  28  33
HETATM   33  O   UNL     1       9.759  -2.944   8.204  1.00  0.00    -0.360 OA
HETATM   34  H   UNL     1       9.981  -3.232   7.290  1.00  0.00     0.217 HD
ENDBRANCH  28  33
BRANCH  30  35
HETATM   35  O   UNL     1      11.800  -2.398  12.479  1.00  0.00    -0.351 OA
BRANCH  35  36
HETATM   36  C   UNL     1      10.532  -2.465  13.134  1.00  0.00     0.180 C 
BRANCH  36  37
HETATM   37  C   UNL     1      10.697  -2.016  14.595  1.00  0.00     0.009 C 
BRANCH  37  38
HETATM   38  C   UNL     1      11.337  -0.609  14.690  1.00  0.00     0.002 C 
HETATM   39  C   UNL     1      10.520   0.520  14.073  1.00  0.00     0.005 C 
ENDBRANCH  37  38
BRANCH  37  40
HETATM   40  C   UNL     1       9.361  -2.096  15.360  1.00  0.00     0.007 C 
BRANCH  40  41
HETATM   41  C   UNL     1       8.791  -3.518  15.412  1.00  0.00     0.000 C 
BRANCH  41  42
HETATM   42  C   UNL     1       7.462  -3.581  16.160  1.00  0.00    -0.005 C 
HETATM   43  C   UNL     1       6.915  -5.001  16.148  1.00  0.00     0.005 C 
ENDBRANCH  41  42
ENDBRANCH  40  41
ENDBRANCH  37  40
ENDBRANCH  36  37
ENDBRANCH  35  36
ENDBRANCH  30  35
ENDBRANCH   4  27
BRANCH   7  44
HETATM   44  C   UNL     1      14.450  -6.376   5.277  1.00  0.00     0.008 A 
HETATM   45  C   UNL     1      15.505  -6.579   6.186  1.00  0.00     0.018 A 
HETATM   46  C   UNL     1      16.649  -7.302   5.831  1.00  0.00     0.037 A 
HETATM   47  C   UNL     1      16.765  -7.840   4.552  1.00  0.00     0.068 A 
HETATM   48  C   UNL     1      15.731  -7.646   3.636  1.00  0.00     0.037 A 
HETATM   49  C   UNL     1      14.591  -6.926   3.991  1.00  0.00     0.018 A 
BRANCH  47  50
HETATM   50  O   UNL     1      17.822  -8.567   4.083  1.00  0.00    -0.356 OA
HETATM   51  C   UNL     1      18.889  -8.788   4.997  1.00  0.00     0.210 C 
ENDBRANCH  47  50
ENDBRANCH   7  44
TORSDOF 20
