REMARK  16 active torsions:
REMARK  status: ('A' for Active; 'I' for Inactive)
REMARK    1  A    between atoms: C_1  and  C_2 
REMARK    2  A    between atoms: C_1  and  O_22 
REMARK    3  A    between atoms: C_2  and  C_3 
REMARK    4  A    between atoms: C_2  and  O_21 
REMARK    5  A    between atoms: C_3  and  O_4 
REMARK    6  A    between atoms: O_4  and  C_5 
REMARK    7  A    between atoms: C_6  and  O_15 
REMARK    8  A    between atoms: C_10  and  C_11 
REMARK    9  A    between atoms: C_11  and  C_12 
REMARK   10  A    between atoms: C_11  and  O_14 
REMARK   11  A    between atoms: C_12  and  O_13 
REMARK   12  A    between atoms: O_15  and  C_16 
REMARK   13  A    between atoms: C_16  and  C_17 
REMARK   14  A    between atoms: C_17  and  C_18 
REMARK   15  A    between atoms: C_17  and  O_20 
REMARK   16  A    between atoms: C_18  and  O_19 
ROOT
HETATM    1  C   UNL     1       3.160   3.526   0.387  1.00  0.00     0.118 C 
HETATM    2  C   UNL     1       4.239   3.489  -0.404  1.00  0.00     0.176 C 
HETATM    3  C   UNL     1       4.718   4.882  -0.514  1.00  0.00     0.320 C 
HETATM    4  O   UNL     1       5.666   5.286  -1.160  1.00  0.00    -0.257 OA
HETATM    5  O   UNL     1       3.937   5.687   0.264  1.00  0.00    -0.301 OA
HETATM    6  C   UNL     1       2.845   4.923   0.795  1.00  0.00     0.222 C 
ENDROOT
BRANCH   1   7
HETATM    7  O   UNL     1       2.472   2.412   0.824  1.00  0.00    -0.347 OA
BRANCH   7   8
HETATM    8  C   UNL     1       1.966   2.514   2.163  1.00  0.00     0.209 C 
BRANCH   8   9
HETATM    9  C   UNL     1       1.527   1.148   2.719  1.00  0.00     0.165 C 
BRANCH   9  10
HETATM   10  C   UNL     1       2.686   0.192   3.018  1.00  0.00     0.198 C 
BRANCH  10  11
HETATM   11  O   UNL     1       3.374  -0.193   1.833  1.00  0.00    -0.398 OA
HETATM   12  H   UNL     1       2.737  -0.707   1.304  1.00  0.00     0.209 HD
ENDBRANCH  10  11
ENDBRANCH   9  10
BRANCH   9  13
HETATM   13  O   UNL     1       0.611   0.517   1.818  1.00  0.00    -0.391 OA
HETATM   14  H   UNL     1       0.946   0.693   0.917  1.00  0.00     0.210 HD
ENDBRANCH   9  13
ENDBRANCH   8   9
ENDBRANCH   7   8
ENDBRANCH   1   7
BRANCH   2  15
HETATM   15  O   UNL     1       4.796   2.361  -0.954  1.00  0.00    -0.341 OA
BRANCH  15  16
HETATM   16  C   UNL     1       6.199   2.466  -1.244  1.00  0.00     0.209 C 
BRANCH  16  17
HETATM   17  C   UNL     1       6.719   1.112  -1.739  1.00  0.00     0.166 C 
BRANCH  17  18
HETATM   18  C   UNL     1       6.478  -0.019  -0.735  1.00  0.00     0.198 C 
BRANCH  18  19
HETATM   19  O   UNL     1       6.991  -1.241  -1.269  1.00  0.00    -0.398 OA
HETATM   20  H   UNL     1       6.695  -1.264  -2.201  1.00  0.00     0.209 HD
ENDBRANCH  18  19
ENDBRANCH  17  18
BRANCH  17  21
HETATM   21  O   UNL     1       6.071   0.754  -2.973  1.00  0.00    -0.391 OA
HETATM   22  H   UNL     1       5.117   0.916  -2.843  1.00  0.00     0.210 HD
ENDBRANCH  17  21
ENDBRANCH  16  17
ENDBRANCH  15  16
ENDBRANCH   2  15
BRANCH   6  23
HETATM   23  C   UNL     1       1.537   5.522   0.237  1.00  0.00     0.177 C 
BRANCH  23  24
HETATM   24  C   UNL     1       1.330   6.953   0.755  1.00  0.00     0.198 C 
BRANCH  24  25
HETATM   25  O   UNL     1       0.088   7.466   0.278  1.00  0.00    -0.398 OA
HETATM   26  H   UNL     1       0.022   7.202  -0.661  1.00  0.00     0.209 HD
ENDBRANCH  24  25
ENDBRANCH  23  24
BRANCH  23  27
HETATM   27  O   UNL     1       1.552   5.583  -1.203  1.00  0.00    -0.390 OA
HETATM   28  H   UNL     1       2.298   6.155  -1.468  1.00  0.00     0.210 HD
ENDBRANCH  23  27
ENDBRANCH   6  23
TORSDOF 16
