REMARK  5 active torsions:
REMARK  status: ('A' for Active; 'I' for Inactive)
REMARK    1  A    between atoms: C_5  and  C_8 
REMARK    2  A    between atoms: C_8  and  C_10 
REMARK    3  A    between atoms: C_8  and  O_16 
REMARK    4  A    between atoms: C_10  and  C_11 
REMARK    5  A    between atoms: C_11  and  C_12 
ROOT
HETATM    1  C   UNL     1      -3.254  -0.121  -0.082  1.00  0.00     0.058 C 
HETATM    2  C   UNL     1      -3.545  -0.054  -1.591  1.00  0.00     0.046 C 
ENDROOT
BRANCH   1   3
HETATM    3  C   UNL     1      -1.717  -0.067   0.235  1.00  0.00     0.023 C 
HETATM    4  C   UNL     1      -1.049   1.264  -0.191  1.00  0.00     0.035 C 
HETATM    5  C   UNL     1       0.454   1.250  -0.124  1.00  0.00    -0.024 C 
HETATM    6  C   UNL     1       1.187   0.136   0.038  1.00  0.00    -0.087 C 
HETATM    7  C   UNL     1       2.687   0.169   0.109  1.00  0.00     0.043 C 
HETATM    8  C   UNL     1       0.545  -1.222   0.151  1.00  0.00     0.034 C 
HETATM    9  C   UNL     1      -0.911  -1.250  -0.335  1.00  0.00     0.012 C 
ENDBRANCH   1   3
BRANCH   1  10
HETATM   10  C   UNL     1      -3.969  -1.370   0.515  1.00  0.00     0.041 C 
BRANCH  10  11
HETATM   11  C   UNL     1      -3.947  -1.395   2.049  1.00  0.00     0.030 C 
BRANCH  11  12
HETATM   12  C   UNL     1      -4.570  -2.604   2.695  1.00  0.00    -0.025 C 
HETATM   13  C   UNL     1      -3.949  -3.769   2.967  1.00  0.00    -0.091 C 
HETATM   14  C   UNL     1      -2.576  -4.134   2.475  1.00  0.00     0.042 C 
HETATM   15  C   UNL     1      -4.589  -4.806   3.851  1.00  0.00     0.042 C 
ENDBRANCH  11  12
ENDBRANCH  10  11
ENDBRANCH   1  10
BRANCH   1  16
HETATM   16  O   UNL     1      -3.882   1.021   0.515  1.00  0.00    -0.390 OA
HETATM   17  H   UNL     1      -3.643   1.814   0.007  1.00  0.00     0.210 HD
ENDBRANCH   1  16
TORSDOF 5
