REMARK  1 active torsions:
REMARK  status: ('A' for Active; 'I' for Inactive)
REMARK    1  A    between atoms: C_7  and  O_9 
ROOT
HETATM    1  C   UNL     1       0.966  -0.084   0.083  1.00  0.00     0.016 C 
HETATM    2  C   UNL     1       2.512  -0.075   0.105  1.00  0.00    -0.034 C 
HETATM    3  C   UNL     1       3.172  -1.166  -0.775  1.00  0.00    -0.004 C 
HETATM    4  C   UNL     1       2.696  -0.808  -2.201  1.00  0.00     0.006 C 
HETATM    5  C   UNL     1       2.675   0.732  -2.179  1.00  0.00     0.013 C 
HETATM    6  C   UNL     1       3.169   1.067  -0.739  1.00  0.00    -0.011 C 
HETATM    7  C   UNL     1       4.690   0.716  -0.752  1.00  0.00     0.127 C 
HETATM    8  C   UNL     1       4.683  -0.822  -0.708  1.00  0.00     0.038 C 
HETATM    9  C   UNL     1       2.850   2.490  -0.322  1.00  0.00     0.018 C 
HETATM   10  C   UNL     1       2.902  -0.159   1.593  1.00  0.00     0.016 C 
ENDROOT
BRANCH   7  11
HETATM   11  O   UNL     1       5.447   1.275   0.306  1.00  0.00    -0.395 OA
HETATM   12  H   UNL     1       4.946   1.215   1.134  1.00  0.00     0.210 HD
ENDBRANCH   7  11
TORSDOF 1
