REMARK  4 active torsions:
REMARK  status: ('A' for Active; 'I' for Inactive)
REMARK    1  A    between atoms: C_2  and  C_3 
REMARK    2  A    between atoms: C_2  and  O_6 
REMARK    3  A    between atoms: C_3  and  C_4 
REMARK    4  A    between atoms: C_4  and  O_5 
ROOT
HETATM    1  C   UNL     1       0.914   0.047   0.049  1.00  0.00     0.039 C 
HETATM    2  C   UNL     1       2.435  -0.040   0.061  1.00  0.00     0.116 C 
ENDROOT
BRANCH   2   3
HETATM    3  C   UNL     1       2.926  -1.460  -0.216  1.00  0.00     0.057 C 
BRANCH   3   4
HETATM    4  C   UNL     1       4.448  -1.556  -0.197  1.00  0.00     0.166 C 
BRANCH   4   5
HETATM    5  O   UNL     1       4.843  -2.896  -0.468  1.00  0.00    -0.401 OA
HETATM    6  H   UNL     1       4.537  -3.447   0.273  1.00  0.00     0.209 HD
ENDBRANCH   4   5
ENDBRANCH   3   4
ENDBRANCH   2   3
BRANCH   2   7
HETATM    7  O   UNL     1       2.949   0.856  -0.920  1.00  0.00    -0.396 OA
HETATM    8  H   UNL     1       2.610   0.578  -1.789  1.00  0.00     0.210 HD
ENDBRANCH   2   7
TORSDOF 4
