REMARK  4 active torsions:
REMARK  status: ('A' for Active; 'I' for Inactive)
REMARK    1  A    between atoms: C_2  and  C_3 
REMARK    2  A    between atoms: C_3  and  C_4 
REMARK    3  A    between atoms: C_4  and  O_5 
REMARK    4  A    between atoms: O_5  and  C_6 
ROOT
HETATM    1  C   UNL     1       4.589   0.233   1.559  1.00  0.00     0.178 C 
ENDROOT
BRANCH   1   2
HETATM    2  C   UNL     1       3.064   0.235   1.525  1.00  0.00     0.026 C 
BRANCH   2   3
HETATM    3  C   UNL     1       2.527   0.054   0.108  1.00  0.00    -0.002 C 
HETATM    4  C   UNL     1       1.007   0.049   0.089  1.00  0.00     0.005 C 
ENDBRANCH   2   3
ENDBRANCH   1   2
BRANCH   1   5
HETATM    5  O   UNL     1       5.052   0.403   2.913  1.00  0.00    -0.322 OA
BRANCH   5   6
HETATM    6  C   UNL     1       5.024  -0.738   3.650  1.00  0.00     0.254 C 
HETATM    7  O   UNL     1       4.648  -1.835   3.238  1.00  0.00    -0.266 OA
HETATM    8  C   UNL     1       5.501  -0.526   5.053  1.00  0.00     0.126 C 
ENDBRANCH   5   6
ENDBRANCH   1   5
TORSDOF 4
