REMARK  20 active torsions:
REMARK  status: ('A' for Active; 'I' for Inactive)
REMARK    1  A    between atoms: C_1  and  C_2 
REMARK    2  A    between atoms: C_1  and  O_13 
REMARK    3  A    between atoms: C_2  and  C_3 
REMARK    4  A    between atoms: C_2  and  O_12 
REMARK    5  A    between atoms: C_3  and  C_4 
REMARK    6  A    between atoms: C_3  and  O_11 
REMARK    7  A    between atoms: C_4  and  C_5 
REMARK    8  A    between atoms: C_4  and  O_10 
REMARK    9  A    between atoms: C_5  and  C_6 
REMARK   10  A    between atoms: C_5  and  O_9 
REMARK   11  A    between atoms: C_19  and  C_20 
REMARK   12  A    between atoms: C_19  and  O_31 
REMARK   13  A    between atoms: C_20  and  C_21 
REMARK   14  A    between atoms: C_20  and  O_30 
REMARK   15  A    between atoms: C_21  and  C_22 
REMARK   16  A    between atoms: C_21  and  O_29 
REMARK   17  A    between atoms: C_22  and  C_23 
REMARK   18  A    between atoms: C_22  and  O_28 
REMARK   19  A    between atoms: C_23  and  C_24 
REMARK   20  A    between atoms: C_23  and  O_27 
ROOT
HETATM    1 CA   UNL     3       2.559   1.731  -0.085  1.00  0.00     0.000 Ca
ENDROOT
TORSDOF 20
