REMARK  17 active torsions:
REMARK  status: ('A' for Active; 'I' for Inactive)
REMARK    1  A    between atoms: C_2  and  C_4 
REMARK    2  A    between atoms: C_2  and  C_6 
REMARK    3  A    between atoms: C_4  and  O_5 
REMARK    4  A    between atoms: C_6  and  C_7 
REMARK    5  A    between atoms: C_6  and  O_15 
REMARK       I    between atoms: C_7  and  N_9 
REMARK    6  A    between atoms: N_9  and  C_10 
REMARK    7  A    between atoms: C_10  and  C_11 
REMARK    8  A    between atoms: C_11  and  C_12 
REMARK    9  A    between atoms: C_20  and  C_22 
REMARK   10  A    between atoms: C_20  and  C_24 
REMARK   11  A    between atoms: C_22  and  O_23 
REMARK   12  A    between atoms: C_24  and  C_25 
REMARK   13  A    between atoms: C_24  and  O_33 
REMARK       I    between atoms: C_25  and  N_27 
REMARK   14  A    between atoms: N_27  and  C_28 
REMARK   15  A    between atoms: C_28  and  C_29 
REMARK   16  A    between atoms: C_29  and  C_30 
REMARK   17  A    between atoms: C_30  and  O_32 
ROOT
HETATM    1  C   UNL     1       4.679  -1.148   0.531  1.00  0.00     0.219 C 
ENDROOT
BRANCH   1   2
HETATM    2  C   UNL     1       4.480  -0.595   1.992  1.00  0.00     0.008 C 
HETATM    3  C   UNL     1       3.334   0.443   2.135  1.00  0.00     0.020 C 
HETATM    4  C   UNL     1       5.791   0.132   2.403  1.00  0.00     0.020 C 
BRANCH   2   5
HETATM    5  C   UNL     1       4.276  -1.765   2.982  1.00  0.00     0.175 C 
BRANCH   5   6
HETATM    6  O   UNL     1       2.945  -2.271   2.931  1.00  0.00    -0.400 OA
HETATM    7  H   UNL     1       2.962  -3.138   2.472  1.00  0.00     0.209 HD
ENDBRANCH   5   6
ENDBRANCH   2   5
ENDBRANCH   1   2
BRANCH   1   8
HETATM    8  C   UNL     1       3.500  -1.927  -0.147  1.00  0.00     0.247 C 
HETATM    9  O   UNL     1       2.439  -1.352  -0.416  1.00  0.00    -0.271 OA
HETATM   10  N   UNL     1       3.714  -3.207  -0.619  1.00  0.00    -0.358 N 
HETATM   11  H   UNL     1       2.875  -3.693  -0.927  1.00  0.00     0.162 HD
BRANCH  10  12
HETATM   12  C   UNL     1       4.905  -4.065  -0.559  1.00  0.00     0.133 C 
BRANCH  12  13
HETATM   13  C   UNL     1       4.689  -5.547  -0.756  1.00  0.00     0.133 C 
BRANCH  13  14
HETATM   14  C   UNL     1       3.671  -6.191   0.167  1.00  0.00     0.174 C 
HETATM   15  O   UNL     1       2.588  -5.559   0.258  1.00  0.00    -0.648 OA
HETATM   16  O   UNL     1       4.039  -7.269   0.746  1.00  0.00    -0.648 OA
ENDBRANCH  13  14
ENDBRANCH  12  13
ENDBRANCH  10  12
ENDBRANCH   1   8
BRANCH   1  17
HETATM   17  O   UNL     1       4.992  -0.030  -0.328  1.00  0.00    -0.385 OA
HETATM   18  H   UNL     1       4.834  -0.322  -1.243  1.00  0.00     0.210 HD
ENDBRANCH   1  17
TORSDOF 17
