REMARK  5 active torsions:
REMARK  status: ('A' for Active; 'I' for Inactive)
REMARK    1  A    between atoms: C_1  and  C_2 
REMARK    2  A    between atoms: C_1  and  S_5 
REMARK    3  A    between atoms: C_7  and  C_8 
REMARK    4  A    between atoms: C_7  and  S_11 
REMARK    5  A    between atoms: C_8  and  O_10 
ROOT
HETATM    1  C   UNL     1      -0.320  -1.561  -0.265  1.00  0.00     0.183 C 
ENDROOT
BRANCH   1   2
HETATM    2  C   UNL     1      -0.222  -1.610   1.271  1.00  0.00     0.182 C 
HETATM    3  O   UNL     1       0.942  -1.487   1.761  1.00  0.00    -0.647 OA
HETATM    4  O   UNL     1      -1.337  -1.666   1.857  1.00  0.00    -0.647 OA
ENDBRANCH   1   2
BRANCH   1   5
HETATM    5  S   UNL     1       1.115  -2.421  -0.981  1.00  0.00    -0.172 SA
HETATM    6  H   UNL     1       1.871  -2.291   0.132  1.00  0.00     0.102 HD
ENDBRANCH   1   5
TORSDOF 5
