REMARK  8 active torsions:
REMARK  status: ('A' for Active; 'I' for Inactive)
REMARK    1  A    between atoms: C_2  and  C_3 
REMARK    2  A    between atoms: C_3  and  C_4 
REMARK    3  A    between atoms: C_4  and  C_5 
REMARK    4  A    between atoms: C_5  and  C_6 
REMARK    5  A    between atoms: C_8  and  O_23 
REMARK    6  A    between atoms: C_9  and  C_13 
REMARK    7  A    between atoms: C_10  and  O_12 
REMARK    8  A    between atoms: C_18  and  C_19 
ROOT
HETATM    1  C   UNL     1       6.401   1.031  -2.770  1.00  0.00    -0.053 A 
HETATM    2  C   UNL     1       7.140   0.010  -3.366  1.00  0.00     0.044 A 
HETATM    3  C   UNL     1       8.532   0.028  -3.327  1.00  0.00     0.075 A 
HETATM    4  C   UNL     1       9.248   1.059  -2.692  1.00  0.00     0.017 A 
HETATM    5  C   UNL     1       8.480   2.074  -2.091  1.00  0.00     0.075 A 
HETATM    6  C   UNL     1       7.084   2.072  -2.142  1.00  0.00     0.044 A 
ENDROOT
BRANCH   4   7
HETATM    7  C   UNL     1      10.778   1.120  -2.719  1.00  0.00     0.055 C 
HETATM    8  C   UNL     1      11.268   1.175  -4.148  1.00  0.00    -0.014 C 
HETATM    9  C   UNL     1      11.948   0.186  -4.749  1.00  0.00    -0.087 C 
HETATM   10  C   UNL     1      12.350  -1.076  -4.029  1.00  0.00     0.034 C 
HETATM   11  C   UNL     1      12.279   0.252  -6.212  1.00  0.00     0.043 C 
HETATM   12  C   UNL     1      11.789  -1.267  -2.612  1.00  0.00     0.014 C 
HETATM   13  C   UNL     1      11.529   0.053  -1.857  1.00  0.00     0.026 C 
BRANCH  13  14
HETATM   14  C   UNL     1      10.940  -0.122  -0.451  1.00  0.00    -0.088 C 
HETATM   15  C   UNL     1      10.112  -1.118  -0.088  1.00  0.00     0.014 C 
HETATM   16  C   UNL     1      11.322   0.913   0.578  1.00  0.00     0.043 C 
ENDBRANCH  13  14
ENDBRANCH   4   7
BRANCH   3  17
HETATM   17  O   UNL     1       9.186  -0.995  -3.951  1.00  0.00    -0.360 OA
HETATM   18  H   UNL     1       8.546  -1.655  -4.257  1.00  0.00     0.217 HD
ENDBRANCH   3  17
BRANCH   5  19
HETATM   19  O   UNL     1       9.028   3.131  -1.415  1.00  0.00    -0.360 OA
HETATM   20  H   UNL     1       9.829   2.816  -0.969  1.00  0.00     0.217 HD
ENDBRANCH   5  19
BRANCH   1  21
HETATM   21  C   UNL     1       4.899   0.975  -2.789  1.00  0.00     0.039 C 
BRANCH  21  22
HETATM   22  C   UNL     1       4.392  -0.217  -1.975  1.00  0.00     0.005 C 
BRANCH  22  23
HETATM   23  C   UNL     1       2.869  -0.277  -1.969  1.00  0.00    -0.000 C 
BRANCH  23  24
HETATM   24  C   UNL     1       2.380  -1.478  -1.162  1.00  0.00    -0.005 C 
HETATM   25  C   UNL     1       0.864  -1.542  -1.143  1.00  0.00     0.005 C 
ENDBRANCH  23  24
ENDBRANCH  22  23
ENDBRANCH  21  22
ENDBRANCH   1  21
TORSDOF 8
