REMARK  7 active torsions:
REMARK  status: ('A' for Active; 'I' for Inactive)
REMARK    1  A    between atoms: C_2  and  C_3 
REMARK    2  A    between atoms: C_3  and  C_4 
REMARK    3  A    between atoms: C_4  and  C_5 
REMARK    4  A    between atoms: C_5  and  C_6 
REMARK    5  A    between atoms: C_6  and  C_7 
REMARK    6  A    between atoms: C_7  and  C_8 
REMARK       I    between atoms: C_8  and  N_10 
REMARK    7  A    between atoms: N_10  and  O_11 
ROOT
HETATM    1  C   UNL     1       7.101  -2.484   3.592  1.00  0.00     0.105 C 
ENDROOT
BRANCH   1   2
HETATM    2  C   UNL     1       6.538  -1.693   2.414  1.00  0.00     0.009 C 
BRANCH   2   3
HETATM    3  C   UNL     1       5.013  -1.688   2.407  1.00  0.00     0.000 C 
BRANCH   3   4
HETATM    4  C   UNL     1       4.490  -0.887   1.217  1.00  0.00     0.000 C 
BRANCH   4   5
HETATM    5  C   UNL     1       2.965  -0.874   1.201  1.00  0.00    -0.000 C 
BRANCH   5   6
HETATM    6  C   UNL     1       2.437  -0.076   0.013  1.00  0.00    -0.005 C 
HETATM    7  C   UNL     1       0.919  -0.066   0.005  1.00  0.00     0.005 C 
ENDBRANCH   5   6
ENDBRANCH   4   5
ENDBRANCH   3   4
ENDBRANCH   2   3
ENDBRANCH   1   2
BRANCH   1   8
HETATM    8  C   UNL     1       8.614  -2.475   3.579  1.00  0.00     0.240 C 
HETATM    9  O   UNL     1       9.294  -1.906   2.732  1.00  0.00    -0.271 OA
HETATM   10  N   UNL     1       9.187  -3.169   4.609  1.00  0.00    -0.237 N 
HETATM   11  H   UNL     1       8.693  -3.662   5.343  1.00  0.00     0.197 HD
BRANCH  10  12
HETATM   12  O   UNL     1      10.600  -3.191   4.642  1.00  0.00    -0.287 OA
HETATM   13  H   UNL     1      10.835  -2.660   3.848  1.00  0.00     0.244 HD
ENDBRANCH  10  12
ENDBRANCH   1   8
TORSDOF 7
