REMARK  10 active torsions:
REMARK  status: ('A' for Active; 'I' for Inactive)
REMARK    1  A    between atoms: C_2  and  C_3 
REMARK    2  A    between atoms: C_3  and  C_4 
REMARK    3  A    between atoms: C_4  and  C_5 
REMARK    4  A    between atoms: C_5  and  C_6 
REMARK    5  A    between atoms: C_6  and  C_7 
REMARK    6  A    between atoms: C_7  and  C_8 
REMARK    7  A    between atoms: C_8  and  C_10 
REMARK    8  A    between atoms: C_12  and  C_17 
REMARK    9  A    between atoms: C_13  and  O_16 
REMARK   10  A    between atoms: C_17  and  O_19 
ROOT
HETATM    1  C   UNL     1       9.292  -0.241  -5.635  1.00  0.00     0.011 A 
HETATM    2  C   UNL     1       8.571  -0.264  -6.834  1.00  0.00     0.036 A 
HETATM    3  C   UNL     1       9.241  -0.324  -8.064  1.00  0.00     0.071 A 
HETATM    4  C   UNL     1      10.639  -0.359  -8.073  1.00  0.00     0.082 A 
HETATM    5  C   UNL     1      11.367  -0.337  -6.882  1.00  0.00     0.038 A 
HETATM    6  C   UNL     1      10.692  -0.270  -5.662  1.00  0.00     0.018 A 
ENDROOT
BRANCH   1   7
HETATM    7  C   UNL     1       8.603  -0.185  -4.316  1.00  0.00     0.159 C 
HETATM    8  O   UNL     1       9.285  -0.211  -3.293  1.00  0.00    -0.292 OA
BRANCH   7   9
HETATM    9  C   UNL     1       7.084  -0.128  -4.299  1.00  0.00     0.084 C 
BRANCH   9  10
HETATM   10  C   UNL     1       6.536  -0.129  -2.875  1.00  0.00     0.008 C 
BRANCH  10  11
HETATM   11  C   UNL     1       5.009  -0.079  -2.857  1.00  0.00     0.000 C 
BRANCH  11  12
HETATM   12  C   UNL     1       4.478  -0.081  -1.423  1.00  0.00     0.000 C 
BRANCH  12  13
HETATM   13  C   UNL     1       2.950  -0.034  -1.395  1.00  0.00    -0.000 C 
BRANCH  13  14
HETATM   14  C   UNL     1       2.419  -0.036   0.038  1.00  0.00    -0.005 C 
HETATM   15  C   UNL     1       0.899   0.009   0.063  1.00  0.00     0.005 C 
ENDBRANCH  13  14
ENDBRANCH  12  13
ENDBRANCH  11  12
ENDBRANCH  10  11
ENDBRANCH   9  10
ENDBRANCH   7   9
ENDBRANCH   1   7
BRANCH   3  16
HETATM   16  C   UNL     1       8.402  -0.264  -9.294  1.00  0.00     0.179 C 
HETATM   17  O   UNL     1       7.336   0.309  -9.317  1.00  0.00    -0.646 OA
BRANCH  16  18
HETATM   18  O   UNL     1       8.911  -0.904 -10.368  1.00  0.00    -0.773 OA
HETATM   19  H   UNL     1       9.663  -1.498 -10.159  1.00  0.00     0.167 HD
ENDBRANCH  16  18
ENDBRANCH   3  16
BRANCH   4  20
HETATM   20  O   UNL     1      11.341  -0.416  -9.244  1.00  0.00    -0.360 OA
HETATM   21  H   UNL     1      11.412   0.503  -9.572  1.00  0.00     0.217 HD
ENDBRANCH   4  20
TORSDOF 10
