REMARK  8 active torsions:
REMARK  status: ('A' for Active; 'I' for Inactive)
REMARK    1  A    between atoms: C_2  and  C_3 
REMARK    2  A    between atoms: C_3  and  C_4 
REMARK    3  A    between atoms: C_4  and  C_5 
REMARK    4  A    between atoms: C_5  and  C_6 
REMARK    5  A    between atoms: C_6  and  C_7 
REMARK    6  A    between atoms: C_7  and  C_8 
REMARK    7  A    between atoms: C_7  and  O_10 
REMARK    8  A    between atoms: C_8  and  O_9 
ROOT
HETATM    1  C   UNL     1       6.553   2.411   1.445  1.00  0.00     0.034 C 
ENDROOT
BRANCH   1   2
HETATM    2  C   UNL     1       5.028   2.356   1.354  1.00  0.00     0.002 C 
BRANCH   2   3
HETATM    3  C   UNL     1       4.528   1.145   0.563  1.00  0.00     0.000 C 
BRANCH   3   4
HETATM    4  C   UNL     1       2.999   1.147   0.511  1.00  0.00    -0.000 C 
BRANCH   4   5
HETATM    5  C   UNL     1       2.444  -0.051  -0.256  1.00  0.00    -0.005 C 
HETATM    6  C   UNL     1       0.923  -0.015  -0.290  1.00  0.00     0.005 C 
ENDBRANCH   4   5
ENDBRANCH   3   4
ENDBRANCH   2   3
ENDBRANCH   1   2
BRANCH   1   7
HETATM    7  C   UNL     1       7.067   3.631   2.224  1.00  0.00     0.141 C 
BRANCH   7   8
HETATM    8  C   UNL     1       6.582   3.681   3.679  1.00  0.00     0.195 C 
BRANCH   8   9
HETATM    9  O   UNL     1       7.109   4.827   4.345  1.00  0.00    -0.398 OA
HETATM   10  H   UNL     1       8.053   4.872   4.105  1.00  0.00     0.209 HD
ENDBRANCH   8   9
ENDBRANCH   7   8
BRANCH   7  11
HETATM   11  O   UNL     1       8.502   3.610   2.232  1.00  0.00    -0.393 OA
HETATM   12  H   UNL     1       8.789   2.747   2.579  1.00  0.00     0.210 HD
ENDBRANCH   7  11
ENDBRANCH   1   7
TORSDOF 8
