REMARK  11 active torsions:
REMARK  status: ('A' for Active; 'I' for Inactive)
REMARK    1  A    between atoms: C_2  and  C_3 
REMARK    2  A    between atoms: C_3  and  C_4 
REMARK    3  A    between atoms: C_4  and  C_5 
REMARK    4  A    between atoms: C_5  and  C_6 
REMARK    5  A    between atoms: C_6  and  C_7 
REMARK    6  A    between atoms: C_7  and  C_8 
REMARK    7  A    between atoms: C_8  and  SI_9 
REMARK    8  A    between atoms: SI_9  and  O_11 
REMARK    9  A    between atoms: SI_9  and  O_16 
REMARK   10  A    between atoms: O_11  and  SI_12 
REMARK   11  A    between atoms: O_16  and  SI_17 
ROOT
HETATM    1 SI   UNL     1       9.196   0.889   6.038  1.00  0.00     0.000 Si
HETATM    2  C   UNL     1       8.565   2.587   6.577  1.00  0.00    -0.000 C 
ENDROOT
BRANCH   1   3
HETATM    3  C   UNL     1       8.805   0.758   4.127  1.00  0.00     0.000 C 
BRANCH   3   4
HETATM    4  C   UNL     1       7.298   0.914   3.900  1.00  0.00     0.000 C 
BRANCH   4   5
HETATM    5  C   UNL     1       6.832   0.876   2.449  1.00  0.00     0.000 C 
BRANCH   5   6
HETATM    6  C   UNL     1       5.316   1.109   2.460  1.00  0.00     0.000 C 
BRANCH   6   7
HETATM    7  C   UNL     1       4.679   1.088   1.079  1.00  0.00     0.000 C 
BRANCH   7   8
HETATM    8  C   UNL     1       3.169   1.333   1.200  1.00  0.00    -0.000 C 
BRANCH   8   9
HETATM    9  C   UNL     1       2.491   1.312  -0.168  1.00  0.00    -0.005 C 
HETATM   10  C   UNL     1       0.993   1.541  -0.048  1.00  0.00     0.005 C 
ENDBRANCH   8   9
ENDBRANCH   7   8
ENDBRANCH   6   7
ENDBRANCH   5   6
ENDBRANCH   4   5
ENDBRANCH   3   4
ENDBRANCH   1   3
BRANCH   1  11
HETATM   11  O   UNL     1       8.369  -0.318   6.845  1.00  0.00     0.000 OA
BRANCH  11  12
HETATM   12 SI   UNL     1       8.190  -1.979   6.912  1.00  0.00     0.000 Si
HETATM   13  C   UNL     1       9.807  -2.799   7.395  1.00  0.00    -0.000 C 
HETATM   14  C   UNL     1       6.882  -2.462   8.193  1.00  0.00    -0.000 C 
HETATM   15  C   UNL     1       7.604  -2.710   5.276  1.00  0.00    -0.000 C 
ENDBRANCH  11  12
ENDBRANCH   1  11
BRANCH   1  16
HETATM   16  O   UNL     1      10.833   0.763   6.352  1.00  0.00     0.000 OA
BRANCH  16  17
HETATM   17 SI   UNL     1      12.254   1.595   6.038  1.00  0.00     0.000 Si
HETATM   18  C   UNL     1      13.715   0.820   6.933  1.00  0.00    -0.000 C 
HETATM   19  C   UNL     1      12.597   1.576   4.190  1.00  0.00    -0.000 C 
HETATM   20  C   UNL     1      12.166   3.391   6.605  1.00  0.00    -0.000 C 
ENDBRANCH  16  17
ENDBRANCH   1  16
TORSDOF 11
