REMARK  7 active torsions:
REMARK  status: ('A' for Active; 'I' for Inactive)
REMARK    1  A    between atoms: C_2  and  C_3 
REMARK    2  A    between atoms: C_3  and  C_4 
REMARK    3  A    between atoms: C_4  and  C_5 
REMARK    4  A    between atoms: C_5  and  C_6 
REMARK    5  A    between atoms: C_6  and  C_7 
REMARK    6  A    between atoms: C_7  and  C_8 
REMARK    7  A    between atoms: C_8  and  O_10 
ROOT
HETATM    1  C   UNL     1       6.554   2.050   2.143  1.00  0.00     0.010 C 
ENDROOT
BRANCH   1   2
HETATM    2  C   UNL     1       5.026   2.050   2.143  1.00  0.00     0.001 C 
BRANCH   2   3
HETATM    3  C   UNL     1       4.484   1.062   1.110  1.00  0.00     0.000 C 
BRANCH   3   4
HETATM    4  C   UNL     1       2.956   1.046   1.094  1.00  0.00    -0.000 C 
BRANCH   4   5
HETATM    5  C   UNL     1       2.424   0.054   0.059  1.00  0.00    -0.005 C 
HETATM    6  C   UNL     1       0.904   0.037   0.038  1.00  0.00     0.005 C 
ENDBRANCH   4   5
ENDBRANCH   3   4
ENDBRANCH   2   3
ENDBRANCH   1   2
BRANCH   1   7
HETATM    7  C   UNL     1       7.127   3.029   3.166  1.00  0.00     0.110 C 
BRANCH   7   8
HETATM    8  C   UNL     1       8.639   3.019   3.154  1.00  0.00     0.139 C 
HETATM    9  O   UNL     1       9.337   2.327   2.431  1.00  0.00    -0.650 OA
BRANCH   8  10
HETATM   10  O   UNL     1       9.166   3.881   4.055  1.00  0.00    -0.776 OA
HETATM   11  H   UNL     1       8.496   4.371   4.567  1.00  0.00     0.167 HD
ENDBRANCH   8  10
ENDBRANCH   7   8
ENDBRANCH   1   7
TORSDOF 7
