REMARK  10 active torsions:
REMARK  status: ('A' for Active; 'I' for Inactive)
REMARK    1  A    between atoms: C_2  and  C_4 
REMARK    2  A    between atoms: C_5  and  C_6 
REMARK    3  A    between atoms: C_6  and  C_7 
REMARK    4  A    between atoms: C_7  and  C_8 
REMARK    5  A    between atoms: C_8  and  C_9 
REMARK    6  A    between atoms: C_9  and  C_10 
REMARK       I    between atoms: C_10  and  N_12 
REMARK    7  A    between atoms: N_12  and  C_13 
REMARK    8  A    between atoms: C_13  and  C_14 
REMARK    9  A    between atoms: C_16  and  O_21 
REMARK   10  A    between atoms: C_17  and  O_20 
ROOT
HETATM    1  C   UNL     1       8.943   3.778  -4.732  1.00  0.00     0.217 C 
HETATM    2  O   UNL     1       8.300   4.764  -5.087  1.00  0.00    -0.274 OA
HETATM    3  N   UNL     1      10.164   3.450  -5.272  1.00  0.00    -0.357 N 
HETATM    4  H   UNL     1      10.622   2.591  -5.001  1.00  0.00     0.162 HD
ENDROOT
BRANCH   3   5
HETATM    5  C   UNL     1      10.721   4.212  -6.369  1.00  0.00     0.161 C 
BRANCH   5   6
HETATM    6  C   UNL     1      10.288   3.679  -7.712  1.00  0.00    -0.038 A 
HETATM    7  C   UNL     1       9.118   4.151  -8.329  1.00  0.00     0.048 A 
HETATM    8  C   UNL     1       8.679   3.675  -9.582  1.00  0.00     0.101 A 
HETATM    9  C   UNL     1       9.443   2.687 -10.208  1.00  0.00     0.099 A 
HETATM   10  C   UNL     1      10.608   2.207  -9.598  1.00  0.00     0.040 A 
HETATM   11  C   UNL     1      11.031   2.694  -8.360  1.00  0.00     0.012 A 
BRANCH   8  12
HETATM   12  O   UNL     1       7.524   4.289  -9.972  1.00  0.00    -0.353 OA
HETATM   13  C   UNL     1       6.886   3.960 -11.190  1.00  0.00     0.210 C 
ENDBRANCH   8  12
BRANCH   9  14
HETATM   14  O   UNL     1       9.185   2.083 -11.405  1.00  0.00    -0.358 OA
HETATM   15  H   UNL     1       8.541   2.593 -11.906  1.00  0.00     0.217 HD
ENDBRANCH   9  14
ENDBRANCH   5   6
ENDBRANCH   3   5
BRANCH   1  16
HETATM   16  C   UNL     1       8.486   2.868  -3.611  1.00  0.00     0.103 C 
BRANCH  16  17
HETATM   17  C   UNL     1       6.959   2.831  -3.541  1.00  0.00     0.010 C 
BRANCH  17  18
HETATM   18  C   UNL     1       6.445   1.943  -2.408  1.00  0.00     0.004 C 
BRANCH  18  19
HETATM   19  C   UNL     1       4.914   1.929  -2.387  1.00  0.00     0.027 C 
BRANCH  19  20
HETATM   20  C   UNL     1       4.376   1.059  -1.286  1.00  0.00    -0.030 C 
HETATM   21  C   UNL     1       3.584   1.508  -0.299  1.00  0.00    -0.027 C 
BRANCH  21  22
HETATM   22  C   UNL     1       3.021   0.630   0.792  1.00  0.00    -0.001 C 
HETATM   23  C   UNL     1       3.493   1.109   2.163  1.00  0.00     0.013 C 
HETATM   24  C   UNL     1       1.493   0.614   0.734  1.00  0.00     0.013 C 
ENDBRANCH  21  22
ENDBRANCH  19  20
ENDBRANCH  18  19
ENDBRANCH  17  18
ENDBRANCH  16  17
ENDBRANCH   1  16
TORSDOF 10
