REMARK  0 active torsions:
REMARK  status: ('A' for Active; 'I' for Inactive)
ROOT
HETATM    1  C   UNL     1       0.982   0.076   0.108  1.00  0.00     0.018 C 
HETATM    2  C   UNL     1       2.499   0.005   0.094  1.00  0.00     0.060 C 
HETATM    3  C   UNL     1       3.039  -1.238   0.818  1.00  0.00     0.024 C 
HETATM    4  C   UNL     1       4.337  -0.874   1.562  1.00  0.00     0.060 C 
HETATM    5  C   UNL     1       4.374   0.629   1.529  1.00  0.00     0.199 C 
HETATM    6  O   UNL     1       5.257   1.347   1.956  1.00  0.00    -0.289 OA
HETATM    7  C   UNL     1       3.138   1.142   0.833  1.00  0.00     0.199 C 
HETATM    8  O   UNL     1       2.780   2.303   0.861  1.00  0.00    -0.289 OA
HETATM    9  C   UNL     1       5.579  -1.492   0.947  1.00  0.00     0.018 C 
ENDROOT
TORSDOF 0
