REMARK  18 active torsions:
REMARK  status: ('A' for Active; 'I' for Inactive)
REMARK       I    between atoms: C_2  and  N_4 
REMARK    1  A    between atoms: N_4  and  C_5 
REMARK    2  A    between atoms: C_6  and  O_37 
REMARK    3  A    between atoms: C_7  and  O_25 
REMARK    4  A    between atoms: C_8  and  C_23 
REMARK    5  A    between atoms: C_10  and  O_11 
REMARK    6  A    between atoms: O_11  and  C_12 
REMARK    7  A    between atoms: C_13  and  C_21 
REMARK    8  A    between atoms: C_15  and  O_20 
REMARK    9  A    between atoms: C_16  and  N_19 
REMARK   10  A    between atoms: C_17  and  O_18 
REMARK   11  A    between atoms: C_21  and  O_22 
REMARK   12  A    between atoms: C_23  and  O_24 
REMARK   13  A    between atoms: O_25  and  C_26 
REMARK   14  A    between atoms: C_27  and  N_36 
REMARK   15  A    between atoms: C_28  and  O_35 
REMARK   16  A    between atoms: C_29  and  O_34 
REMARK   17  A    between atoms: C_30  and  C_32 
REMARK   18  A    between atoms: C_32  and  O_33 
ROOT
HETATM    1  C   UNL     1       5.237   0.014   0.773  1.00  0.00     0.170 C 
HETATM    2  C   UNL     1       5.872   1.359   1.199  1.00  0.00     0.177 C 
HETATM    3  C   UNL     1       7.394   1.231   1.077  1.00  0.00     0.186 C 
HETATM    4  C   UNL     1       7.671   0.829  -0.424  1.00  0.00     0.180 C 
HETATM    5  O   UNL     1       6.780  -0.119  -1.096  1.00  0.00    -0.349 OA
HETATM    6  C   UNL     1       5.373  -0.157  -0.776  1.00  0.00     0.286 C 
ENDROOT
BRANCH   3   7
HETATM    7  O   UNL     1       7.794   0.396   2.215  1.00  0.00    -0.348 OA
BRANCH   7   8
HETATM    8  C   UNL     1       9.190   0.231   2.555  1.00  0.00     0.296 C 
HETATM    9  C   UNL     1       9.468  -0.510   3.943  1.00  0.00     0.303 C 
HETATM   10  C   UNL     1       9.651   0.424   5.169  1.00  0.00     0.187 C 
HETATM   11  C   UNL     1      10.527   1.639   4.859  1.00  0.00     0.180 C 
HETATM   12  C   UNL     1      10.238   2.283   3.492  1.00  0.00     0.179 C 
HETATM   13  O   UNL     1       9.986   1.398   2.392  1.00  0.00    -0.349 OA
BRANCH   9  14
HETATM   14  N   UNL     1       8.527  -1.609   4.281  1.00  0.00     0.090 N 
HETATM   15  H   UNL     1       7.582  -1.239   4.169  1.00  0.00     0.313 HD
HETATM   16  H   UNL     1       8.581  -1.773   5.294  1.00  0.00     0.313 HD
ENDBRANCH   9  14
BRANCH  10  17
HETATM   17  O   UNL     1       8.371   0.771   5.708  1.00  0.00    -0.391 OA
HETATM   18  H   UNL     1       8.470   1.582   6.243  1.00  0.00     0.210 HD
ENDBRANCH  10  17
BRANCH  11  19
HETATM   19  O   UNL     1      11.918   1.283   4.952  1.00  0.00    -0.390 OA
HETATM   20  H   UNL     1      12.096   0.488   4.423  1.00  0.00     0.210 HD
ENDBRANCH  11  19
BRANCH  12  21
HETATM   21  C   UNL     1       9.198   3.408   3.593  1.00  0.00     0.198 C 
BRANCH  21  22
HETATM   22  O   UNL     1       8.030   3.034   4.308  1.00  0.00    -0.398 OA
HETATM   23  H   UNL     1       7.582   2.329   3.808  1.00  0.00     0.209 HD
ENDBRANCH  21  22
ENDBRANCH  12  21
ENDBRANCH   7   8
ENDBRANCH   3   7
BRANCH   2  24
HETATM   24  O   UNL     1       5.368   2.474   0.464  1.00  0.00    -0.391 OA
HETATM   25  H   UNL     1       4.579   2.175  -0.033  1.00  0.00     0.210 HD
ENDBRANCH   2  24
BRANCH   4  26
HETATM   26  C   UNL     1       7.674   2.102  -1.315  1.00  0.00     0.198 C 
BRANCH  26  27
HETATM   27  O   UNL     1       8.183   1.847  -2.626  1.00  0.00    -0.398 OA
HETATM   28  H   UNL     1       8.356   0.892  -2.701  1.00  0.00     0.209 HD
ENDBRANCH  26  27
ENDBRANCH   4  26
BRANCH   1  29
HETATM   29  N   UNL     1       3.891  -0.118   1.315  1.00  0.00    -0.349 N 
HETATM   30  C   UNL     1       3.546  -0.179   2.647  1.00  0.00     0.214 C 
HETATM   31  C   UNL     1       4.610  -0.109   3.715  1.00  0.00     0.117 C 
HETATM   32  O   UNL     1       2.360  -0.256   2.933  1.00  0.00    -0.274 OA
HETATM   33  H   UNL     1       3.096  -0.164   0.680  1.00  0.00     0.163 HD
ENDBRANCH   1  29
BRANCH   6  34
HETATM   34  O   UNL     1       4.479   0.759  -1.490  1.00  0.00    -0.348 OA
BRANCH  34  35
HETATM   35  C   UNL     1       4.401   0.683  -2.956  1.00  0.00     0.186 C 
HETATM   36  C   UNL     1       3.878  -0.655  -3.560  1.00  0.00     0.179 C 
HETATM   37  O   UNL     1       2.446  -0.802  -3.589  1.00  0.00    -0.349 OA
HETATM   38  C   UNL     1       1.689   0.219  -4.221  1.00  0.00     0.292 C 
HETATM   39  C   UNL     1       2.020   1.626  -3.663  1.00  0.00     0.303 C 
HETATM   40  C   UNL     1       3.549   1.885  -3.501  1.00  0.00     0.187 C 
BRANCH  36  41
HETATM   41  C   UNL     1       4.533  -0.959  -4.928  1.00  0.00     0.198 C 
BRANCH  41  42
HETATM   42  O   UNL     1       4.195  -2.279  -5.359  1.00  0.00    -0.398 OA
HETATM   43  H   UNL     1       3.223  -2.292  -5.430  1.00  0.00     0.209 HD
ENDBRANCH  41  42
ENDBRANCH  36  41
BRANCH  38  44
HETATM   44  O   UNL     1       1.758   0.104  -5.637  1.00  0.00    -0.369 OA
HETATM   45  H   UNL     1       0.913  -0.298  -5.914  1.00  0.00     0.212 HD
ENDBRANCH  38  44
BRANCH  39  46
HETATM   46  N   UNL     1       1.308   2.700  -4.416  1.00  0.00     0.090 N 
HETATM   47  H   UNL     1       1.721   2.727  -5.356  1.00  0.00     0.313 HD
HETATM   48  H   UNL     1       1.528   3.610  -4.013  1.00  0.00     0.313 HD
ENDBRANCH  39  46
BRANCH  40  49
HETATM   49  O   UNL     1       4.083   2.332  -4.760  1.00  0.00    -0.391 OA
HETATM   50  H   UNL     1       4.949   2.741  -4.580  1.00  0.00     0.210 HD
ENDBRANCH  40  49
ENDBRANCH  34  35
ENDBRANCH   6  34
TORSDOF 18
