REMARK  6 active torsions:
REMARK  status: ('A' for Active; 'I' for Inactive)
REMARK    1  A    between atoms: N_2  and  C_5 
REMARK    2  A    between atoms: C_5  and  C_6 
REMARK    3  A    between atoms: C_6  and  C_7 
REMARK    4  A    between atoms: C_6  and  O_11 
REMARK    5  A    between atoms: C_7  and  C_8 
REMARK    6  A    between atoms: C_8  and  O_10 
ROOT
HETATM    1  C   UNL     1       4.534   1.039  -0.879  1.00  0.00     0.154 C 
ENDROOT
BRANCH   1   2
HETATM    2  C   UNL     1       2.983   1.050  -1.010  1.00  0.00     0.268 C 
BRANCH   2   3
HETATM    3  N   UNL     1       2.251  -0.045  -0.154  1.00  0.00    -0.076 N 
HETATM    4  C   UNL     1       2.645  -1.459  -0.557  1.00  0.00     0.271 C 
HETATM    5  C   UNL     1       0.742   0.097  -0.392  1.00  0.00     0.271 C 
HETATM    6  C   UNL     1       2.553   0.128   1.342  1.00  0.00     0.271 C 
ENDBRANCH   2   3
ENDBRANCH   1   2
BRANCH   1   7
HETATM    7  C   UNL     1       5.276   2.031  -1.801  1.00  0.00     0.143 C 
BRANCH   7   8
HETATM    8  C   UNL     1       4.984   3.471  -1.463  1.00  0.00     0.141 C 
HETATM    9  O   UNL     1       4.189   3.787  -0.580  1.00  0.00    -0.650 OA
BRANCH   8  10
HETATM   10  O   UNL     1       5.669   4.358  -2.191  1.00  0.00    -0.776 OA
HETATM   11  H   UNL     1       6.314   3.990  -2.827  1.00  0.00     0.167 HD
ENDBRANCH   8  10
ENDBRANCH   7   8
ENDBRANCH   1   7
BRANCH   1  12
HETATM   12  O   UNL     1       4.941   1.258   0.475  1.00  0.00    -0.393 OA
HETATM   13  H   UNL     1       4.723   2.188   0.711  1.00  0.00     0.210 HD
ENDBRANCH   1  12
TORSDOF 6
