REMARK  8 active torsions:
REMARK  status: ('A' for Active; 'I' for Inactive)
REMARK    1  A    between atoms: C_2  and  O_4 
REMARK    2  A    between atoms: O_4  and  C_5 
REMARK    3  A    between atoms: C_5  and  C_6 
REMARK    4  A    between atoms: C_7  and  O_18 
REMARK    5  A    between atoms: C_8  and  O_17 
REMARK    6  A    between atoms: C_9  and  O_13 
REMARK    7  A    between atoms: C_10  and  O_12 
REMARK    8  A    between atoms: O_13  and  C_14 
ROOT
HETATM    1  C   UNL     1       5.086  -2.048   1.608  1.00  0.00     0.180 C 
HETATM    2  C   UNL     1       6.572  -2.169   1.203  1.00  0.00     0.180 C 
HETATM    3  C   UNL     1       6.677  -2.774  -0.207  1.00  0.00     0.183 C 
HETATM    4  C   UNL     1       5.976  -4.146  -0.270  1.00  0.00     0.218 C 
HETATM    5  C   UNL     1       4.515  -3.920   0.176  1.00  0.00     0.289 C 
HETATM    6  O   UNL     1       4.430  -3.323   1.470  1.00  0.00    -0.349 OA
ENDROOT
BRANCH   1   7
HETATM    7  C   UNL     1       4.343  -0.919   0.870  1.00  0.00     0.213 C 
BRANCH   7   8
HETATM    8  O   UNL     1       4.959   0.358   1.111  1.00  0.00    -0.319 OA
BRANCH   8   9
HETATM    9  C   UNL     1       4.588   0.968   2.269  1.00  0.00     0.254 C 
HETATM   10  C   UNL     1       5.324   2.261   2.440  1.00  0.00     0.126 C 
HETATM   11  O   UNL     1       3.793   0.515   3.080  1.00  0.00    -0.266 OA
ENDBRANCH   8   9
ENDBRANCH   7   8
ENDBRANCH   1   7
BRANCH   2  12
HETATM   12  O   UNL     1       7.255  -3.008   2.156  1.00  0.00    -0.390 OA
HETATM   13  H   UNL     1       6.649  -3.742   2.370  1.00  0.00     0.210 HD
ENDBRANCH   2  12
BRANCH   3  14
HETATM   14  O   UNL     1       8.030  -2.782  -0.654  1.00  0.00    -0.390 OA
HETATM   15  H   UNL     1       8.488  -3.554  -0.278  1.00  0.00     0.210 HD
ENDBRANCH   3  14
BRANCH   5  16
HETATM   16  O   UNL     1       3.813  -5.151   0.230  1.00  0.00    -0.368 OA
HETATM   17  H   UNL     1       4.333  -5.714   0.829  1.00  0.00     0.212 HD
ENDBRANCH   5  16
BRANCH   4  18
HETATM   18  O   UNL     1       6.559  -5.116   0.651  1.00  0.00    -0.309 OA
BRANCH  18  19
HETATM   19  C   UNL     1       7.680  -5.756   0.227  1.00  0.00     0.255 C 
HETATM   20  O   UNL     1       8.221  -5.570  -0.852  1.00  0.00    -0.266 OA
HETATM   21  C   UNL     1       8.241  -6.641   1.296  1.00  0.00     0.126 C 
ENDBRANCH  18  19
ENDBRANCH   4  18
TORSDOF 8
