REMARK  32 active torsions:
REMARK  status: ('A' for Active; 'I' for Inactive)
REMARK    1  A    between atoms: C_2  and  C_3 
REMARK    2  A    between atoms: C_3  and  C_4 
REMARK    3  A    between atoms: C_4  and  C_5 
REMARK    4  A    between atoms: C_5  and  C_6 
REMARK    5  A    between atoms: C_6  and  C_7 
REMARK    6  A    between atoms: C_7  and  C_8 
REMARK    7  A    between atoms: C_8  and  C_9 
REMARK    8  A    between atoms: C_9  and  C_10 
REMARK    9  A    between atoms: C_10  and  C_11 
REMARK   10  A    between atoms: C_11  and  C_12 
REMARK   11  A    between atoms: C_12  and  C_13 
REMARK   12  A    between atoms: C_13  and  C_14 
REMARK   13  A    between atoms: C_14  and  C_15 
REMARK   14  A    between atoms: C_15  and  C_16 
REMARK   15  A    between atoms: C_16  and  C_17 
REMARK   16  A    between atoms: C_17  and  C_18 
REMARK   17  A    between atoms: C_18  and  O_19 
REMARK   18  A    between atoms: C_22  and  C_23 
REMARK   19  A    between atoms: C_23  and  C_24 
REMARK   20  A    between atoms: C_24  and  C_25 
REMARK   21  A    between atoms: C_25  and  C_26 
REMARK   22  A    between atoms: C_26  and  C_27 
REMARK   23  A    between atoms: C_27  and  C_28 
REMARK   24  A    between atoms: C_28  and  C_29 
REMARK   25  A    between atoms: C_29  and  C_30 
REMARK   26  A    between atoms: C_30  and  C_31 
REMARK   27  A    between atoms: C_31  and  C_32 
REMARK   28  A    between atoms: C_32  and  C_33 
REMARK   29  A    between atoms: C_33  and  C_34 
REMARK   30  A    between atoms: C_34  and  C_35 
REMARK   31  A    between atoms: C_35  and  C_36 
REMARK   32  A    between atoms: C_36  and  O_37 
ROOT
HETATM    1  C   UNL     2       6.108   4.134  -5.320  1.00  0.00     0.000 C 
ENDROOT
BRANCH   1   2
HETATM    2  C   UNL     2       5.175   4.882  -4.360  1.00  0.00     0.000 C 
BRANCH   2   3
HETATM    3  C   UNL     2       3.727   4.371  -4.370  1.00  0.00     0.000 C 
BRANCH   3   4
HETATM    4  C   UNL     2       3.578   2.932  -3.868  1.00  0.00     0.000 C 
BRANCH   4   5
HETATM    5  C   UNL     2       2.109   2.492  -3.844  1.00  0.00     0.000 C 
BRANCH   5   6
HETATM    6  C   UNL     2       1.923   1.046  -3.379  1.00  0.00     0.000 C 
BRANCH   6   7
HETATM    7  C   UNL     2       2.389   0.760  -1.951  1.00  0.00    -0.000 C 
BRANCH   7   8
HETATM    8  C   UNL     2       1.699   1.577  -0.858  1.00  0.00    -0.005 C 
HETATM    9  C   UNL     2       0.210   1.302  -0.747  1.00  0.00     0.005 C 
ENDBRANCH   7   8
ENDBRANCH   6   7
ENDBRANCH   5   6
ENDBRANCH   4   5
ENDBRANCH   3   4
ENDBRANCH   2   3
ENDBRANCH   1   2
BRANCH   1  10
HETATM   10  C   UNL     2       7.532   4.713  -5.310  1.00  0.00     0.000 C 
BRANCH  10  11
HETATM   11  C   UNL     2       8.461   3.941  -6.259  1.00  0.00     0.000 C 
BRANCH  11  12
HETATM   12  C   UNL     2       9.895   4.486  -6.260  1.00  0.00     0.000 C 
BRANCH  12  13
HETATM   13  C   UNL     2      10.794   3.692  -7.213  1.00  0.00     0.000 C 
BRANCH  13  14
HETATM   14  C   UNL     2      12.238   4.209  -7.235  1.00  0.00     0.002 C 
BRANCH  14  15
HETATM   15  C   UNL     2      13.113   3.398  -8.198  1.00  0.00     0.026 C 
BRANCH  15  16
HETATM   16  C   UNL     2      14.552   3.899  -8.232  1.00  0.00     0.164 C 
BRANCH  16  17
HETATM   17  O   UNL     2      15.310   3.125  -9.153  1.00  0.00    -0.401 OA
HETATM   18  H   UNL     2      15.312   2.206  -8.835  1.00  0.00     0.209 HD
ENDBRANCH  16  17
ENDBRANCH  15  16
ENDBRANCH  14  15
ENDBRANCH  13  14
ENDBRANCH  12  13
ENDBRANCH  11  12
ENDBRANCH  10  11
ENDBRANCH   1  10
TORSDOF 32
