REMARK  22 active torsions:
REMARK  status: ('A' for Active; 'I' for Inactive)
REMARK    1  A    between atoms: C_2  and  C_3 
REMARK    2  A    between atoms: C_3  and  C_4 
REMARK    3  A    between atoms: C_4  and  C_5 
REMARK    4  A    between atoms: C_5  and  C_6 
REMARK    5  A    between atoms: C_6  and  C_7 
REMARK    6  A    between atoms: C_7  and  C_8 
REMARK    7  A    between atoms: C_8  and  C_9 
REMARK    8  A    between atoms: C_9  and  C_10 
REMARK    9  A    between atoms: C_10  and  C_11 
REMARK   10  A    between atoms: C_11  and  C_12 
REMARK   11  A    between atoms: C_12  and  C_13 
REMARK   12  A    between atoms: C_13  and  C_14 
REMARK   13  A    between atoms: C_14  and  C_15 
REMARK   14  A    between atoms: C_15  and  C_16 
REMARK   15  A    between atoms: C_16  and  O_17 
REMARK   16  A    between atoms: O_17  and  C_18 
REMARK   17  A    between atoms: C_18  and  C_20 
REMARK   18  A    between atoms: C_20  and  C_21 
REMARK   19  A    between atoms: C_21  and  C_22 
REMARK   20  A    between atoms: C_22  and  C_23 
REMARK   21  A    between atoms: C_23  and  C_24 
REMARK   22  A    between atoms: C_24  and  C_25 
ROOT
HETATM    1  C   UNL     1      14.779   7.996  -3.298  1.00  0.00     0.002 C 
ENDROOT
BRANCH   1   2
HETATM    2  C   UNL     1      13.256   7.974  -3.291  1.00  0.00     0.000 C 
BRANCH   2   3
HETATM    3  C   UNL     1      12.733   6.658  -2.729  1.00  0.00     0.000 C 
BRANCH   3   4
HETATM    4  C   UNL     1      11.214   6.642  -2.727  1.00  0.00     0.000 C 
BRANCH   4   5
HETATM    5  C   UNL     1      10.702   5.324  -2.171  1.00  0.00     0.000 C 
BRANCH   5   6
HETATM    6  C   UNL     1       9.182   5.314  -2.168  1.00  0.00     0.000 C 
BRANCH   6   7
HETATM    7  C   UNL     1       8.667   3.997  -1.611  1.00  0.00     0.000 C 
BRANCH   7   8
HETATM    8  C   UNL     1       7.148   3.987  -1.607  1.00  0.00     0.000 C 
BRANCH   8   9
HETATM    9  C   UNL     1       6.635   2.669  -1.050  1.00  0.00     0.000 C 
BRANCH   9  10
HETATM   10  C   UNL     1       5.115   2.658  -1.044  1.00  0.00     0.000 C 
BRANCH  10  11
HETATM   11  C   UNL     1       4.597   1.339  -0.489  1.00  0.00     0.000 C 
BRANCH  11  12
HETATM   12  C   UNL     1       3.075   1.330  -0.483  1.00  0.00    -0.000 C 
BRANCH  12  13
HETATM   13  C   UNL     1       2.542   0.015   0.071  1.00  0.00    -0.005 C 
HETATM   14  C   UNL     1       1.025   0.011   0.076  1.00  0.00     0.005 C 
ENDBRANCH  12  13
ENDBRANCH  11  12
ENDBRANCH  10  11
ENDBRANCH   9  10
ENDBRANCH   8   9
ENDBRANCH   7   8
ENDBRANCH   6   7
ENDBRANCH   5   6
ENDBRANCH   4   5
ENDBRANCH   3   4
ENDBRANCH   2   3
ENDBRANCH   1   2
BRANCH   1  15
HETATM   15  C   UNL     1      15.341   6.873  -4.160  1.00  0.00     0.027 C 
BRANCH  15  16
HETATM   16  C   UNL     1      16.860   6.907  -4.163  1.00  0.00     0.178 C 
BRANCH  16  17
HETATM   17  O   UNL     1      17.360   5.841  -4.976  1.00  0.00    -0.321 OA
BRANCH  17  18
HETATM   18  C   UNL     1      17.312   6.124  -6.312  1.00  0.00     0.258 C 
HETATM   19  O   UNL     1      16.917   7.166  -6.799  1.00  0.00    -0.265 OA
BRANCH  18  20
HETATM   20  C   UNL     1      17.827   4.955  -7.115  1.00  0.00     0.111 C 
BRANCH  20  21
HETATM   21  C   UNL     1      16.968   3.724  -6.857  1.00  0.00     0.010 C 
BRANCH  21  22
HETATM   22  C   UNL     1      17.443   2.511  -7.649  1.00  0.00     0.001 C 
BRANCH  22  23
HETATM   23  C   UNL     1      16.539   1.319  -7.339  1.00  0.00     0.000 C 
BRANCH  23  24
HETATM   24  C   UNL     1      16.961   0.066  -8.103  1.00  0.00     0.004 C 
BRANCH  24  25
HETATM   25  C   UNL     1      16.059  -1.144  -7.802  1.00  0.00    -0.023 C 
HETATM   26  C   UNL     1      14.597  -0.884  -8.177  1.00  0.00     0.009 C 
HETATM   27  C   UNL     1      16.570  -2.373  -8.554  1.00  0.00     0.009 C 
ENDBRANCH  24  25
ENDBRANCH  23  24
ENDBRANCH  22  23
ENDBRANCH  21  22
ENDBRANCH  20  21
ENDBRANCH  18  20
ENDBRANCH  17  18
ENDBRANCH  16  17
ENDBRANCH  15  16
ENDBRANCH   1  15
TORSDOF 22
