REMARK  16 active torsions:
REMARK  status: ('A' for Active; 'I' for Inactive)
REMARK    1  A    between atoms: C_2  and  C_3 
REMARK    2  A    between atoms: C_3  and  C_4 
REMARK    3  A    between atoms: C_4  and  C_5 
REMARK    4  A    between atoms: C_5  and  C_6 
REMARK    5  A    between atoms: C_6  and  C_7 
REMARK    6  A    between atoms: C_7  and  C_8 
REMARK    7  A    between atoms: C_8  and  C_9 
REMARK    8  A    between atoms: C_9  and  C_10 
REMARK    9  A    between atoms: C_10  and  C_11 
REMARK   10  A    between atoms: C_11  and  C_12 
REMARK   11  A    between atoms: C_12  and  C_13 
REMARK   12  A    between atoms: C_13  and  C_14 
REMARK   13  A    between atoms: C_14  and  C_15 
REMARK   14  A    between atoms: C_15  and  C_16 
REMARK   15  A    between atoms: C_16  and  O_17 
REMARK   16  A    between atoms: O_17  and  C_18 
ROOT
HETATM    1  C   UNL     1      10.586  -4.482  -3.504  1.00  0.00     0.000 C 
ENDROOT
BRANCH   1   2
HETATM    2  C   UNL     1       9.070  -4.477  -3.501  1.00  0.00     0.000 C 
BRANCH   2   3
HETATM    3  C   UNL     1       8.560  -3.340  -2.637  1.00  0.00     0.000 C 
BRANCH   3   4
HETATM    4  C   UNL     1       7.043  -3.337  -2.633  1.00  0.00     0.000 C 
BRANCH   4   5
HETATM    5  C   UNL     1       6.533  -2.199  -1.770  1.00  0.00     0.000 C 
BRANCH   5   6
HETATM    6  C   UNL     1       5.016  -2.197  -1.764  1.00  0.00     0.000 C 
BRANCH   6   7
HETATM    7  C   UNL     1       4.506  -1.057  -0.903  1.00  0.00     0.000 C 
BRANCH   7   8
HETATM    8  C   UNL     1       2.989  -1.055  -0.893  1.00  0.00    -0.000 C 
BRANCH   8   9
HETATM    9  C   UNL     1       2.472   0.085  -0.031  1.00  0.00    -0.005 C 
HETATM   10  C   UNL     1       0.959   0.085  -0.025  1.00  0.00     0.005 C 
ENDBRANCH   8   9
ENDBRANCH   7   8
ENDBRANCH   6   7
ENDBRANCH   5   6
ENDBRANCH   4   5
ENDBRANCH   3   4
ENDBRANCH   2   3
ENDBRANCH   1   2
BRANCH   1  11
HETATM   11  C   UNL     1      11.091  -5.619  -4.371  1.00  0.00     0.000 C 
BRANCH  11  12
HETATM   12  C   UNL     1      12.603  -5.621  -4.379  1.00  0.00     0.000 C 
BRANCH  12  13
HETATM   13  C   UNL     1      13.128  -6.762  -5.238  1.00  0.00     0.000 C 
BRANCH  13  14
HETATM   14  C   UNL     1      14.649  -6.772  -5.244  1.00  0.00     0.002 C 
BRANCH  14  15
HETATM   15  C   UNL     1      15.194  -6.960  -3.831  1.00  0.00     0.027 C 
BRANCH  15  16
HETATM   16  C   UNL     1      16.709  -6.956  -3.815  1.00  0.00     0.178 C 
BRANCH  16  17
HETATM   17  O   UNL     1      17.213  -7.132  -2.458  1.00  0.00    -0.322 OA
BRANCH  17  18
HETATM   18  C   UNL     1      17.227  -6.006  -1.687  1.00  0.00     0.254 C 
HETATM   19  O   UNL     1      16.842  -4.898  -2.080  1.00  0.00    -0.266 OA
HETATM   20  C   UNL     1      17.743  -6.236  -0.304  1.00  0.00     0.126 C 
ENDBRANCH  17  18
ENDBRANCH  16  17
ENDBRANCH  15  16
ENDBRANCH  14  15
ENDBRANCH  13  14
ENDBRANCH  12  13
ENDBRANCH  11  12
ENDBRANCH   1  11
TORSDOF 16
