REMARK  18 active torsions:
REMARK  status: ('A' for Active; 'I' for Inactive)
REMARK    1  A    between atoms: C_2  and  C_3 
REMARK    2  A    between atoms: C_3  and  C_4 
REMARK    3  A    between atoms: C_4  and  C_5 
REMARK    4  A    between atoms: C_5  and  C_6 
REMARK    5  A    between atoms: C_6  and  C_7 
REMARK    6  A    between atoms: C_7  and  C_8 
REMARK    7  A    between atoms: C_8  and  C_9 
REMARK    8  A    between atoms: C_9  and  C_10 
REMARK    9  A    between atoms: C_10  and  C_11 
REMARK   10  A    between atoms: C_11  and  C_12 
REMARK   11  A    between atoms: C_12  and  C_13 
REMARK   12  A    between atoms: C_13  and  C_14 
REMARK   13  A    between atoms: C_14  and  C_15 
REMARK   14  A    between atoms: C_15  and  C_16 
REMARK   15  A    between atoms: C_16  and  SI_17 
REMARK   16  A    between atoms: SI_17  and  O_19 
REMARK   17  A    between atoms: SI_17  and  O_21 
REMARK   18  A    between atoms: O_21  and  SI_22 
ROOT
HETATM    1  C   UNL     1      13.278  -5.030  -6.672  1.00  0.00     0.000 C 
ENDROOT
BRANCH   1   2
HETATM    2  C   UNL     1      12.710  -4.162  -5.566  1.00  0.00     0.000 C 
BRANCH   2   3
HETATM    3  C   UNL     1      11.186  -4.190  -5.614  1.00  0.00     0.000 C 
BRANCH   3   4
HETATM    4  C   UNL     1      10.615  -3.317  -4.509  1.00  0.00     0.000 C 
BRANCH   4   5
HETATM    5  C   UNL     1       9.094  -3.325  -4.539  1.00  0.00     0.000 C 
BRANCH   5   6
HETATM    6  C   UNL     1       8.556  -2.443  -3.422  1.00  0.00     0.000 C 
BRANCH   6   7
HETATM    7  C   UNL     1       7.034  -2.428  -3.424  1.00  0.00     0.000 C 
BRANCH   7   8
HETATM    8  C   UNL     1       6.516  -1.541  -2.301  1.00  0.00     0.000 C 
BRANCH   8   9
HETATM    9  C   UNL     1       4.993  -1.518  -2.294  1.00  0.00     0.000 C 
BRANCH   9  10
HETATM   10  C   UNL     1       4.471  -0.629  -1.170  1.00  0.00     0.000 C 
BRANCH  10  11
HETATM   11  C   UNL     1       2.946  -0.608  -1.169  1.00  0.00    -0.000 C 
BRANCH  11  12
HETATM   12  C   UNL     1       2.407   0.274  -0.048  1.00  0.00    -0.005 C 
HETATM   13  C   UNL     1       0.888   0.292  -0.049  1.00  0.00     0.005 C 
ENDBRANCH  11  12
ENDBRANCH  10  11
ENDBRANCH   9  10
ENDBRANCH   8   9
ENDBRANCH   7   8
ENDBRANCH   6   7
ENDBRANCH   5   6
ENDBRANCH   4   5
ENDBRANCH   3   4
ENDBRANCH   2   3
ENDBRANCH   1   2
BRANCH   1  14
HETATM   14  C   UNL     1      14.806  -5.034  -6.668  1.00  0.00     0.000 C 
BRANCH  14  15
HETATM   15  C   UNL     1      15.271  -5.930  -7.803  1.00  0.00     0.000 C 
BRANCH  15  16
HETATM   16  C   UNL     1      16.792  -6.079  -7.912  1.00  0.00     0.000 C 
BRANCH  16  17
HETATM   17 SI   UNL     1      17.221  -7.226  -9.406  1.00  0.00     0.000 Si
HETATM   18  C   UNL     1      16.412  -8.889  -9.012  1.00  0.00     0.000 C 
BRANCH  17  19
HETATM   19  O   UNL     1      16.543  -6.552 -10.791  1.00  0.00    -0.247 OA
HETATM   20  C   UNL     1      16.970  -5.268 -11.222  1.00  0.00     0.247 C 
ENDBRANCH  17  19
BRANCH  17  21
HETATM   21  O   UNL     1      18.867  -7.445  -9.639  1.00  0.00     0.000 OA
BRANCH  21  22
HETATM   22 SI   UNL     1      19.838  -8.293 -10.727  1.00  0.00     0.000 Si
HETATM   23  C   UNL     1      19.476  -7.717 -12.483  1.00  0.00     0.000 C 
HETATM   24  C   UNL     1      21.652  -8.029 -10.357  1.00  0.00     0.000 C 
HETATM   25  C   UNL     1      19.468 -10.137 -10.650  1.00  0.00     0.000 C 
ENDBRANCH  21  22
ENDBRANCH  17  21
ENDBRANCH  16  17
ENDBRANCH  15  16
ENDBRANCH  14  15
ENDBRANCH   1  14
TORSDOF 18
