REMARK WARNING: 32 MAX_TORS EXCEEDED!!!
REMARK  55 active torsions:
REMARK  status: ('A' for Active; 'I' for Inactive)
REMARK    1  A    between atoms: O_2  and  C_3 
REMARK       I    between atoms: C_3  and  N_5 
REMARK    2  A    between atoms: N_5  and  C_6 
REMARK    3  A    between atoms: C_7  and  O_104 
REMARK    4  A    between atoms: C_8  and  O_37 
REMARK    5  A    between atoms: C_9  and  C_35 
REMARK    6  A    between atoms: C_11  and  O_12 
REMARK    7  A    between atoms: O_12  and  C_13 
REMARK    8  A    between atoms: C_14  and  C_33 
REMARK    9  A    between atoms: C_16  and  O_21 
REMARK   10  A    between atoms: C_17  and  N_20 
REMARK   11  A    between atoms: C_18  and  O_19 
REMARK   12  A    between atoms: O_21  and  C_22 
REMARK   13  A    between atoms: C_23  and  C_31 
REMARK   14  A    between atoms: C_25  and  O_30 
REMARK   15  A    between atoms: C_26  and  N_29 
REMARK   16  A    between atoms: C_27  and  O_28 
REMARK   17  A    between atoms: C_31  and  O_32 
REMARK   18  A    between atoms: C_33  and  O_34 
REMARK   19  A    between atoms: C_35  and  O_36 
REMARK   20  A    between atoms: O_37  and  C_38 
REMARK   21  A    between atoms: C_39  and  N_103 
REMARK   22  A    between atoms: C_40  and  O_102 
REMARK   23  A    between atoms: C_41  and  O_46 
REMARK   24  A    between atoms: C_42  and  C_44 
REMARK   25  A    between atoms: C_44  and  O_45 
REMARK   26  A    between atoms: O_46  and  C_47 
REMARK   27  A    between atoms: C_48  and  N_101 
REMARK   28  A    between atoms: C_49  and  O_100 
REMARK   29  A    between atoms: C_50  and  O_55 
REMARK   30  A    between atoms: C_51  and  C_53 
REMARK   31  A    between atoms: C_53  and  O_54 
REMARK   32  A    between atoms: O_55  and  C_56 
REMARK   33  A    between atoms: C_57  and  N_99 
REMARK   34  A    between atoms: C_58  and  O_98 
REMARK   35  A    between atoms: C_59  and  O_64 
REMARK   36  A    between atoms: C_60  and  C_62 
REMARK   37  A    between atoms: C_62  and  O_63 
REMARK   38  A    between atoms: O_64  and  C_65 
REMARK   39  A    between atoms: C_66  and  N_97 
REMARK   40  A    between atoms: C_67  and  O_96 
REMARK   41  A    between atoms: C_68  and  O_73 
REMARK   42  A    between atoms: C_69  and  C_71 
REMARK   43  A    between atoms: C_71  and  O_72 
REMARK   44  A    between atoms: O_73  and  C_74 
REMARK   45  A    between atoms: C_75  and  N_95 
REMARK   46  A    between atoms: C_76  and  O_94 
REMARK   47  A    between atoms: C_77  and  O_82 
REMARK   48  A    between atoms: C_78  and  C_80 
REMARK   49  A    between atoms: C_80  and  O_81 
REMARK   50  A    between atoms: O_82  and  C_83 
REMARK   51  A    between atoms: C_84  and  N_93 
REMARK   52  A    between atoms: C_85  and  O_92 
REMARK   53  A    between atoms: C_86  and  O_91 
REMARK   54  A    between atoms: C_87  and  C_89 
REMARK   55  A    between atoms: C_89  and  O_90 
ROOT
HETATM    1  C   UNL     1      -0.141   5.284  -0.526  1.00  0.00     0.296 C 
HETATM    2  C   UNL     1       0.382   3.903   0.174  1.00  0.00     0.303 C 
HETATM    3  C   UNL     1       1.879   3.478  -0.218  1.00  0.00     0.187 C 
HETATM    4  C   UNL     1       2.204   3.552  -1.788  1.00  0.00     0.186 C 
HETATM    5  C   UNL     1       1.600   4.941  -2.227  1.00  0.00     0.179 C 
HETATM    6  O   UNL     1       0.207   5.146  -1.905  1.00  0.00    -0.349 OA
ENDROOT
BRANCH   1   7
HETATM    7  O   UNL     1       0.352   6.545  -0.034  1.00  0.00    -0.348 OA
BRANCH   7   8
HETATM    8  C   UNL     1      -0.549   7.760   0.284  1.00  0.00     0.186 C 
HETATM    9  C   UNL     1      -2.091   7.535   0.538  1.00  0.00     0.187 C 
HETATM   10  C   UNL     1      -3.012   7.923  -0.653  1.00  0.00     0.303 C 
HETATM   11  C   UNL     1      -2.863   9.284  -1.378  1.00  0.00     0.296 C 
HETATM   12  O   UNL     1      -1.412   9.440  -1.554  1.00  0.00    -0.349 OA
HETATM   13  C   UNL     1      -0.363   9.122  -0.560  1.00  0.00     0.179 C 
BRANCH   9  14
HETATM   14  O   UNL     1      -2.485   8.300   1.691  1.00  0.00    -0.391 OA
HETATM   15  H   UNL     1      -2.246   9.256   1.585  1.00  0.00     0.210 HD
ENDBRANCH   9  14
BRANCH  10  16
HETATM   16  N   UNL     1      -4.401   7.692  -0.281  1.00  0.00     0.090 N 
HETATM   17  H   UNL     1      -4.834   8.596  -0.099  1.00  0.00     0.313 HD
HETATM   18  H   UNL     1      -4.368   7.295   0.662  1.00  0.00     0.313 HD
ENDBRANCH  10  16
BRANCH  11  19
HETATM   19  O   UNL     1      -3.752  10.622  -0.999  1.00  0.00    -0.348 OA
BRANCH  19  20
HETATM   20  C   UNL     1      -5.200  10.877  -1.704  1.00  0.00     0.186 C 
HETATM   21  C   UNL     1      -6.386   9.821  -1.535  1.00  0.00     0.177 C 
HETATM   22  C   UNL     1      -7.775  10.142  -2.271  1.00  0.00     0.173 C 
HETATM   23  C   UNL     1      -8.315  11.641  -2.160  1.00  0.00     0.286 C 
HETATM   24  O   UNL     1      -7.148  12.471  -2.422  1.00  0.00    -0.349 OA
HETATM   25  C   UNL     1      -5.971  12.352  -1.539  1.00  0.00     0.180 C 
BRANCH  21  26
HETATM   26  O   UNL     1      -6.710   9.489  -0.177  1.00  0.00    -0.391 OA
HETATM   27  H   UNL     1      -6.779  10.269   0.386  1.00  0.00     0.210 HD
ENDBRANCH  21  26
BRANCH  22  28
HETATM   28  N   UNL     1      -8.814   9.113  -2.025  1.00  0.00    -0.325 N 
HETATM   29  C   UNL     1      -9.684   8.624  -2.966  1.00  0.00     0.360 C 
HETATM   30  O   UNL     1      -9.683   8.991  -4.137  1.00  0.00    -0.239 OA
HETATM   31  H   UNL     1      -8.747   8.594  -1.143  1.00  0.00     0.165 HD
BRANCH  29  32
HETATM   32  O   UNL     1     -10.528   7.711  -2.422  1.00  0.00    -0.309 OA
HETATM   33  C   UNL     1     -11.588   7.198  -3.249  1.00  0.00     0.215 C 
ENDBRANCH  29  32
ENDBRANCH  22  28
BRANCH  23  34
HETATM   34  O   UNL     1      -9.163  12.069  -0.984  1.00  0.00    -0.348 OA
BRANCH  34  35
HETATM   35  C   UNL     1     -10.536  12.577  -1.292  1.00  0.00     0.186 C 
HETATM   36  C   UNL     1     -11.690  12.117  -0.320  1.00  0.00     0.179 C 
HETATM   37  O   UNL     1     -11.756  12.687   1.028  1.00  0.00    -0.349 OA
HETATM   38  C   UNL     1     -11.720  14.112   1.194  1.00  0.00     0.296 C 
HETATM   39  C   UNL     1     -11.119  14.909  -0.061  1.00  0.00     0.303 C 
HETATM   40  C   UNL     1     -10.743  14.113  -1.408  1.00  0.00     0.187 C 
BRANCH  36  41
HETATM   41  C   UNL     1     -13.109  12.333  -0.910  1.00  0.00     0.198 C 
BRANCH  41  42
HETATM   42  O   UNL     1     -13.972  11.420  -0.235  1.00  0.00    -0.398 OA
HETATM   43  H   UNL     1     -13.707  11.483   0.698  1.00  0.00     0.209 HD
ENDBRANCH  41  42
ENDBRANCH  36  41
BRANCH  38  44
HETATM   44  O   UNL     1     -12.938  14.751   1.699  1.00  0.00    -0.348 OA
BRANCH  44  45
HETATM   45  C   UNL     1     -13.187  14.685   3.136  1.00  0.00     0.186 C 
HETATM   46  C   UNL     1     -13.813  16.024   3.812  1.00  0.00     0.179 C 
HETATM   47  O   UNL     1     -14.985  16.630   3.220  1.00  0.00    -0.349 OA
HETATM   48  C   UNL     1     -16.028  15.674   3.031  1.00  0.00     0.292 C 
HETATM   49  C   UNL     1     -15.705  14.122   3.105  1.00  0.00     0.303 C 
HETATM   50  C   UNL     1     -14.186  13.520   3.364  1.00  0.00     0.187 C 
BRANCH  46  51
HETATM   51  C   UNL     1     -14.093  15.667   5.298  1.00  0.00     0.198 C 
BRANCH  51  52
HETATM   52  O   UNL     1     -15.142  16.366   5.884  1.00  0.00    -0.398 OA
HETATM   53  H   UNL     1     -15.238  17.246   5.468  1.00  0.00     0.209 HD
ENDBRANCH  51  52
ENDBRANCH  46  51
BRANCH  48  54
HETATM   54  O   UNL     1     -17.267  16.417   3.561  1.00  0.00    -0.369 OA
HETATM   55  H   UNL     1     -17.414  16.272   4.514  1.00  0.00     0.212 HD
ENDBRANCH  48  54
BRANCH  49  56
HETATM   56  N   UNL     1     -16.912  13.472   3.545  1.00  0.00     0.090 NA
HETATM   57  H   UNL     1     -17.757  14.022   3.414  1.00  0.00     0.313 HD
HETATM   58  H   UNL     1     -17.010  12.569   3.025  1.00  0.00     0.313 HD
ENDBRANCH  49  56
BRANCH  50  59
HETATM   59  O   UNL     1     -13.756  12.729   4.480  1.00  0.00    -0.391 OA
HETATM   60  H   UNL     1     -14.465  12.223   4.904  1.00  0.00     0.210 HD
ENDBRANCH  50  59
ENDBRANCH  44  45
ENDBRANCH  38  44
BRANCH  39  61
HETATM   61  N   UNL     1     -11.812  16.244  -0.262  1.00  0.00     0.090 N 
HETATM   62  H   UNL     1     -11.521  16.861   0.486  1.00  0.00     0.313 HD
HETATM   63  H   UNL     1     -11.440  16.629  -1.124  1.00  0.00     0.313 HD
ENDBRANCH  39  61
BRANCH  40  64
HETATM   64  O   UNL     1     -11.790  14.218  -2.412  1.00  0.00    -0.391 OA
HETATM   65  H   UNL     1     -11.972  15.126  -2.700  1.00  0.00     0.210 HD
ENDBRANCH  40  64
ENDBRANCH  34  35
ENDBRANCH  23  34
BRANCH  25  66
HETATM   66  C   UNL     1      -6.436  12.895  -0.156  1.00  0.00     0.198 C 
BRANCH  66  67
HETATM   67  O   UNL     1      -7.192  14.128  -0.254  1.00  0.00    -0.398 OA
HETATM   68  H   UNL     1      -6.569  14.800  -0.575  1.00  0.00     0.209 HD
ENDBRANCH  66  67
ENDBRANCH  25  66
ENDBRANCH  19  20
ENDBRANCH  11  19
BRANCH  13  69
HETATM   69  C   UNL     1      -0.197  10.419   0.302  1.00  0.00     0.198 C 
BRANCH  69  70
HETATM   70  O   UNL     1      -1.500  10.953   0.608  1.00  0.00    -0.398 OA
HETATM   71  H   UNL     1      -1.989  10.866  -0.247  1.00  0.00     0.209 HD
ENDBRANCH  69  70
ENDBRANCH  13  69
ENDBRANCH   7   8
ENDBRANCH   1   7
BRANCH   2  72
HETATM   72  N   UNL     1       0.025   3.836   1.612  1.00  0.00     0.090 N 
HETATM   73  H   UNL     1       0.645   4.361   2.246  1.00  0.00     0.313 HD
HETATM   74  H   UNL     1      -0.051   2.888   1.984  1.00  0.00     0.313 HD
ENDBRANCH   2  72
BRANCH   3  75
HETATM   75  O   UNL     1       2.362   2.245   0.385  1.00  0.00    -0.391 OA
HETATM   76  H   UNL     1       3.024   2.486   1.058  1.00  0.00     0.210 HD
ENDBRANCH   3  75
BRANCH   5  77
HETATM   77  C   UNL     1       2.475   6.112  -1.795  1.00  0.00     0.198 C 
BRANCH  77  78
HETATM   78  O   UNL     1       3.715   5.935  -2.477  1.00  0.00    -0.398 OA
HETATM   79  H   UNL     1       4.337   5.516  -1.863  1.00  0.00     0.209 HD
ENDBRANCH  77  78
ENDBRANCH   5  77
BRANCH   4  80
HETATM   80  O   UNL     1       1.974   2.317  -2.659  1.00  0.00    -0.348 OA
BRANCH  80  81
HETATM   81  C   UNL     1       2.204   2.435  -4.150  1.00  0.00     0.296 C 
HETATM   82  C   UNL     1       0.816   2.700  -4.829  1.00  0.00     0.303 C 
HETATM   83  C   UNL     1       0.025   1.302  -5.395  1.00  0.00     0.187 C 
HETATM   84  C   UNL     1       0.789   0.065  -6.040  1.00  0.00     0.186 C 
HETATM   85  C   UNL     1       2.270   0.159  -5.384  1.00  0.00     0.179 C 
HETATM   86  O   UNL     1       2.875   1.488  -5.048  1.00  0.00    -0.349 OA
BRANCH  82  87
HETATM   87  N   UNL     1      -0.122   3.512  -3.912  1.00  0.00     0.090 N 
HETATM   88  H   UNL     1       0.023   3.142  -2.968  1.00  0.00     0.313 HD
HETATM   89  H   UNL     1       0.011   4.529  -3.921  1.00  0.00     0.313 HD
ENDBRANCH  82  87
BRANCH  83  90
HETATM   90  O   UNL     1      -0.798   0.679  -4.359  1.00  0.00    -0.391 OA
HETATM   91  H   UNL     1      -0.660   1.264  -3.599  1.00  0.00     0.210 HD
ENDBRANCH  83  90
BRANCH  84  92
HETATM   92  O   UNL     1       0.483   0.046  -7.536  1.00  0.00    -0.348 OA
BRANCH  92  93
HETATM   93  C   UNL     1       0.295  -1.164  -8.471  1.00  0.00     0.296 C 
HETATM   94  C   UNL     1      -0.231  -0.820  -9.964  1.00  0.00     0.303 C 
HETATM   95  C   UNL     1      -1.663  -1.282 -10.482  1.00  0.00     0.187 C 
HETATM   96  C   UNL     1      -2.265  -2.567  -9.916  1.00  0.00     0.186 C 
HETATM   97  C   UNL     1      -1.555  -2.963  -8.532  1.00  0.00     0.179 C 
HETATM   98  O   UNL     1      -0.219  -2.467  -8.121  1.00  0.00    -0.349 OA
BRANCH  94  99
HETATM   99  N   UNL     1       0.050   0.548 -10.432  1.00  0.00     0.090 NA
HETATM  100  H   UNL     1       0.682   0.976  -9.740  1.00  0.00     0.313 HD
HETATM  101  H   UNL     1       0.595   0.484 -11.293  1.00  0.00     0.313 HD
ENDBRANCH  94  99
BRANCH  95 102
HETATM  102  O   UNL     1      -2.705  -0.302 -10.330  1.00  0.00    -0.391 OA
HETATM  103  H   UNL     1      -2.392   0.318  -9.632  1.00  0.00     0.210 HD
ENDBRANCH  95 102
BRANCH  96 104
HETATM  104  O   UNL     1      -2.979  -3.294 -11.009  1.00  0.00    -0.348 OA
BRANCH 104 105
HETATM  105  C   UNL     1      -2.914  -4.637 -11.514  1.00  0.00     0.296 C 
HETATM  106  C   UNL     1      -3.592  -4.835 -12.979  1.00  0.00     0.303 C 
HETATM  107  C   UNL     1      -5.136  -5.110 -12.952  1.00  0.00     0.187 C 
HETATM  108  C   UNL     1      -5.744  -5.894 -11.768  1.00  0.00     0.186 C 
HETATM  109  C   UNL     1      -4.883  -5.834 -10.478  1.00  0.00     0.179 C 
HETATM  110  O   UNL     1      -3.446  -5.685 -10.667  1.00  0.00    -0.349 OA
BRANCH 106 111
HETATM  111  N   UNL     1      -3.278  -3.865 -14.124  1.00  0.00     0.090 N 
HETATM  112  H   UNL     1      -3.253  -2.948 -13.669  1.00  0.00     0.313 HD
HETATM  113  H   UNL     1      -4.167  -3.824 -14.653  1.00  0.00     0.313 HD
ENDBRANCH 106 111
BRANCH 107 114
HETATM  114  O   UNL     1      -5.841  -3.925 -13.300  1.00  0.00    -0.391 OA
HETATM  115  H   UNL     1      -6.188  -3.491 -12.491  1.00  0.00     0.210 HD
ENDBRANCH 107 114
BRANCH 108 116
HETATM  116  O   UNL     1      -5.927  -7.196 -12.347  1.00  0.00    -0.348 OA
BRANCH 116 117
HETATM  117  C   UNL     1      -6.655  -8.261 -11.714  1.00  0.00     0.296 C 
HETATM  118  C   UNL     1      -7.098  -9.400 -12.708  1.00  0.00     0.303 C 
HETATM  119  C   UNL     1      -8.514  -9.219 -13.274  1.00  0.00     0.187 C 
HETATM  120  C   UNL     1      -9.506  -8.692 -12.212  1.00  0.00     0.180 C 
HETATM  121  C   UNL     1      -8.950  -7.698 -11.163  1.00  0.00     0.179 C 
HETATM  122  O   UNL     1      -7.603  -7.902 -10.732  1.00  0.00    -0.349 OA
BRANCH 118 123
HETATM  123  N   UNL     1      -6.149  -9.535 -13.921  1.00  0.00     0.090 N 
HETATM  124  H   UNL     1      -6.052  -8.571 -14.235  1.00  0.00     0.313 HD
HETATM  125  H   UNL     1      -6.865  -9.809 -14.615  1.00  0.00     0.313 HD
ENDBRANCH 118 123
BRANCH 119 126
HETATM  126  O   UNL     1      -8.331  -8.572 -14.565  1.00  0.00    -0.391 OA
HETATM  127  H   UNL     1      -9.223  -8.333 -14.884  1.00  0.00     0.210 HD
ENDBRANCH 119 126
BRANCH 120 128
HETATM  128  O   UNL     1      -9.797  -9.900 -11.439  1.00  0.00    -0.390 OA
HETATM  129  H   UNL     1     -10.746 -10.115 -11.620  1.00  0.00     0.210 HD
ENDBRANCH 120 128
BRANCH 121 130
HETATM  130  C   UNL     1      -9.242  -6.233 -11.465  1.00  0.00     0.198 C 
BRANCH 130 131
HETATM  131  O   UNL     1     -10.635  -6.125 -11.650  1.00  0.00    -0.398 OA
HETATM  132  H   UNL     1     -10.874  -5.182 -11.552  1.00  0.00     0.209 HD
ENDBRANCH 130 131
ENDBRANCH 121 130
ENDBRANCH 116 117
ENDBRANCH 108 116
BRANCH 109 133
HETATM  133  C   UNL     1      -5.382  -4.747  -9.491  1.00  0.00     0.198 C 
BRANCH 133 134
HETATM  134  O   UNL     1      -5.727  -5.350  -8.247  1.00  0.00    -0.398 OA
HETATM  135  H   UNL     1      -6.157  -4.660  -7.713  1.00  0.00     0.209 HD
ENDBRANCH 133 134
ENDBRANCH 109 133
ENDBRANCH 104 105
ENDBRANCH  96 104
BRANCH  97 136
HETATM  136  C   UNL     1      -2.420  -2.559  -7.300  1.00  0.00     0.198 C 
BRANCH 136 137
HETATM  137  O   UNL     1      -1.843  -3.140  -6.125  1.00  0.00    -0.398 OA
HETATM  138  H   UNL     1      -2.517  -3.169  -5.429  1.00  0.00     0.209 HD
ENDBRANCH 136 137
ENDBRANCH  97 136
ENDBRANCH  92  93
ENDBRANCH  84  92
BRANCH  85 139
HETATM  139  C   UNL     1       2.400  -0.644  -4.052  1.00  0.00     0.198 C 
BRANCH 139 140
HETATM  140  O   UNL     1       3.793  -0.955  -3.774  1.00  0.00    -0.398 OA
HETATM  141  H   UNL     1       4.273  -0.108  -3.722  1.00  0.00     0.209 HD
ENDBRANCH 139 140
ENDBRANCH  85 139
ENDBRANCH  80  81
ENDBRANCH   4  80
TORSDOF 55
