REMARK  6 active torsions:
REMARK  status: ('A' for Active; 'I' for Inactive)
REMARK    1  A    between atoms: C_6  and  O_7 
REMARK    2  A    between atoms: O_7  and  C_8 
REMARK    3  A    between atoms: C_8  and  C_9 
REMARK    4  A    between atoms: C_9  and  C_10 
REMARK    5  A    between atoms: C_9  and  O_12 
REMARK    6  A    between atoms: C_10  and  O_11 
ROOT
HETATM    1  O   UNL     1       3.788  -0.006   0.154  1.00  0.00    -0.349 OA
ENDROOT
BRANCH   1   2
HETATM    2  C   UNL     1       2.424   0.100   0.117  1.00  0.00     0.069 A 
HETATM    3  C   UNL     1       1.711   1.077  -0.581  1.00  0.00     0.038 A 
HETATM    4  C   UNL     1       0.312   1.066  -0.570  1.00  0.00     0.026 A 
HETATM    5  C   UNL     1      -0.372   0.078   0.136  1.00  0.00     0.034 A 
HETATM    6  C   UNL     1       0.332  -0.908   0.822  1.00  0.00     0.026 A 
HETATM    7 CL   UNL     1      -2.091   0.071   0.149  1.00  0.00    -0.084 Cl
HETATM    8  C   UNL     1       1.729  -0.900   0.804  1.00  0.00     0.038 A 
ENDBRANCH   1   2
BRANCH   1   9
HETATM    9  C   UNL     1       4.511   1.227   0.042  1.00  0.00     0.209 C 
BRANCH   9  10
HETATM   10  C   UNL     1       6.008   0.939   0.193  1.00  0.00     0.166 C 
BRANCH  10  11
HETATM   11  C   UNL     1       6.364   0.261   1.518  1.00  0.00     0.198 C 
BRANCH  11  12
HETATM   12  O   UNL     1       7.779   0.065   1.579  1.00  0.00    -0.398 OA
HETATM   13  H   UNL     1       8.045  -0.218   0.680  1.00  0.00     0.209 HD
ENDBRANCH  11  12
ENDBRANCH  10  11
BRANCH  10  14
HETATM   14  O   UNL     1       6.454   0.078  -0.871  1.00  0.00    -0.391 OA
HETATM   15  H   UNL     1       5.823  -0.667  -0.903  1.00  0.00     0.210 HD
ENDBRANCH  10  14
ENDBRANCH   9  10
ENDBRANCH   1   9
TORSDOF 6
