REMARK  3 active torsions:
REMARK  status: ('A' for Active; 'I' for Inactive)
REMARK    1  A    between atoms: C_11  and  N_36 
REMARK    2  A    between atoms: N_28  and  C_29 
REMARK    3  A    between atoms: C_69  and  C_70 
ROOT
HETATM    1  C   UNL     1       0.582   1.475   0.498  1.00  0.00     0.041 A 
HETATM    2  C   UNL     1      -1.116   0.939   0.238  1.00  0.00     0.055 A 
HETATM    3  C   UNL     1      -1.797  -0.415   1.203  1.00  0.00     0.000 A 
HETATM    4  C   UNL     1      -0.728  -1.325   2.326  1.00  0.00     0.076 A 
HETATM    5  C   UNL     1       0.995  -0.810   2.606  1.00  0.00     0.072 A 
HETATM    6  C   UNL     1       1.667   0.548   1.632  1.00  0.00     0.206 A 
HETATM    7  N   UNL     1       3.057   0.783   1.719  1.00  0.00    -0.014 N 
HETATM    8  C   UNL     1       3.958   1.441   0.926  1.00  0.00     0.260 C 
HETATM    9  N   UNL     1       5.144   1.866   1.251  1.00  0.00    -0.316 N 
ATOM     10  HN  UNL     1       5.771   2.240   0.539  1.00  0.00     0.169 HD
HETATM   11  C   UNL     1       5.537   1.806   2.548  1.00  0.00     0.149 C 
HETATM   12  N   UNL     1       6.040   2.826   3.148  1.00  0.00    -0.356 N 
ATOM     13  HN  UNL     1       6.265   2.760   4.141  1.00  0.00     0.163 HD
HETATM   14  C   UNL     1       6.299   4.094   2.430  1.00  0.00     0.260 A 
HETATM   15  C   UNL     1       5.019   4.855   2.067  1.00  0.00     0.432 C 
HETATM   16  C   UNL     1       5.194   6.277   1.502  1.00  0.00     0.076 C 
HETATM   17  C   UNL     1       5.702   7.310   2.506  1.00  0.00     0.059 C 
HETATM   18  C   UNL     1       5.583   8.741   1.960  1.00  0.00    -0.014 C 
HETATM   19  C   UNL     1       6.114   9.736   2.989  1.00  0.00     0.057 C 
HETATM   20  N   UNL     1       6.034  11.078   2.440  1.00  0.00    -0.383 N 
ATOM     21  HN  UNL     1       5.757  11.221   1.469  1.00  0.00     0.160 HD
HETATM   22  C   UNL     1       6.315  12.082   3.188  1.00  0.00     0.146 C 
HETATM   23  N   UNL     1       6.708  12.020   4.493  1.00  0.00     0.000 N 
HETATM   24  N   UNL     1       6.099  13.270   2.570  1.00  0.00    -0.318 N 
ATOM     25  HN  UNL     1       5.560  13.245   1.705  1.00  0.00     0.169 HD
HETATM   26  C   UNL     1       6.507  14.430   2.966  1.00  0.00     0.241 C 
HETATM   27  N   UNL     1       7.261  14.679   4.075  1.00  0.00     0.000 N 
HETATM   28  N   UNL     1       6.178  15.592   2.305  1.00  0.00    -0.074 N 
HETATM   29  N   UNL     1       5.435   0.613   3.203  1.00  0.00     0.000 NA
HETATM   30  N   UNL     1       3.669   1.588  -0.393  1.00  0.00     0.000 NA
HETATM   31 CL   UNL     1      -3.374  -0.993   0.857  1.00  0.00    -0.093 Cl
HETATM   32  H   UNL     1       3.422   0.532   2.632  1.00  0.00     0.289 HD
HETATM   33  H   UNL     1       6.546  11.122   4.922  1.00  0.00     0.017 HD
HETATM   34  H   UNL     1       6.265  12.767   5.018  1.00  0.00     0.017 HD
HETATM   35  H   UNL     1       7.848  13.891   4.340  1.00  0.00     0.024 HD
HETATM   36  H   UNL     1       7.723  15.573   4.147  1.00  0.00     0.028 HD
HETATM   37  H   UNL     1       6.896  16.297   2.241  1.00  0.00     0.267 HD
HETATM   38  H   UNL     1       5.581  -0.156   2.557  1.00  0.00     0.000 HD
HETATM   39  H   UNL     1       6.108   0.580   3.963  1.00  0.00     0.000 HD
HETATM   40  H   UNL     1       3.090   2.413  -0.518  1.00  0.00     0.000 HD
HETATM   41  H   UNL     1       4.547   1.858  -0.842  1.00  0.00     0.000 HD
HETATM   42  C   UNL     2       0.257  -0.614   0.675  1.00  0.00    -0.025 C 
HETATM   43  C   UNL     2      -0.347   0.767   2.274  1.00  0.00     0.008 C 
HETATM   44  C   UNL     2      -0.904   0.581   3.988  1.00  0.00     0.185 C 
HETATM   45  C   UNL     2      -1.815   1.808   4.481  1.00  0.00     0.004 C 
HETATM   46  C   UNL     2      -1.901   2.145   6.005  1.00  0.00     0.039 C 
HETATM   47  C   UNL     2      -0.969   1.418   6.955  1.00  0.00     0.052 C 
HETATM   48  O   UNL     2      -0.401   0.355   6.755  1.00  0.00    -0.656 OA
HETATM   49  O   UNL     2      -0.800   2.090   8.113  1.00  0.00    -0.962 OA
HETATM   50  O   UNL     2      -1.664   3.552   6.287  1.00  0.00     0.000 OA
HETATM   51  O   UNL     2      -1.643   3.040   3.772  1.00  0.00     0.000 OA
HETATM   52  O   UNL     2      -1.599  -0.588   4.428  1.00  0.00     0.000 OA
HETATM   53  O   UNL     2       0.483   2.084   2.735  1.00  0.00     0.000 OA
HETATM   54  O   UNL     2       1.150  -0.400  -0.539  1.00  0.00     0.000 OA
HETATM   55  H   UNL     2      -1.463   2.765   8.375  1.00  0.00     0.013 HD
HETATM   56  H   UNL     2      -0.783   3.761   5.918  1.00  0.00     0.000 HD
HETATM   57  H   UNL     2      -0.782   3.037   3.299  1.00  0.00     0.000 HD
HETATM   58  H   UNL     2      -1.054  -0.990   5.136  1.00  0.00     0.018 HD
HETATM   59  H   UNL     2       1.201   1.773   3.322  1.00  0.00     0.018 HD
HETATM   60  H   UNL     2       2.077  -0.526  -0.279  1.00  0.00     0.056 HD
HETATM   61  C   UNL     3       1.622   0.962  -3.155  1.00  0.00    -0.011 C 
HETATM   62  C   UNL     3       0.480   0.021  -3.541  1.00  0.00    -0.004 C 
HETATM   63  C   UNL     3       0.444  -0.446  -4.998  1.00  0.00     0.006 C 
HETATM   64  C   UNL     3      -0.629  -1.559  -5.223  1.00  0.00     0.028 C 
HETATM   65  C   UNL     3      -2.083  -1.168  -4.838  1.00  0.00     0.203 C 
HETATM   66  C   UNL     3      -3.000  -2.374  -5.033  1.00  0.00     0.155 A 
HETATM   67  O   UNL     3      -3.397  -2.784  -6.113  1.00  0.00    -0.356 OA
HETATM   68  O   UNL     3      -3.355  -2.957  -3.858  1.00  0.00     0.000 OA
HETATM   69  O   UNL     3      -2.232  -0.813  -3.440  1.00  0.00     0.000 OA
HETATM   70  O   UNL     3      -0.538  -1.962  -6.595  1.00  0.00     0.000 OA
HETATM   71  O   UNL     3       0.224   0.619  -5.929  1.00  0.00     0.000 OA
HETATM   72  O   UNL     3       0.430  -1.178  -2.755  1.00  0.00     0.000 OA
HETATM   73  O   UNL     3       2.899   0.363  -3.320  1.00  0.00     0.000 OA
HETATM   74  H   UNL     3      -3.088  -2.348  -3.134  1.00  0.00     0.000 HD
HETATM   75  H   UNL     3      -1.456  -1.156  -2.938  1.00  0.00     0.000 HD
HETATM   76  H   UNL     3      -0.437  -1.145  -7.121  1.00  0.00     0.000 HD
HETATM   77  H   UNL     3      -0.270   1.331  -5.489  1.00  0.00     0.000 HD
HETATM   78  H   UNL     3       1.305  -1.605  -2.834  1.00  0.00     0.000 HD
HETATM   79  H   UNL     3       3.293   0.322  -2.427  1.00  0.00     0.000 HD
ENDROOT
BRANCH  28  80
HETATM   80  C   UNL     1       5.223  15.635   1.264  1.00  0.00     0.180 A 
HETATM   81  C   UNL     1       3.998  14.963   1.401  1.00  0.00     0.045 A 
HETATM   82  C   UNL     1       3.083  14.896   0.349  1.00  0.00     0.220 A 
HETATM   83  C   UNL     1       3.385  15.513  -0.858  1.00  0.00    -0.006 A 
HETATM   84  C   UNL     1       4.589  16.198  -1.015  1.00  0.00     0.014 A 
HETATM   85 CL   UNL     1       2.272  15.411  -2.165  1.00  0.00    -0.093 Cl
HETATM   86  C   UNL     1       5.508  16.259   0.043  1.00  0.00     0.006 A 
ENDBRANCH  28  80
TORSDOF 3
