REMARK  6 active torsions:
REMARK  status: ('A' for Active; 'I' for Inactive)
REMARK    1  A    between atoms: C_2  and  C_4 
REMARK    2  A    between atoms: C_4  and  C_5 
REMARK    3  A    between atoms: C_5  and  C_6 
REMARK    4  A    between atoms: C_6  and  C_7 
REMARK    5  A    between atoms: C_7  and  C_9 
REMARK    6  A    between atoms: C_24  and  O_26 
ROOT
HETATM    1  C   UNL     1       5.232   1.331   2.905  1.00  0.00    -0.002 C 
HETATM    2  C   UNL     1       4.514   0.417   3.964  1.00  0.00     0.006 C 
HETATM    3  C   UNL     1       3.050   0.296   3.532  1.00  0.00     0.006 C 
HETATM    4  C   UNL     1       2.906   0.988   2.174  1.00  0.00    -0.001 C 
HETATM    5  C   UNL     1       3.885   2.175   2.359  1.00  0.00    -0.036 C 
HETATM    6  C   UNL     1       3.428   3.095   1.183  1.00  0.00     0.010 C 
HETATM    7  C   UNL     1       3.495   2.655  -0.243  1.00  0.00     0.007 C 
HETATM    8  C   UNL     1       3.350   1.148  -0.482  1.00  0.00     0.003 C 
HETATM    9  C   UNL     1       3.423   0.313   0.852  1.00  0.00    -0.001 C 
HETATM   10  C   UNL     1       3.027  -1.130   0.568  1.00  0.00     0.033 C 
HETATM   11  C   UNL     1       3.972  -1.670  -0.486  1.00  0.00    -0.023 C 
HETATM   12  C   UNL     1       4.699  -0.890  -1.320  1.00  0.00    -0.072 C 
HETATM   13  C   UNL     1       4.419   0.609  -1.550  1.00  0.00    -0.017 C 
HETATM   14  C   UNL     1       3.895   0.631  -3.017  1.00  0.00     0.016 C 
HETATM   15  C   UNL     1       4.963   0.095  -4.005  1.00  0.00     0.033 C 
HETATM   16  C   UNL     1       5.441  -1.320  -3.643  1.00  0.00     0.122 C 
HETATM   17  C   UNL     1       5.806  -1.471  -2.165  1.00  0.00     0.066 C 
HETATM   18  C   UNL     1       5.692   1.524  -1.573  1.00  0.00     0.020 C 
HETATM   19  C   UNL     1       3.623   3.185   3.547  1.00  0.00     0.016 C 
ENDROOT
BRANCH   1  20
HETATM   20  C   UNL     1       6.451   0.375   2.355  1.00  0.00    -0.014 C 
HETATM   21  C   UNL     1       7.418   1.041   1.380  1.00  0.00     0.010 C 
BRANCH  20  22
HETATM   22  C   UNL     1       6.211  -1.120   1.914  1.00  0.00     0.005 C 
BRANCH  22  23
HETATM   23  C   UNL     1       7.413  -2.075   1.740  1.00  0.00     0.001 C 
BRANCH  23  24
HETATM   24  C   UNL     1       8.121  -2.561   3.004  1.00  0.00     0.004 C 
BRANCH  24  25
HETATM   25  C   UNL     1       7.307  -3.457   3.953  1.00  0.00    -0.023 C 
HETATM   26  C   UNL     1       6.897  -4.784   3.297  1.00  0.00     0.009 C 
HETATM   27  C   UNL     1       8.134  -3.750   5.205  1.00  0.00     0.009 C 
ENDBRANCH  24  25
ENDBRANCH  23  24
ENDBRANCH  22  23
ENDBRANCH  20  22
ENDBRANCH   1  20
BRANCH  16  28
HETATM   28  O   UNL     1       6.577  -1.659  -4.445  1.00  0.00    -0.395 OA
HETATM   29  H   UNL     1       7.337  -1.125  -4.154  1.00  0.00     0.210 HD
ENDBRANCH  16  28
TORSDOF 6
