REMARK  22 active torsions:
REMARK  status: ('A' for Active; 'I' for Inactive)
REMARK    1  A    between atoms: C_2  and  C_4 
REMARK    2  A    between atoms: C_4  and  C_5 
REMARK    3  A    between atoms: C_5  and  C_6 
REMARK    4  A    between atoms: C_6  and  C_7 
REMARK    5  A    between atoms: C_7  and  C_8 
REMARK    6  A    between atoms: C_8  and  C_9 
REMARK    7  A    between atoms: C_9  and  C_10 
REMARK    8  A    between atoms: C_10  and  C_11 
REMARK    9  A    between atoms: C_11  and  C_12 
REMARK   10  A    between atoms: C_12  and  C_13 
REMARK   11  A    between atoms: C_13  and  C_14 
REMARK   12  A    between atoms: C_14  and  C_15 
REMARK   13  A    between atoms: C_15  and  C_16 
REMARK   14  A    between atoms: C_16  and  C_17 
REMARK   15  A    between atoms: C_17  and  C_18 
REMARK   16  A    between atoms: C_18  and  O_20 
REMARK   17  A    between atoms: O_20  and  C_21 
REMARK   18  A    between atoms: C_37  and  C_38 
REMARK   19  A    between atoms: C_38  and  C_40 
REMARK   20  A    between atoms: C_40  and  C_41 
REMARK   21  A    between atoms: C_41  and  C_42 
REMARK   22  A    between atoms: C_42  and  C_43 
ROOT
HETATM    1  C   UNL     1      18.581   8.638   5.769  1.00  0.00     0.136 C 
HETATM    2  C   UNL     1      18.911   9.333   4.453  1.00  0.00     0.034 C 
HETATM    3  C   UNL     1      20.108  10.221   4.661  1.00  0.00     0.016 C 
HETATM    4  C   UNL     1      21.311   9.267   4.941  1.00  0.00    -0.017 C 
HETATM    5  C   UNL     1      22.302  10.124   5.696  1.00  0.00     0.003 C 
HETATM    6  C   UNL     1      23.145  10.887   4.634  1.00  0.00     0.007 C 
HETATM    7  C   UNL     1      24.064  11.585   5.483  1.00  0.00     0.010 C 
HETATM    8  C   UNL     1      24.903  10.518   6.253  1.00  0.00    -0.036 C 
HETATM    9  C   UNL     1      24.139  10.200   7.529  1.00  0.00    -0.001 C 
HETATM   10  C   UNL     1      23.043   9.393   6.944  1.00  0.00    -0.001 C 
HETATM   11  C   UNL     1      22.298   8.640   7.975  1.00  0.00     0.033 C 
HETATM   12  C   UNL     1      21.481   7.748   7.136  1.00  0.00    -0.023 C 
HETATM   13  C   UNL     1      20.953   8.067   5.927  1.00  0.00    -0.072 C 
HETATM   14  C   UNL     1      19.554   7.508   5.940  1.00  0.00     0.067 C 
HETATM   15  C   UNL     1      23.813  11.529   8.191  1.00  0.00     0.006 C 
HETATM   16  C   UNL     1      25.066  12.399   7.696  1.00  0.00     0.006 C 
HETATM   17  C   UNL     1      26.045  11.311   6.806  1.00  0.00    -0.002 C 
HETATM   18  C   UNL     1      25.185   9.165   5.410  1.00  0.00     0.016 C 
HETATM   19  C   UNL     1      21.822   9.014   3.426  1.00  0.00     0.020 C 
ENDROOT
BRANCH   1  20
HETATM   20  O   UNL     1      18.777   9.527   6.931  1.00  0.00    -0.316 OA
BRANCH  20  21
HETATM   21  C   UNL     1      17.704  10.005   7.543  1.00  0.00     0.259 C 
HETATM   22  O   UNL     1      16.574   9.918   7.148  1.00  0.00    -0.265 OA
BRANCH  21  23
HETATM   23  C   UNL     1      18.034  10.619   8.896  1.00  0.00     0.111 C 
BRANCH  23  24
HETATM   24  C   UNL     1      19.384  11.303   8.964  1.00  0.00     0.010 C 
BRANCH  24  25
HETATM   25  C   UNL     1      19.716  11.940  10.298  1.00  0.00     0.000 C 
BRANCH  25  26
HETATM   26  C   UNL     1      19.691  10.914  11.426  1.00  0.00     0.000 C 
BRANCH  26  27
HETATM   27  C   UNL     1      20.074  11.547  12.751  1.00  0.00     0.000 C 
BRANCH  27  28
HETATM   28  C   UNL     1      20.019  10.502  13.856  1.00  0.00     0.000 C 
BRANCH  28  29
HETATM   29  C   UNL     1      20.395  11.128  15.187  1.00  0.00     0.000 C 
BRANCH  29  30
HETATM   30  C   UNL     1      20.339  10.084  16.289  1.00  0.00     0.000 C 
BRANCH  30  31
HETATM   31  C   UNL     1      20.716  10.709  17.621  1.00  0.00     0.000 C 
BRANCH  31  32
HETATM   32  C   UNL     1      20.660   9.661  18.722  1.00  0.00     0.000 C 
BRANCH  32  33
HETATM   33  C   UNL     1      21.037  10.283  20.055  1.00  0.00     0.000 C 
BRANCH  33  34
HETATM   34  C   UNL     1      20.988   9.244  21.167  1.00  0.00     0.000 C 
BRANCH  34  35
HETATM   35  C   UNL     1      21.365   9.899  22.488  1.00  0.00     0.000 C 
BRANCH  35  36
HETATM   36  C   UNL     1      21.323   8.904  23.644  1.00  0.00     0.004 C 
BRANCH  36  37
HETATM   37  C   UNL     1      21.745   9.526  24.985  1.00  0.00    -0.023 C 
HETATM   38  C   UNL     1      21.651   8.465  26.086  1.00  0.00     0.009 C 
HETATM   39  C   UNL     1      23.157  10.116  24.914  1.00  0.00     0.009 C 
ENDBRANCH  36  37
ENDBRANCH  35  36
ENDBRANCH  34  35
ENDBRANCH  33  34
ENDBRANCH  32  33
ENDBRANCH  31  32
ENDBRANCH  30  31
ENDBRANCH  29  30
ENDBRANCH  28  29
ENDBRANCH  27  28
ENDBRANCH  26  27
ENDBRANCH  25  26
ENDBRANCH  24  25
ENDBRANCH  23  24
ENDBRANCH  21  23
ENDBRANCH  20  21
ENDBRANCH   1  20
BRANCH  17  40
HETATM   40  C   UNL     1      27.093  11.387   5.556  1.00  0.00    -0.014 C 
HETATM   41  C   UNL     1      27.933  10.053   5.362  1.00  0.00     0.010 C 
BRANCH  40  42
HETATM   42  C   UNL     1      26.606  11.808   4.105  1.00  0.00     0.005 C 
BRANCH  42  43
HETATM   43  C   UNL     1      26.350  13.321   3.988  1.00  0.00     0.001 C 
BRANCH  43  44
HETATM   44  C   UNL     1      27.573  14.156   4.266  1.00  0.00     0.004 C 
BRANCH  44  45
HETATM   45  C   UNL     1      28.736  13.901   3.318  1.00  0.00    -0.023 C 
HETATM   46  C   UNL     1      28.369  14.220   1.872  1.00  0.00     0.009 C 
HETATM   47  C   UNL     1      29.898  14.768   3.783  1.00  0.00     0.009 C 
ENDBRANCH  44  45
ENDBRANCH  43  44
ENDBRANCH  42  43
ENDBRANCH  40  42
ENDBRANCH  17  40
TORSDOF 22
