REMARK  3 active torsions:
REMARK  status: ('A' for Active; 'I' for Inactive)
REMARK    1  A    between atoms: C_4  and  C_7 
REMARK    2  A    between atoms: C_12  and  O_19 
REMARK    3  A    between atoms: C_14  and  O_18 
ROOT
HETATM    1  C   UNL     1      -2.841   0.265  -0.919  1.00  0.00     0.090 A 
HETATM    2  C   UNL     1      -3.189   1.084  -1.923  1.00  0.00     0.094 A 
HETATM    3  C   UNL     1      -4.612   1.341  -2.176  1.00  0.00     0.190 A 
HETATM    4  O   UNL     1      -4.980   2.097  -3.071  1.00  0.00    -0.287 OA
HETATM    5  C   UNL     1      -5.576   0.696  -1.284  1.00  0.00     0.081 A 
HETATM    6  C   UNL     1      -6.946   0.969  -1.365  1.00  0.00     0.085 A 
HETATM    7  C   UNL     1      -7.839   0.335  -0.506  1.00  0.00     0.074 A 
HETATM    8  C   UNL     1      -7.351  -0.582   0.422  1.00  0.00     0.071 A 
HETATM    9  C   UNL     1      -5.988  -0.857   0.515  1.00  0.00     0.075 A 
HETATM   10  C   UNL     1      -5.096  -0.198  -0.330  1.00  0.00     0.095 A 
HETATM   11  O   UNL     1      -3.756  -0.450  -0.155  1.00  0.00    -0.309 OA
ENDROOT
BRANCH   1  12
HETATM   12  C   UNL     1      -1.427   0.079  -0.517  1.00  0.00    -0.002 A 
HETATM   13  C   UNL     1      -0.487   1.117  -0.654  1.00  0.00     0.014 A 
HETATM   14  C   UNL     1       0.831   0.963  -0.215  1.00  0.00     0.001 A 
HETATM   15  C   UNL     1       1.232  -0.228   0.379  1.00  0.00     0.000 A 
HETATM   16  C   UNL     1       0.317  -1.267   0.531  1.00  0.00     0.001 A 
HETATM   17  C   UNL     1      -1.002  -1.115   0.087  1.00  0.00     0.014 A 
ENDBRANCH   1  12
BRANCH   6  18
HETATM   18  O   UNL     1      -7.475   1.866  -2.254  1.00  0.00    -0.360 OA
HETATM   19  H   UNL     1      -6.741   2.222  -2.804  1.00  0.00     0.217 HD
ENDBRANCH   6  18
BRANCH   8  20
HETATM   20  O   UNL     1      -8.189  -1.232   1.279  1.00  0.00    -0.361 OA
HETATM   21  H   UNL     1      -9.097  -0.920   1.126  1.00  0.00     0.217 HD
ENDBRANCH   8  20
TORSDOF 3
