REMARK  6 active torsions:
REMARK  status: ('A' for Active; 'I' for Inactive)
REMARK    1  A    between atoms: C_3  and  S_26 
REMARK    2  A    between atoms: C_6  and  N_7 
REMARK    3  A    between atoms: N_9  and  C_11 
REMARK    4  A    between atoms: C_12  and  O_25 
REMARK    5  A    between atoms: C_19  and  S_21 
REMARK    6  A    between atoms: S_26  and  O_27 
ROOT
HETATM    1 NA   UNL     3       5.111  -0.196   0.020  1.00  0.00     0.000 Na
ENDROOT
TORSDOF 6
