REMARK  6 active torsions:
REMARK  status: ('A' for Active; 'I' for Inactive)
REMARK    1  A    between atoms: C_7  and  N_15 
REMARK    2  A    between atoms: C_10  and  S_11 
REMARK    3  A    between atoms: N_17  and  C_19 
REMARK    4  A    between atoms: C_23  and  S_34 
REMARK    5  A    between atoms: C_27  and  S_30 
REMARK    6  A    between atoms: C_28  and  O_29 
ROOT
HETATM    1 NA   UNL     2       0.114  -1.587   3.410  1.00  0.00     0.000 Na
ENDROOT
TORSDOF 6
