REMARK  6 active torsions:
REMARK  status: ('A' for Active; 'I' for Inactive)
REMARK    1  A    between atoms: C_4  and  N_25 
REMARK    2  A    between atoms: C_5  and  N_8 
REMARK    3  A    between atoms: N_10  and  C_12 
REMARK    4  A    between atoms: C_12  and  C_13 
REMARK    5  A    between atoms: C_12  and  C_16 
REMARK       I    between atoms: C_16  and  N_18 
REMARK    6  A    between atoms: N_18  and  C_19 
ROOT
HETATM    1  N   UNL     1      -3.302   0.625  -0.915  1.00  0.00    -0.301 N 
ATOM      2  HN  UNL     1      -3.777   0.363  -1.778  1.00  0.00     0.186 HD
HETATM    3  N   UNL     1      -3.895   1.077   0.082  1.00  0.00    -0.315 N 
ATOM      4  HN  UNL     1      -3.410   1.432   0.906  1.00  0.00     0.181 HD
ENDROOT
BRANCH   3   5
HETATM    5  C   UNL     1      -5.364   1.051  -0.040  1.00  0.00     0.260 C 
BRANCH   5   6
HETATM    6  C   UNL     1      -5.926   0.373   1.195  1.00  0.00     0.156 C 
HETATM    7  O   UNL     1      -6.965   0.748   1.743  1.00  0.00    -0.296 OA
HETATM    8  C   UNL     1      -5.218  -0.852   1.724  1.00  0.00     0.093 C 
ENDBRANCH   5   6
BRANCH   5   9
HETATM    9  C   UNL     1      -5.865   2.478  -0.228  1.00  0.00     0.253 C 
HETATM   10  O   UNL     1      -6.570   2.742  -1.203  1.00  0.00    -0.270 OA
HETATM   11  N   UNL     1      -5.450   3.393   0.732  1.00  0.00    -0.325 N 
HETATM   12  H   UNL     1      -4.704   3.108   1.359  1.00  0.00     0.169 HD
BRANCH  11  13
HETATM   13  C   UNL     1      -5.899   4.730   0.862  1.00  0.00     0.034 A 
HETATM   14  C   UNL     1      -7.007   5.238   0.177  1.00  0.00     0.029 A 
HETATM   15  C   UNL     1      -7.398   6.572   0.333  1.00  0.00     0.002 A 
HETATM   16  C   UNL     1      -6.689   7.412   1.185  1.00  0.00     0.000 A 
HETATM   17  C   UNL     1      -5.599   6.913   1.893  1.00  0.00     0.002 A 
HETATM   18  C   UNL     1      -5.210   5.576   1.739  1.00  0.00     0.029 A 
ENDBRANCH  11  13
ENDBRANCH   5   9
ENDBRANCH   3   5
BRANCH   1  19
HETATM   19  C   UNL     1      -1.902   0.511  -0.732  1.00  0.00     0.080 A 
HETATM   20  C   UNL     1      -1.053   1.397  -0.051  1.00  0.00     0.131 A 
HETATM   21  C   UNL     1       0.345   1.232  -0.028  1.00  0.00     0.045 A 
HETATM   22  C   UNL     1       0.936   0.151  -0.684  1.00  0.00    -0.059 A 
HETATM   23  C   UNL     1       2.425  -0.020  -0.694  1.00  0.00     0.048 C 
HETATM   24  C   UNL     1       0.109  -0.761  -1.346  1.00  0.00     0.009 A 
HETATM   25  C   UNL     1      -1.283  -0.578  -1.371  1.00  0.00     0.034 A 
BRANCH  20  26
HETATM   26  N   UNL     1      -1.568   2.559   0.639  1.00  0.00    -0.113 N 
HETATM   27  O   UNL     1      -1.243   3.666   0.187  1.00  0.00    -0.532 OA
HETATM   28  O   UNL     1      -2.224   2.378   1.674  1.00  0.00    -0.532 OA
ENDBRANCH  20  26
ENDBRANCH   1  19
TORSDOF 6
