REMARK  12 active torsions:
REMARK  status: ('A' for Active; 'I' for Inactive)
REMARK    1  A    between atoms: C_2  and  N_3 
REMARK    2  A    between atoms: N_3  and  C_4 
REMARK    3  A    between atoms: N_3  and  S_6 
REMARK    4  A    between atoms: S_6  and  C_9 
REMARK    5  A    between atoms: C_11  and  N_17 
REMARK    6  A    between atoms: C_12  and  O_15 
REMARK    7  A    between atoms: N_19  and  C_21 
REMARK    8  A    between atoms: C_22  and  O_45 
REMARK    9  A    between atoms: C_23  and  C_31 
REMARK       I    between atoms: C_31  and  N_33 
REMARK   10  A    between atoms: N_33  and  C_34 
REMARK   11  A    between atoms: C_37  and  O_42 
REMARK   12  A    between atoms: C_39  and  O_40 
ROOT
HETATM    1  C   UNL     1       6.286   0.809   7.580  1.00  0.00     0.093 C 
HETATM    2  C   UNL     1       7.302   0.050   8.229  1.00  0.00     0.110 C 
HETATM    3  C   UNL     1       8.042   0.598   9.292  1.00  0.00     0.068 C 
HETATM    4  C   UNL     1       8.008   1.981   9.461  1.00  0.00     0.032 C 
HETATM    5  C   UNL     1       7.051   2.748   8.811  1.00  0.00    -0.022 C 
HETATM    6  C   UNL     1       7.000   4.110   9.068  1.00  0.00     0.012 C 
HETATM    7  C   UNL     1       5.766   4.721   9.186  1.00  0.00     0.001 C 
HETATM    8  C   UNL     1       4.677   4.096   8.601  1.00  0.00     0.001 C 
HETATM    9  C   UNL     1       4.851   2.885   7.913  1.00  0.00     0.014 C 
HETATM   10  C   UNL     1       6.044   2.133   8.058  1.00  0.00     0.005 C 
ENDROOT
BRANCH   1  11
HETATM   11  N   UNL     1       5.465   0.200   6.573  1.00  0.00    -0.297 N 
HETATM   12  N   UNL     1       5.400   0.929   5.550  1.00  0.00    -0.297 N 
ATOM     13  HN  UNL     1       5.979   1.763   5.453  1.00  0.00     0.187 HD
ATOM     14  HN  UNL     1       4.998  -0.701   6.673  1.00  0.00     0.187 HD
BRANCH  12  15
HETATM   15  C   UNL     1       4.481   0.539   4.531  1.00  0.00     0.082 A 
HETATM   16  C   UNL     1       3.534  -0.499   4.708  1.00  0.00     0.058 A 
HETATM   17  C   UNL     1       2.612  -0.829   3.695  1.00  0.00     0.077 A 
HETATM   18  C   UNL     1       2.581  -0.132   2.494  1.00  0.00     0.028 A 
HETATM   19  C   UNL     1       3.497   0.890   2.300  1.00  0.00     0.040 A 
HETATM   20  C   UNL     1       4.443   1.231   3.291  1.00  0.00     0.096 A 
BRANCH  17  21
HETATM   21  S   UNL     1       1.454  -2.162   3.910  1.00  0.00     0.243 S 
HETATM   22  O   UNL     1       0.151  -1.652   3.530  1.00  0.00    -0.206 OA
HETATM   23  O   UNL     1       1.697  -2.776   5.207  1.00  0.00    -0.206 OA
BRANCH  21  24
HETATM   24  N   UNL     1       1.944  -3.287   2.703  1.00  0.00    -0.207 NA
BRANCH  24  25
HETATM   25  C   UNL     1       3.314  -3.839   2.911  1.00  0.00     0.103 C 
HETATM   26  C   UNL     1       3.808  -4.684   1.747  1.00  0.00     0.021 C 
ENDBRANCH  24  25
BRANCH  24  27
HETATM   27  C   UNL     1       0.897  -4.289   2.320  1.00  0.00     0.103 C 
HETATM   28  C   UNL     1       0.537  -5.249   3.438  1.00  0.00     0.021 C 
ENDBRANCH  24  27
ENDBRANCH  21  24
ENDBRANCH  17  21
BRANCH  20  29
HETATM   29  O   UNL     1       5.211   2.283   2.855  1.00  0.00    -0.354 OA
HETATM   30  C   UNL     1       6.329   2.702   3.613  1.00  0.00     0.210 C 
ENDBRANCH  20  29
ENDBRANCH  12  15
ENDBRANCH   1  11
BRANCH   2  31
HETATM   31  O   UNL     1       7.566  -1.237   7.822  1.00  0.00    -0.357 OA
HETATM   32  H   UNL     1       7.052  -1.386   7.004  1.00  0.00     0.217 HD
ENDBRANCH   2  31
BRANCH   3  33
HETATM   33  C   UNL     1       8.802  -0.143  10.347  1.00  0.00     0.259 C 
HETATM   34  O   UNL     1       8.993   0.432  11.434  1.00  0.00    -0.267 OA
HETATM   35  N   UNL     1       9.290  -1.374  10.034  1.00  0.00    -0.320 N 
HETATM   36  H   UNL     1       9.253  -1.644   9.064  1.00  0.00     0.169 HD
BRANCH  35  37
HETATM   37  C   UNL     1      10.257  -1.996  10.860  1.00  0.00     0.070 A 
HETATM   38  C   UNL     1       9.987  -2.156  12.231  1.00  0.00     0.059 A 
HETATM   39  C   UNL     1      10.862  -2.851  13.078  1.00  0.00     0.069 A 
HETATM   40  C   UNL     1      12.051  -3.371  12.562  1.00  0.00     0.092 A 
HETATM   41 CL   UNL     1      10.302  -3.071  14.698  1.00  0.00    -0.081 Cl
HETATM   42  C   UNL     1      12.328  -3.191  11.192  1.00  0.00     0.077 A 
HETATM   43  C   UNL     1      11.459  -2.496  10.341  1.00  0.00     0.097 A 
BRANCH  40  44
HETATM   44  O   UNL     1      13.000  -4.131  13.193  1.00  0.00    -0.354 OA
HETATM   45  C   UNL     1      13.255  -3.894  14.571  1.00  0.00     0.210 C 
ENDBRANCH  40  44
BRANCH  43  46
HETATM   46  O   UNL     1      11.873  -2.393   9.039  1.00  0.00    -0.354 OA
HETATM   47  C   UNL     1      11.662  -1.133   8.402  1.00  0.00     0.210 C 
ENDBRANCH  43  46
ENDBRANCH  35  37
ENDBRANCH   3  33
TORSDOF 12
