REMARK  1 active torsions:
REMARK  status: ('A' for Active; 'I' for Inactive)
REMARK    1  A    between atoms: C_9  and  C_12 
ROOT
HETATM    1  C   UNL     1       2.456  -0.666  -0.004  1.00  0.00     0.001 A 
HETATM    2  C   UNL     1       2.412   0.723  -0.021  1.00  0.00     0.002 A 
HETATM    3  C   UNL     1       1.178   1.383  -0.057  1.00  0.00     0.030 A 
HETATM    4  C   UNL     1      -0.025   0.688  -0.073  1.00  0.00     0.042 A 
HETATM    5  C   UNL     1       0.030  -0.721  -0.058  1.00  0.00    -0.009 A 
HETATM    6  C   UNL     1       1.267  -1.390  -0.025  1.00  0.00     0.013 A 
HETATM    7  C   UNL     1      -1.177  -1.425  -0.064  1.00  0.00     0.015 A 
HETATM    8  C   UNL     1      -2.380  -0.729  -0.061  1.00  0.00     0.027 A 
HETATM    9  C   UNL     1      -2.353   0.661  -0.053  1.00  0.00     0.029 A 
HETATM   10  N   UNL     1      -1.192   1.366  -0.081  1.00  0.00    -0.358 N 
ATOM     11  HN  UNL     1      -1.202   2.386  -0.107  1.00  0.00     0.166 HD
ENDROOT
BRANCH   9  12
HETATM   12  C   UNL     1      -3.639   1.426   0.080  1.00  0.00     0.185 A 
HETATM   13  C   UNL     1      -3.959   2.341  -1.084  1.00  0.00     0.177 A 
HETATM   14  O   UNL     1      -4.085   2.040  -2.258  1.00  0.00    -0.291 OA
HETATM   15  C   UNL     1      -4.213   3.684  -0.556  1.00  0.00     0.025 A 
HETATM   16  C   UNL     1      -4.662   4.809  -1.226  1.00  0.00     0.016 A 
HETATM   17  C   UNL     1      -4.000   3.698   0.816  1.00  0.00     0.025 A 
HETATM   18  C   UNL     1      -4.879   5.969  -0.473  1.00  0.00     0.001 A 
HETATM   19  C   UNL     1      -4.639   5.985   0.915  1.00  0.00     0.001 A 
HETATM   20  C   UNL     1      -4.195   4.837   1.576  1.00  0.00     0.016 A 
HETATM   21  C   UNL     1      -3.634   2.359   1.274  1.00  0.00     0.177 A 
HETATM   22  O   UNL     1      -3.449   2.078   2.445  1.00  0.00    -0.291 OA
ENDBRANCH   9  12
TORSDOF 1
