REMARK  4 active torsions:
REMARK  status: ('A' for Active; 'I' for Inactive)
REMARK    1  A    between atoms: C_5  and  N_8 
REMARK    2  A    between atoms: N_8  and  C_9 
REMARK    3  A    between atoms: C_12  and  N_15 
REMARK    4  A    between atoms: N_15  and  C_16 
ROOT
HETATM    1  C   UNL     1      -4.261   1.118  -0.495  1.00  0.00     0.048 C 
HETATM    2  C   UNL     1      -4.126   2.073  -1.507  1.00  0.00     0.058 C 
HETATM    3  C   UNL     1      -4.514   3.388  -1.290  1.00  0.00     0.053 C 
HETATM    4  C   UNL     1      -5.425   3.685  -0.268  1.00  0.00     0.028 C 
HETATM    5  C   UNL     1      -5.588   2.746   0.749  1.00  0.00     0.027 C 
HETATM    6  C   UNL     1      -4.941   1.503   0.671  1.00  0.00     0.032 C 
HETATM    7  C   UNL     1      -3.707   4.427  -1.981  1.00  0.00     0.196 C 
HETATM    8  O   UNL     1      -3.565   5.544  -1.494  1.00  0.00    -0.287 OA
HETATM    9  C   UNL     1      -2.928   4.046  -3.176  1.00  0.00     0.029 A 
HETATM   10  C   UNL     1      -2.073   4.963  -3.792  1.00  0.00     0.016 A 
HETATM   11  C   UNL     1      -1.375   4.595  -4.945  1.00  0.00     0.001 A 
HETATM   12  C   UNL     1      -1.563   3.330  -5.508  1.00  0.00     0.001 A 
HETATM   13  C   UNL     1      -2.385   2.403  -4.875  1.00  0.00     0.016 A 
HETATM   14  C   UNL     1      -3.015   2.750  -3.676  1.00  0.00     0.029 A 
HETATM   15  C   UNL     1      -3.648   1.710  -2.854  1.00  0.00     0.196 C 
HETATM   16  O   UNL     1      -3.772   0.563  -3.269  1.00  0.00    -0.286 OA
ENDROOT
BRANCH   1  17
HETATM   17  N   UNL     1      -3.505  -0.082  -0.556  1.00  0.00    -0.355 N 
HETATM   18  H   UNL     1      -3.337  -0.350  -1.535  1.00  0.00     0.166 HD
BRANCH  17  19
HETATM   19  C   UNL     1      -3.716  -1.238   0.217  1.00  0.00     0.032 A 
HETATM   20  C   UNL     1      -4.992  -1.799   0.343  1.00  0.00     0.030 A 
HETATM   21  C   UNL     1      -5.177  -2.960   1.087  1.00  0.00     0.009 A 
HETATM   22  C   UNL     1      -4.090  -3.597   1.691  1.00  0.00    -0.062 A 
HETATM   23  C   UNL     1      -4.296  -4.814   2.540  1.00  0.00     0.048 C 
HETATM   24  C   UNL     1      -2.804  -3.073   1.509  1.00  0.00     0.009 A 
HETATM   25  C   UNL     1      -2.618  -1.909   0.761  1.00  0.00     0.030 A 
ENDBRANCH  17  19
ENDBRANCH   1  17
BRANCH   4  26
HETATM   26  N   UNL     1      -6.180   4.893  -0.218  1.00  0.00    -0.259 NA
HETATM   27  H   UNL     1      -5.716   5.552   0.409  1.00  0.00     0.134 HD
BRANCH  26  28
HETATM   28  C   UNL     1      -6.616   5.566  -1.398  1.00  0.00     0.012 C 
HETATM   29  C   UNL     1      -7.074   4.848  -2.512  1.00  0.00     0.024 C 
HETATM   30  C   UNL     1      -7.301   5.491  -3.732  1.00  0.00     0.008 C 
HETATM   31  C   UNL     1      -7.113   6.869  -3.843  1.00  0.00    -0.062 C 
HETATM   32  C   UNL     1      -6.797   7.604  -2.695  1.00  0.00     0.008 C 
HETATM   33  C   UNL     1      -7.202   7.551  -5.176  1.00  0.00     0.048 C 
HETATM   34  C   UNL     1      -6.566   6.960  -1.477  1.00  0.00     0.024 C 
ENDBRANCH  26  28
ENDBRANCH   4  26
TORSDOF 4
