REMARK  7 active torsions:
REMARK  status: ('A' for Active; 'I' for Inactive)
REMARK    1  A    between atoms: C_5  and  S_40 
REMARK    2  A    between atoms: C_7  and  N_8 
REMARK    3  A    between atoms: N_8  and  C_9 
REMARK    4  A    between atoms: C_12  and  N_15 
REMARK    5  A    between atoms: N_15  and  C_16 
REMARK    6  A    between atoms: C_18  and  S_24 
REMARK    7  A    between atoms: S_40  and  O_41 
ROOT
HETATM    1 NA   UNL     3      -0.317   0.458  -2.841  1.00  0.00     0.000 Na
ENDROOT
TORSDOF 7
