REMARK  10 active torsions:
REMARK  status: ('A' for Active; 'I' for Inactive)
REMARK    1  A    between atoms: C_3  and  C_10 
REMARK    2  A    between atoms: C_11  and  C_12 
REMARK    3  A    between atoms: C_13  and  C_14 
REMARK    4  A    between atoms: C_15  and  C_16 
REMARK    5  A    between atoms: C_17  and  C_18 
REMARK    6  A    between atoms: C_19  and  C_20 
REMARK    7  A    between atoms: C_21  and  C_23 
REMARK    8  A    between atoms: C_24  and  C_25 
REMARK    9  A    between atoms: C_26  and  C_28 
REMARK   10  A    between atoms: C_29  and  C_30 
ROOT
HETATM    1  C   UNL     1      -2.312  -1.797   1.361  1.00  0.00     0.001 C 
HETATM    2  C   UNL     1      -2.313  -0.595   1.980  1.00  0.00     0.001 C 
ENDROOT
BRANCH   1   3
HETATM    3  C   UNL     1      -3.271  -2.914   1.529  1.00  0.00     0.007 C 
HETATM    4  C   UNL     1      -4.491  -2.995   0.929  1.00  0.00    -0.062 C 
HETATM    5  C   UNL     1      -5.432  -4.174   1.051  1.00  0.00     0.048 C 
BRANCH   4   6
HETATM    6  C   UNL     1      -5.012  -1.903   0.142  1.00  0.00     0.007 C 
HETATM    7  C   UNL     1      -5.231  -0.728   0.753  1.00  0.00     0.001 C 
BRANCH   7   8
HETATM    8  C   UNL     1      -5.564   0.538   0.162  1.00  0.00     0.007 C 
HETATM    9  C   UNL     1      -6.336   1.437   0.804  1.00  0.00    -0.062 C 
HETATM   10  C   UNL     1      -6.457   2.839   0.283  1.00  0.00     0.048 C 
BRANCH   9  11
HETATM   11  C   UNL     1      -7.122   1.122   2.001  1.00  0.00     0.007 C 
HETATM   12  C   UNL     1      -7.902   0.037   2.060  1.00  0.00     0.009 C 
BRANCH  12  13
HETATM   13  C   UNL     1      -8.850  -0.379   3.091  1.00  0.00    -0.048 C 
HETATM   14  C   UNL     1     -10.048  -0.870   2.661  1.00  0.00    -0.077 C 
HETATM   15  C   UNL     1     -10.497  -1.126   1.228  1.00  0.00     0.044 C 
HETATM   16  C   UNL     1     -11.145  -1.271   3.617  1.00  0.00     0.034 C 
HETATM   17  C   UNL     1     -10.861  -0.753   5.010  1.00  0.00     0.005 C 
HETATM   18  C   UNL     1      -9.468  -1.243   5.401  1.00  0.00     0.014 C 
HETATM   19  C   UNL     1      -8.379  -0.474   4.593  1.00  0.00    -0.020 C 
HETATM   20  C   UNL     1      -7.069  -1.303   4.652  1.00  0.00     0.020 C 
HETATM   21  C   UNL     1      -8.086   0.822   5.405  1.00  0.00     0.020 C 
ENDBRANCH  12  13
ENDBRANCH   9  11
ENDBRANCH   7   8
ENDBRANCH   4   6
ENDBRANCH   1   3
BRANCH   2  22
HETATM   22  C   UNL     1      -1.472   0.526   1.552  1.00  0.00     0.007 C 
HETATM   23  C   UNL     1      -1.476   1.829   1.931  1.00  0.00    -0.062 C 
HETATM   24  C   UNL     1      -2.350   2.488   2.973  1.00  0.00     0.048 C 
BRANCH  23  25
HETATM   25  C   UNL     1      -0.534   2.817   1.360  1.00  0.00     0.007 C 
HETATM   26  C   UNL     1      -0.834   3.717   0.402  1.00  0.00     0.001 C 
BRANCH  26  27
HETATM   27  C   UNL     1      -0.043   4.925   0.123  1.00  0.00     0.007 C 
HETATM   28  C   UNL     1      -0.099   5.710  -0.983  1.00  0.00    -0.062 C 
HETATM   29  C   UNL     1      -0.845   5.299  -2.232  1.00  0.00     0.048 C 
BRANCH  28  30
HETATM   30  C   UNL     1       0.536   7.056  -1.013  1.00  0.00     0.007 C 
HETATM   31  C   UNL     1       0.588   7.862  -2.094  1.00  0.00     0.009 C 
BRANCH  31  32
HETATM   32  C   UNL     1       1.036   9.261  -2.197  1.00  0.00    -0.048 C 
HETATM   33  C   UNL     1       2.300   9.666  -1.921  1.00  0.00    -0.077 C 
HETATM   34  C   UNL     1       2.757  11.110  -2.074  1.00  0.00     0.034 C 
HETATM   35  C   UNL     1       3.432   8.763  -1.497  1.00  0.00     0.044 C 
HETATM   36  C   UNL     1       1.633  12.121  -2.244  1.00  0.00     0.005 C 
HETATM   37  C   UNL     1       0.607  11.596  -3.229  1.00  0.00     0.014 C 
HETATM   38  C   UNL     1      -0.025  10.250  -2.771  1.00  0.00    -0.020 C 
HETATM   39  C   UNL     1      -0.753   9.695  -4.022  1.00  0.00     0.020 C 
HETATM   40  C   UNL     1      -1.090  10.542  -1.691  1.00  0.00     0.020 C 
ENDBRANCH  31  32
ENDBRANCH  28  30
ENDBRANCH  26  27
ENDBRANCH  23  25
ENDBRANCH   2  22
TORSDOF 10
