REMARK  0 active torsions:
REMARK  status: ('A' for Active; 'I' for Inactive)
ROOT
HETATM    1  C   UNL     1       1.094  -0.268  -0.085  1.00  0.00     0.049 C 
HETATM    2  C   UNL     1       2.593  -0.146  -0.090  1.00  0.00    -0.045 A 
HETATM    3  C   UNL     1       3.166   1.139  -0.092  1.00  0.00     0.031 A 
HETATM    4  C   UNL     1       4.555   1.307  -0.098  1.00  0.00     0.035 A 
HETATM    5  C   UNL     1       5.401   0.204  -0.103  1.00  0.00     0.043 A 
HETATM    6  C   UNL     1       4.843  -1.070  -0.101  1.00  0.00     0.022 A 
HETATM    7  C   UNL     1       3.460  -1.251  -0.094  1.00  0.00     0.038 A 
HETATM    8  C   UNL     1       3.111  -2.695  -0.092  1.00  0.00     0.202 A 
HETATM    9  O   UNL     1       1.956  -3.080  -0.087  1.00  0.00    -0.286 OA
HETATM   10  C   UNL     1       4.354  -3.573  -0.096  1.00  0.00     0.077 A 
HETATM   11  C   UNL     1       4.376  -4.922  -0.097  1.00  0.00     0.077 A 
HETATM   12  C   UNL     1       5.617  -5.800  -0.104  1.00  0.00     0.202 A 
HETATM   13  O   UNL     1       6.774  -5.415  -0.112  1.00  0.00    -0.286 OA
HETATM   14  C   UNL     1       5.272  -7.243  -0.102  1.00  0.00     0.038 A 
HETATM   15  C   UNL     1       3.891  -7.425  -0.095  1.00  0.00     0.022 A 
HETATM   16  S   UNL     1       2.949  -5.932  -0.091  1.00  0.00    -0.084 SA
HETATM   17  C   UNL     1       3.332  -8.697  -0.091  1.00  0.00     0.043 A 
HETATM   18  C   UNL     1       4.180  -9.800  -0.093  1.00  0.00     0.035 A 
HETATM   19  C   UNL     1       5.569  -9.632  -0.101  1.00  0.00     0.031 A 
HETATM   20  C   UNL     1       6.143  -8.346  -0.106  1.00  0.00    -0.045 A 
HETATM   21  C   UNL     1       7.640  -8.226  -0.116  1.00  0.00     0.049 C 
HETATM   22 CL   UNL     1       3.513 -11.386  -0.087  1.00  0.00    -0.084 Cl
HETATM   23  S   UNL     1       5.781  -2.562  -0.103  1.00  0.00    -0.084 SA
HETATM   24 CL   UNL     1       5.222   2.892  -0.099  1.00  0.00    -0.084 Cl
ENDROOT
TORSDOF 0
