REMARK  4 active torsions:
REMARK  status: ('A' for Active; 'I' for Inactive)
REMARK    1  A    between atoms: C_3  and  C_4 
REMARK    2  A    between atoms: C_4  and  C_5 
REMARK    3  A    between atoms: C_5  and  C_6 
REMARK    4  A    between atoms: C_7  and  C_8 
ROOT
HETATM    1  C   UNL     1       3.476  -3.631  -0.462  1.00  0.00     0.037 C 
ENDROOT
BRANCH   1   2
HETATM    2  C   UNL     1       2.566  -2.397  -0.373  1.00  0.00     0.031 C 
BRANCH   2   3
HETATM    3  C   UNL     1       3.278  -1.078  -0.196  1.00  0.00    -0.024 C 
HETATM    4  C   UNL     1       2.642   0.103  -0.046  1.00  0.00    -0.091 C 
HETATM    5  C   UNL     1       1.144   0.254  -0.035  1.00  0.00     0.042 C 
HETATM    6  C   UNL     1       3.407   1.391   0.118  1.00  0.00     0.042 C 
ENDBRANCH   2   3
ENDBRANCH   1   2
BRANCH   1   7
HETATM    7  C   UNL     1       2.663  -4.882  -0.751  1.00  0.00    -0.081 C 
HETATM    8  C   UNL     1       2.201  -5.766   0.155  1.00  0.00     0.043 C 
HETATM    9  C   UNL     1       2.339  -5.133  -2.203  1.00  0.00     0.043 C 
BRANCH   8  10
HETATM   10  C   UNL     1       2.368  -5.698   1.623  1.00  0.00     0.259 C 
HETATM   11  O   UNL     1       1.893  -6.562   2.353  1.00  0.00    -0.302 OA
ENDBRANCH   8  10
ENDBRANCH   1   7
TORSDOF 4
