REMARK  6 active torsions:
REMARK  status: ('A' for Active; 'I' for Inactive)
REMARK    1  A    between atoms: C_2  and  C_3 
REMARK    2  A    between atoms: C_2  and  C_9 
REMARK    3  A    between atoms: C_3  and  C_4 
REMARK    4  A    between atoms: C_4  and  C_5 
REMARK    5  A    between atoms: C_9  and  C_10 
REMARK    6  A    between atoms: C_10  and  O_11 
ROOT
HETATM    1  C   UNL     1       3.045  -1.497   0.328  1.00  0.00     0.010 C 
HETATM    2  C   UNL     1       2.568  -0.068   0.040  1.00  0.00    -0.016 C 
ENDROOT
BRANCH   2   3
HETATM    3  C   UNL     1       3.050   0.856   1.184  1.00  0.00     0.008 C 
BRANCH   3   4
HETATM    4  C   UNL     1       2.525   2.291   1.084  1.00  0.00     0.027 C 
BRANCH   4   5
HETATM    5  C   UNL     1       3.072   3.176   2.170  1.00  0.00    -0.025 C 
HETATM    6  C   UNL     1       4.221   3.878   2.122  1.00  0.00    -0.091 C 
HETATM    7  C   UNL     1       5.209   3.827   0.988  1.00  0.00     0.042 C 
HETATM    8  C   UNL     1       4.620   4.791   3.250  1.00  0.00     0.042 C 
ENDBRANCH   4   5
ENDBRANCH   3   4
ENDBRANCH   2   3
BRANCH   2   9
HETATM    9  C   UNL     1       3.057   0.420  -1.338  1.00  0.00     0.030 C 
BRANCH   9  10
HETATM   10  C   UNL     1       2.525  -0.391  -2.515  1.00  0.00     0.164 C 
BRANCH  10  11
HETATM   11  O   UNL     1       2.961   0.198  -3.736  1.00  0.00    -0.401 OA
HETATM   12  H   UNL     1       2.614   1.107  -3.765  1.00  0.00     0.209 HD
ENDBRANCH  10  11
ENDBRANCH   9  10
ENDBRANCH   2   9
TORSDOF 6
