REMARK  7 active torsions:
REMARK  status: ('A' for Active; 'I' for Inactive)
REMARK    1  A    between atoms: C_1  and  C_2 
REMARK    2  A    between atoms: C_1  and  C_8 
REMARK    3  A    between atoms: C_2  and  CA_3 
REMARK    4  A    between atoms: CA_3  and  C_4 
REMARK    5  A    between atoms: CA_3  and  N_7 
REMARK    6  A    between atoms: C_4  and  OXT_6 
REMARK    7  A    between atoms: C_8  and  N_9 
REMARK       I    between atoms: N_9  and  C_10 
REMARK       I    between atoms: C_10  and  N_12 
ROOT
HETATM    1  C   UNL     1       1.204  -0.001   0.033  1.00  0.00     0.022 C 
ENDROOT
BRANCH   1   2
HETATM    2  C   UNL     1       0.600  -1.322  -0.465  1.00  0.00     0.048 C 
BRANCH   2   3
HETATM    3  CA  UNL     1      -0.935  -1.281  -0.525  1.00  0.00     0.314 C 
BRANCH   3   4
HETATM    4  C   UNL     1      -1.533  -2.607  -1.052  1.00  0.00     0.173 C 
HETATM    5  O   UNL     1      -2.293  -3.314  -0.405  1.00  0.00    -0.648 OA
BRANCH   4   6
HETATM    6  OXT UNL     1      -1.179  -2.907  -2.321  1.00  0.00    -0.775 OA
HETATM    7  HXT UNL     1      -0.616  -2.242  -2.760  1.00  0.00     0.167 HD
ENDBRANCH   4   6
ENDBRANCH   3   4
BRANCH   3   8
HETATM    8  N   UNL     1      -1.474  -1.013   0.829  1.00  0.00     0.093 N 
HETATM    9  H1  UNL     1      -1.229  -1.809   1.425  1.00  0.00     0.314 HD
HETATM   10  H2  UNL     1      -2.495  -1.072   0.777  1.00  0.00     0.314 HD
ENDBRANCH   3   8
ENDBRANCH   2   3
ENDBRANCH   1   2
BRANCH   1  11
HETATM   11  C   UNL     1       2.728  -0.056   0.103  1.00  0.00     0.124 C 
BRANCH  11  12
HETATM   12  N   UNL     1       3.282   1.191   0.587  1.00  0.00    -0.343 N 
HETATM   13  C   UNL     1       3.560   2.221  -0.266  1.00  0.00     0.313 C 
HETATM   14  O   UNL     1       3.438   2.182  -1.481  1.00  0.00    -0.248 OA
HETATM   15  N   UNL     1       4.052   3.313   0.363  1.00  0.00    -0.352 N 
HETATM   16  H   UNL     1       4.042   3.424   1.363  1.00  0.00     0.160 HD
HETATM   17  H   UNL     1       4.264   4.114  -0.216  1.00  0.00     0.160 HD
HETATM   18  H   UNL     1       3.164   1.417   1.562  1.00  0.00     0.164 HD
ENDBRANCH  11  12
ENDBRANCH   1  11
TORSDOF 7
