REMARK  5 active torsions:
REMARK  status: ('A' for Active; 'I' for Inactive)
REMARK    1  A    between atoms: C_2  and  C_5 
REMARK    2  A    between atoms: C_5  and  C_7 
REMARK    3  A    between atoms: C_7  and  N_8 
REMARK    4  A    between atoms: C_7  and  O_14 
REMARK    5  A    between atoms: O_14  and  C_15 
ROOT
HETATM    1  C   UNL     1       4.548  -1.632  -0.137  1.00  0.00     0.306 C 
ENDROOT
BRANCH   1   2
HETATM    2  C   UNL     1       3.020  -1.419  -0.203  1.00  0.00     0.183 C 
HETATM    3  O   UNL     1       2.576  -0.265  -0.111  1.00  0.00    -0.292 OA
BRANCH   2   4
HETATM    4  C   UNL     1       2.053  -2.609  -0.419  1.00  0.00     0.014 C 
HETATM    5  C   UNL     1       0.599  -2.100  -0.290  1.00  0.00     0.023 C 
HETATM    6  C   UNL     1       2.253  -3.706   0.633  1.00  0.00     0.023 C 
HETATM    7  C   UNL     1       2.204  -3.175  -1.837  1.00  0.00     0.023 C 
ENDBRANCH   2   4
ENDBRANCH   1   2
BRANCH   1   8
HETATM    8  N   UNL     1       5.038  -1.269   1.204  1.00  0.00    -0.318 N 
HETATM    9  C   UNL     1       5.267  -2.101   2.268  1.00  0.00     0.112 A 
HETATM   10  C   UNL     1       5.801  -1.293   3.244  1.00  0.00     0.106 A 
HETATM   11  N   UNL     1       5.886   0.004   2.808  1.00  0.00    -0.361 N 
HETATM   12  C   UNL     1       5.410  -0.008   1.585  1.00  0.00     0.185 A 
ATOM     13  HN  UNL     1       6.243   0.808   3.324  1.00  0.00     0.166 HD
ENDBRANCH   1   8
BRANCH   1  14
HETATM   14  O   UNL     1       5.062  -2.919  -0.437  1.00  0.00    -0.318 OA
BRANCH  14  15
HETATM   15  C   UNL     1       5.654  -3.133  -1.648  1.00  0.00     0.072 A 
HETATM   16  C   UNL     1       6.465  -4.272  -1.706  1.00  0.00     0.038 A 
HETATM   17  C   UNL     1       7.078  -4.647  -2.903  1.00  0.00     0.026 A 
HETATM   18  C   UNL     1       6.874  -3.885  -4.049  1.00  0.00     0.034 A 
HETATM   19  C   UNL     1       6.064  -2.752  -4.004  1.00  0.00     0.026 A 
HETATM   20 CL   UNL     1       7.607  -4.351  -5.533  1.00  0.00    -0.084 Cl
HETATM   21  C   UNL     1       5.453  -2.375  -2.803  1.00  0.00     0.038 A 
ENDBRANCH  14  15
ENDBRANCH   1  14
TORSDOF 5
