REMARK  16 active torsions:
REMARK  status: ('A' for Active; 'I' for Inactive)
REMARK    1  A    between atoms: C_2  and  C_3 
REMARK    2  A    between atoms: C_3  and  C_4 
REMARK    3  A    between atoms: C_4  and  C_5 
REMARK    4  A    between atoms: C_5  and  C_6 
REMARK    5  A    between atoms: C_6  and  C_7 
REMARK    6  A    between atoms: C_7  and  C_8 
REMARK    7  A    between atoms: C_8  and  C_9 
REMARK    8  A    between atoms: C_9  and  C_10 
REMARK    9  A    between atoms: C_10  and  C_11 
REMARK   10  A    between atoms: C_11  and  C_12 
REMARK       I    between atoms: C_12  and  N_14 
REMARK   11  A    between atoms: N_14  and  C_15 
REMARK   12  A    between atoms: C_15  and  C_16 
REMARK   13  A    between atoms: C_16  and  C_17 
REMARK   14  A    between atoms: C_17  and  N_18 
REMARK   15  A    between atoms: N_18  and  C_21 
REMARK   16  A    between atoms: C_21  and  C_22 
ROOT
HETATM    1  C   UNL     1      12.695   5.100  -5.014  1.00  0.00     0.217 C 
HETATM    2  O   UNL     1      13.310   4.380  -4.234  1.00  0.00    -0.274 OA
HETATM    3  N   UNL     1      13.319   5.915  -5.930  1.00  0.00    -0.361 N 
HETATM    4  H   UNL     1      12.763   6.548  -6.494  1.00  0.00     0.162 HD
ENDROOT
BRANCH   1   5
HETATM    5  C   UNL     1      11.186   5.140  -5.100  1.00  0.00     0.103 C 
BRANCH   5   6
HETATM    6  C   UNL     1      10.592   4.130  -4.129  1.00  0.00     0.009 C 
BRANCH   6   7
HETATM    7  C   UNL     1       9.072   4.137  -4.148  1.00  0.00     0.000 C 
BRANCH   7   8
HETATM    8  C   UNL     1       8.548   3.116  -3.141  1.00  0.00     0.000 C 
BRANCH   8   9
HETATM    9  C   UNL     1       7.027   3.095  -3.121  1.00  0.00     0.000 C 
BRANCH   9  10
HETATM   10  C   UNL     1       6.520   2.075  -2.107  1.00  0.00     0.000 C 
BRANCH  10  11
HETATM   11  C   UNL     1       4.996   2.054  -2.088  1.00  0.00     0.000 C 
BRANCH  11  12
HETATM   12  C   UNL     1       4.474   1.038  -1.077  1.00  0.00     0.000 C 
BRANCH  12  13
HETATM   13  C   UNL     1       2.948   1.024  -1.066  1.00  0.00    -0.000 C 
BRANCH  13  14
HETATM   14  C   UNL     1       2.409   0.011  -0.060  1.00  0.00    -0.005 C 
HETATM   15  C   UNL     1       0.894  -0.001  -0.050  1.00  0.00     0.005 C 
ENDBRANCH  13  14
ENDBRANCH  12  13
ENDBRANCH  11  12
ENDBRANCH  10  11
ENDBRANCH   9  10
ENDBRANCH   8   9
ENDBRANCH   7   8
ENDBRANCH   6   7
ENDBRANCH   5   6
ENDBRANCH   1   5
BRANCH   3  16
HETATM   16  C   UNL     1      14.761   6.002  -5.991  1.00  0.00     0.124 C 
BRANCH  16  17
HETATM   17  C   UNL     1      15.422   4.679  -6.378  1.00  0.00     0.048 C 
BRANCH  17  18
HETATM   18  C   UNL     1      14.942   4.171  -7.738  1.00  0.00     0.238 C 
BRANCH  18  19
HETATM   19  N   UNL     1      15.512   2.781  -8.074  1.00  0.00    -0.065 N 
HETATM   20  C   UNL     1      17.031   2.826  -8.153  1.00  0.00     0.272 C 
HETATM   21  C   UNL     1      15.032   1.715  -7.121  1.00  0.00     0.272 C 
BRANCH  19  22
HETATM   22  C   UNL     1      14.984   2.387  -9.528  1.00  0.00     0.349 C 
BRANCH  22  23
HETATM   23  C   UNL     1      15.364   3.330 -10.702  1.00  0.00     0.199 C 
HETATM   24  O   UNL     1      14.535   4.257 -10.910  1.00  0.00    -0.647 OA
HETATM   25  O   UNL     1      16.505   3.107 -11.193  1.00  0.00    -0.647 OA
ENDBRANCH  22  23
ENDBRANCH  19  22
ENDBRANCH  18  19
ENDBRANCH  17  18
ENDBRANCH  16  17
ENDBRANCH   3  16
TORSDOF 16
