REMARK  17 active torsions:
REMARK  status: ('A' for Active; 'I' for Inactive)
REMARK    1  A    between atoms: C_2  and  C_3 
REMARK    2  A    between atoms: C_3  and  C_4 
REMARK    3  A    between atoms: C_4  and  C_5 
REMARK    4  A    between atoms: C_5  and  C_6 
REMARK    5  A    between atoms: C_6  and  C_7 
REMARK    6  A    between atoms: C_7  and  C_8 
REMARK    7  A    between atoms: C_8  and  C_9 
REMARK    8  A    between atoms: C_9  and  C_10 
REMARK    9  A    between atoms: C_10  and  C_11 
REMARK   10  A    between atoms: C_11  and  C_12 
REMARK   11  A    between atoms: C_12  and  O_13 
REMARK   12  A    between atoms: O_13  and  C_14 
REMARK   13  A    between atoms: C_15  and  O_24 
REMARK   14  A    between atoms: C_16  and  O_23 
REMARK   15  A    between atoms: C_17  and  O_22 
REMARK   16  A    between atoms: C_18  and  C_20 
REMARK   17  A    between atoms: C_20  and  O_21 
ROOT
HETATM    1  C   UNL     1      10.068  -5.880   6.617  1.00  0.00     0.291 C 
HETATM    2  C   UNL     1      10.533  -6.985   5.639  1.00  0.00     0.204 C 
HETATM    3  C   UNL     1       9.833  -6.848   4.274  1.00  0.00     0.183 C 
HETATM    4  C   UNL     1       8.313  -6.665   4.417  1.00  0.00     0.180 C 
HETATM    5  C   UNL     1       8.047  -5.510   5.383  1.00  0.00     0.179 C 
HETATM    6  O   UNL     1       8.627  -5.831   6.669  1.00  0.00    -0.348 OA
ENDROOT
BRANCH   1   7
HETATM    7  O   UNL     1      10.626  -4.608   6.292  1.00  0.00    -0.359 OA
BRANCH   7   8
HETATM    8  C   UNL     1      10.417  -3.664   7.347  1.00  0.00     0.171 C 
BRANCH   8   9
HETATM    9  C   UNL     1      11.003  -2.298   6.984  1.00  0.00     0.026 C 
BRANCH   9  10
HETATM   10  C   UNL     1      10.578  -1.762   5.614  1.00  0.00     0.002 C 
BRANCH  10  11
HETATM   11  C   UNL     1       9.065  -1.622   5.489  1.00  0.00     0.000 C 
BRANCH  11  12
HETATM   12  C   UNL     1       8.636  -1.241   4.076  1.00  0.00     0.000 C 
BRANCH  12  13
HETATM   13  C   UNL     1       7.114  -1.266   3.988  1.00  0.00     0.000 C 
BRANCH  13  14
HETATM   14  C   UNL     1       6.619  -0.881   2.600  1.00  0.00     0.000 C 
BRANCH  14  15
HETATM   15  C   UNL     1       5.092  -0.902   2.573  1.00  0.00     0.000 C 
BRANCH  15  16
HETATM   16  C   UNL     1       4.559  -0.494   1.205  1.00  0.00     0.000 C 
BRANCH  16  17
HETATM   17  C   UNL     1       3.034  -0.514   1.196  1.00  0.00    -0.000 C 
BRANCH  17  18
HETATM   18  C   UNL     1       2.488  -0.103  -0.167  1.00  0.00    -0.005 C 
HETATM   19  C   UNL     1       0.969  -0.124  -0.179  1.00  0.00     0.005 C 
ENDBRANCH  17  18
ENDBRANCH  16  17
ENDBRANCH  15  16
ENDBRANCH  14  15
ENDBRANCH  13  14
ENDBRANCH  12  13
ENDBRANCH  11  12
ENDBRANCH  10  11
ENDBRANCH   9  10
ENDBRANCH   8   9
ENDBRANCH   7   8
ENDBRANCH   1   7
BRANCH   2  20
HETATM   20  O   UNL     1      10.263  -8.282   6.206  1.00  0.00    -0.388 OA
HETATM   21  H   UNL     1       9.342  -8.277   6.521  1.00  0.00     0.210 HD
ENDBRANCH   2  20
BRANCH   3  22
HETATM   22  O   UNL     1      10.097  -7.997   3.462  1.00  0.00    -0.390 OA
HETATM   23  H   UNL     1       9.705  -8.750   3.954  1.00  0.00     0.210 HD
ENDBRANCH   3  22
BRANCH   5  24
HETATM   24  C   UNL     1       6.554  -5.247   5.603  1.00  0.00     0.198 C 
BRANCH  24  25
HETATM   25  O   UNL     1       6.388  -4.164   6.519  1.00  0.00    -0.398 OA
HETATM   26  H   UNL     1       6.932  -4.386   7.299  1.00  0.00     0.209 HD
ENDBRANCH  24  25
ENDBRANCH   5  24
BRANCH   4  27
HETATM   27  O   UNL     1       7.734  -7.895   4.892  1.00  0.00    -0.390 OA
HETATM   28  H   UNL     1       7.418  -7.762   5.803  1.00  0.00     0.210 HD
ENDBRANCH   4  27
TORSDOF 17
