REMARK  10 active torsions:
REMARK  status: ('A' for Active; 'I' for Inactive)
REMARK    1  A    between atoms: O_2  and  C_3 
REMARK    2  A    between atoms: C_4  and  O_27 
REMARK    3  A    between atoms: C_7  and  C_9 
REMARK    4  A    between atoms: C_10  and  C_11 
REMARK    5  A    between atoms: C_11  and  C_13 
REMARK    6  A    between atoms: C_13  and  C_14 
REMARK    7  A    between atoms: C_14  and  C_16 
REMARK    8  A    between atoms: C_17  and  C_18 
REMARK    9  A    between atoms: C_20  and  O_25 
REMARK   10  A    between atoms: C_21  and  O_24 
ROOT
HETATM    1  C   UNL     1       9.832   4.322  -0.032  1.00  0.00     0.165 C 
ENDROOT
BRANCH   1   2
HETATM    2  C   UNL     1       8.987   3.076  -0.005  1.00  0.00     0.156 C 
HETATM    3  O   UNL     1       8.210   2.862   0.924  1.00  0.00    -0.293 OA
BRANCH   2   4
HETATM    4  C   UNL     1       9.094   2.130  -1.160  1.00  0.00     0.051 C 
HETATM    5  C   UNL     1       8.338   1.019  -1.210  1.00  0.00     0.015 C 
BRANCH   5   6
HETATM    6  C   UNL     1       8.394   0.026  -2.297  1.00  0.00    -0.033 A 
HETATM    7  C   UNL     1       9.569  -0.230  -3.003  1.00  0.00     0.014 A 
HETATM    8  C   UNL     1       9.593  -1.202  -4.004  1.00  0.00     0.040 A 
HETATM    9  C   UNL     1       8.452  -1.949  -4.318  1.00  0.00     0.099 A 
HETATM   10  C   UNL     1       7.262  -1.733  -3.619  1.00  0.00     0.102 A 
HETATM   11  C   UNL     1       7.259  -0.745  -2.605  1.00  0.00     0.051 A 
BRANCH   9  12
HETATM   12  O   UNL     1       8.681  -2.850  -5.316  1.00  0.00    -0.358 OA
HETATM   13  H   UNL     1       7.863  -3.250  -5.621  1.00  0.00     0.217 HD
ENDBRANCH   9  12
BRANCH  10  14
HETATM   14  O   UNL     1       6.044  -2.339  -3.736  1.00  0.00    -0.353 OA
HETATM   15  C   UNL     1       5.817  -3.351  -4.695  1.00  0.00     0.210 C 
ENDBRANCH  10  14
ENDBRANCH   5   6
ENDBRANCH   2   4
ENDBRANCH   1   2
BRANCH   1  16
HETATM   16  C   UNL     1      11.312   4.056  -0.062  1.00  0.00     0.156 C 
HETATM   17  O   UNL     1      11.901   3.889  -1.130  1.00  0.00    -0.293 OA
BRANCH  16  18
HETATM   18  C   UNL     1      12.034   3.986   1.246  1.00  0.00     0.051 C 
HETATM   19  C   UNL     1      13.358   3.777   1.250  1.00  0.00     0.015 C 
BRANCH  19  20
HETATM   20  C   UNL     1      14.214   3.716   2.446  1.00  0.00    -0.033 A 
HETATM   21  C   UNL     1      13.760   3.275   3.697  1.00  0.00     0.051 A 
HETATM   22  C   UNL     1      14.606   3.204   4.824  1.00  0.00     0.102 A 
HETATM   23  C   UNL     1      15.943   3.580   4.669  1.00  0.00     0.099 A 
HETATM   24  C   UNL     1      16.411   4.001   3.420  1.00  0.00     0.040 A 
HETATM   25  C   UNL     1      15.559   4.061   2.317  1.00  0.00     0.014 A 
BRANCH  22  26
HETATM   26  O   UNL     1      13.926   2.762   5.922  1.00  0.00    -0.353 OA
HETATM   27  C   UNL     1      14.564   2.612   7.173  1.00  0.00     0.210 C 
ENDBRANCH  22  26
BRANCH  23  28
HETATM   28  O   UNL     1      16.914   3.599   5.628  1.00  0.00    -0.358 OA
HETATM   29  H   UNL     1      16.628   3.132   6.418  1.00  0.00     0.217 HD
ENDBRANCH  23  28
ENDBRANCH  19  20
ENDBRANCH  16  18
ENDBRANCH   1  16
TORSDOF 10
