REMARK  24 active torsions:
REMARK  status: ('A' for Active; 'I' for Inactive)
REMARK    1  A    between atoms: C_1  and  C_2 
REMARK    2  A    between atoms: C_1  and  O_66 
REMARK    3  A    between atoms: C_4  and  O_65 
REMARK    4  A    between atoms: C_5  and  O_64 
REMARK    5  A    between atoms: C_10  and  C_62 
REMARK    6  A    between atoms: C_13  and  O_16 
REMARK    7  A    between atoms: C_14  and  O_15 
REMARK    8  A    between atoms: C_19  and  C_60 
REMARK    9  A    between atoms: C_22  and  O_25 
REMARK   10  A    between atoms: C_23  and  O_24 
REMARK   11  A    between atoms: C_28  and  C_58 
REMARK   12  A    between atoms: C_31  and  O_34 
REMARK   13  A    between atoms: C_32  and  O_33 
REMARK   14  A    between atoms: C_37  and  C_56 
REMARK   15  A    between atoms: C_40  and  O_43 
REMARK   16  A    between atoms: C_41  and  O_42 
REMARK   17  A    between atoms: C_46  and  C_54 
REMARK   18  A    between atoms: C_50  and  O_53 
REMARK   19  A    between atoms: C_51  and  O_52 
REMARK   20  A    between atoms: C_54  and  O_55 
REMARK   21  A    between atoms: C_56  and  O_57 
REMARK   22  A    between atoms: C_58  and  O_59 
REMARK   23  A    between atoms: C_60  and  O_61 
REMARK   24  A    between atoms: C_62  and  O_63 
ROOT
HETATM    1  C   UNL     1       1.110  -1.997  -1.972  1.00  0.00     0.180 C 
HETATM    2  C   UNL     1       0.786  -3.237  -0.971  1.00  0.00     0.187 C 
HETATM    3  C   UNL     1       1.302  -2.640   0.263  1.00  0.00     0.183 C 
HETATM    4  C   UNL     1       2.742  -2.396  -0.015  1.00  0.00     0.204 C 
HETATM    5  C   UNL     1       3.387  -1.576  -1.034  1.00  0.00     0.292 C 
HETATM    6  O   UNL     1       2.569  -1.850  -2.242  1.00  0.00    -0.348 OA
HETATM    7  O   UNL     1       4.779  -2.183  -1.092  1.00  0.00    -0.348 OA
HETATM    8  C   UNL     1       5.444  -2.988   0.115  1.00  0.00     0.187 C 
HETATM    9  C   UNL     1       4.834  -4.141   1.076  1.00  0.00     0.180 C 
HETATM   10  O   UNL     1       3.760  -3.743   1.913  1.00  0.00    -0.348 OA
HETATM   11  C   UNL     1       4.024  -2.735   2.832  1.00  0.00     0.292 C 
HETATM   12  C   UNL     1       5.040  -1.617   2.262  1.00  0.00     0.204 C 
HETATM   13  C   UNL     1       6.005  -1.968   1.077  1.00  0.00     0.183 C 
HETATM   14  O   UNL     1       4.251  -3.403   4.059  1.00  0.00    -0.348 OA
HETATM   15  C   UNL     1       3.079  -4.082   4.687  1.00  0.00     0.187 C 
HETATM   16  C   UNL     1       2.250  -5.227   4.007  1.00  0.00     0.180 C 
HETATM   17  O   UNL     1       1.166  -4.827   3.177  1.00  0.00    -0.348 OA
HETATM   18  C   UNL     1       0.187  -3.907   3.648  1.00  0.00     0.292 C 
HETATM   19  C   UNL     1       0.842  -2.765   4.499  1.00  0.00     0.204 C 
HETATM   20  C   UNL     1       2.101  -3.095   5.341  1.00  0.00     0.183 C 
HETATM   21  O   UNL     1      -0.984  -4.578   4.112  1.00  0.00    -0.348 OA
HETATM   22  C   UNL     1      -1.820  -5.329   3.132  1.00  0.00     0.187 C 
HETATM   23  C   UNL     1      -1.146  -6.445   2.280  1.00  0.00     0.180 C 
HETATM   24  O   UNL     1      -0.716  -6.056   0.965  1.00  0.00    -0.348 OA
HETATM   25  C   UNL     1      -1.662  -5.501   0.054  1.00  0.00     0.292 C 
HETATM   26  C   UNL     1      -2.401  -4.320   0.760  1.00  0.00     0.204 C 
HETATM   27  C   UNL     1      -2.840  -4.571   2.229  1.00  0.00     0.183 C 
HETATM   28  O   UNL     1      -2.544  -6.405  -0.654  1.00  0.00    -0.348 OA
HETATM   29  C   UNL     1      -2.059  -7.228  -1.796  1.00  0.00     0.187 C 
HETATM   30  C   UNL     1      -0.883  -8.113  -1.417  1.00  0.00     0.180 C 
HETATM   31  O   UNL     1       0.222  -7.234  -1.404  1.00  0.00    -0.348 OA
HETATM   32  C   UNL     1       0.763  -6.887  -2.654  1.00  0.00     0.292 C 
HETATM   33  C   UNL     1      -0.274  -6.081  -3.427  1.00  0.00     0.204 C 
HETATM   34  C   UNL     1      -1.732  -6.561  -3.196  1.00  0.00     0.183 C 
HETATM   35  O   UNL     1       1.553  -7.967  -3.102  1.00  0.00    -0.348 OA
HETATM   36  C   UNL     1       2.662  -8.266  -2.185  1.00  0.00     0.187 C 
HETATM   37  C   UNL     1       2.369  -8.338  -0.649  1.00  0.00     0.180 C 
HETATM   38  O   UNL     1       2.111  -7.067   0.030  1.00  0.00    -0.348 OA
HETATM   39  C   UNL     1       2.416  -5.757  -0.584  1.00  0.00     0.292 C 
HETATM   40  O   UNL     1       1.189  -4.772  -1.179  1.00  0.00    -0.348 OA
HETATM   41  C   UNL     1       3.638  -5.943  -1.682  1.00  0.00     0.204 C 
HETATM   42  C   UNL     1       3.844  -7.327  -2.298  1.00  0.00     0.183 C 
ENDROOT
BRANCH   1  43
HETATM   43  C   UNL     1       0.586  -0.564  -1.424  1.00  0.00     0.198 C 
BRANCH  43  44
HETATM   44  O   UNL     1      -0.732  -0.593  -0.892  1.00  0.00    -0.398 OA
HETATM   45  H   UNL     1      -0.949   0.325  -0.606  1.00  0.00     0.209 HD
ENDBRANCH  43  44
ENDBRANCH   1  43
BRANCH   3  46
HETATM   46  O   UNL     1       1.115  -3.523   1.315  1.00  0.00    -0.390 OA
HETATM   47  H   UNL     1       1.000  -4.447   1.002  1.00  0.00     0.210 HD
ENDBRANCH   3  46
BRANCH   4  48
HETATM   48  O   UNL     1       3.143  -3.618  -0.633  1.00  0.00    -0.388 OA
HETATM   49  H   UNL     1       3.049  -3.505  -1.613  1.00  0.00     0.210 HD
ENDBRANCH   4  48
BRANCH  41  50
HETATM   50  O   UNL     1       5.005  -5.641  -1.300  1.00  0.00    -0.388 OA
HETATM   51  H   UNL     1       5.259  -6.180  -0.524  1.00  0.00     0.210 HD
ENDBRANCH  41  50
BRANCH  37  52
HETATM   52  C   UNL     1       3.475  -9.145   0.102  1.00  0.00     0.198 C 
BRANCH  52  53
HETATM   53  O   UNL     1       3.106  -9.406   1.457  1.00  0.00    -0.398 OA
HETATM   54  H   UNL     1       2.812  -8.556   1.828  1.00  0.00     0.209 HD
ENDBRANCH  52  53
ENDBRANCH  37  52
BRANCH  42  55
HETATM   55  O   UNL     1       4.345  -7.170  -3.631  1.00  0.00    -0.390 OA
HETATM   56  H   UNL     1       5.105  -6.556  -3.547  1.00  0.00     0.210 HD
ENDBRANCH  42  55
BRANCH   9  57
HETATM   57  C   UNL     1       5.672  -5.138   1.894  1.00  0.00     0.198 C 
BRANCH  57  58
HETATM   58  O   UNL     1       5.930  -6.331   1.130  1.00  0.00    -0.398 OA
HETATM   59  H   UNL     1       5.650  -7.084   1.694  1.00  0.00     0.209 HD
ENDBRANCH  57  58
ENDBRANCH   9  57
BRANCH  13  60
HETATM   60  O   UNL     1       6.364  -0.798   0.311  1.00  0.00    -0.390 OA
HETATM   61  H   UNL     1       6.141  -0.990  -0.623  1.00  0.00     0.210 HD
ENDBRANCH  13  60
BRANCH  12  62
HETATM   62  O   UNL     1       5.729  -0.954   3.321  1.00  0.00    -0.388 OA
HETATM   63  H   UNL     1       6.679  -1.135   3.218  1.00  0.00     0.210 HD
ENDBRANCH  12  62
BRANCH  33  64
HETATM   64  O   UNL     1       0.117  -5.903  -4.795  1.00  0.00    -0.388 OA
HETATM   65  H   UNL     1       1.070  -5.679  -4.796  1.00  0.00     0.210 HD
ENDBRANCH  33  64
BRANCH  30  66
HETATM   66  C   UNL     1      -0.666  -9.379  -2.269  1.00  0.00     0.198 C 
BRANCH  66  67
HETATM   67  O   UNL     1      -1.728 -10.300  -2.103  1.00  0.00    -0.398 OA
HETATM   68  H   UNL     1      -1.525 -10.829  -1.312  1.00  0.00     0.209 HD
ENDBRANCH  66  67
ENDBRANCH  30  66
BRANCH  34  69
HETATM   69  O   UNL     1      -2.664  -5.517  -3.483  1.00  0.00    -0.390 OA
HETATM   70  H   UNL     1      -2.459  -4.760  -2.909  1.00  0.00     0.210 HD
ENDBRANCH  34  69
BRANCH  16  71
HETATM   71  C   UNL     1       1.657  -6.202   5.043  1.00  0.00     0.198 C 
BRANCH  71  72
HETATM   72  O   UNL     1       2.677  -6.946   5.693  1.00  0.00    -0.398 OA
HETATM   73  H   UNL     1       2.811  -7.763   5.181  1.00  0.00     0.209 HD
ENDBRANCH  71  72
ENDBRANCH  16  71
BRANCH  20  74
HETATM   74  O   UNL     1       2.816  -1.893   5.692  1.00  0.00    -0.390 OA
HETATM   75  H   UNL     1       3.740  -1.996   5.387  1.00  0.00     0.210 HD
ENDBRANCH  20  74
BRANCH  19  76
HETATM   76  O   UNL     1      -0.132  -2.079   5.358  1.00  0.00    -0.388 OA
HETATM   77  H   UNL     1      -1.014  -2.456   5.164  1.00  0.00     0.210 HD
ENDBRANCH  19  76
BRANCH  26  78
HETATM   78  O   UNL     1      -3.495  -3.867  -0.054  1.00  0.00    -0.388 OA
HETATM   79  H   UNL     1      -3.933  -4.665  -0.413  1.00  0.00     0.210 HD
ENDBRANCH  26  78
BRANCH  23  80
HETATM   80  C   UNL     1      -2.028  -7.703   2.188  1.00  0.00     0.198 C 
BRANCH  80  81
HETATM   81  O   UNL     1      -2.295  -8.254   3.471  1.00  0.00    -0.398 OA
HETATM   82  H   UNL     1      -1.451  -8.571   3.838  1.00  0.00     0.209 HD
ENDBRANCH  80  81
ENDBRANCH  23  80
BRANCH  27  83
HETATM   83  O   UNL     1      -3.289  -3.373   2.879  1.00  0.00    -0.390 OA
HETATM   84  H   UNL     1      -2.655  -2.662   2.689  1.00  0.00     0.210 HD
ENDBRANCH  27  83
TORSDOF 24
