REMARK  6 active torsions:
REMARK  status: ('A' for Active; 'I' for Inactive)
REMARK    1  A    between atoms: C_2  and  C_7 
REMARK    2  A    between atoms: C_7  and  C_8 
REMARK    3  A    between atoms: C_8  and  N_9 
REMARK       I    between atoms: N_9  and  C_10 
REMARK    4  A    between atoms: C_10  and  C_12 
REMARK    5  A    between atoms: C_12  and  C_13 
REMARK    6  A    between atoms: C_13  and  N_14 
ROOT
HETATM    1  C   UNL     1       1.444  -3.252  -0.075  1.00  0.00     0.128 C 
ENDROOT
BRANCH   1   2
HETATM    2  C   UNL     1       1.820  -1.766  -0.101  1.00  0.00     0.078 C 
BRANCH   2   3
HETATM    3  C   UNL     1       0.602  -0.870  -0.148  1.00  0.00     0.027 A 
HETATM    4  C   UNL     1      -0.729  -1.246  -0.195  1.00  0.00     0.114 A 
HETATM    5  N   UNL     1      -1.498  -0.141  -0.226  1.00  0.00    -0.360 N 
HETATM    6  C   UNL     1      -0.627   0.887  -0.194  1.00  0.00     0.180 A 
ATOM      7  HN  UNL     1      -2.516  -0.093  -0.265  1.00  0.00     0.166 HD
HETATM    8  N   UNL     1       0.652   0.474  -0.145  1.00  0.00    -0.355 N 
HETATM    9  H   UNL     1       1.498   1.081  -0.106  1.00  0.00     0.166 HD
ENDBRANCH   2   3
ENDBRANCH   1   2
BRANCH   1  10
HETATM   10  N   UNL     1       2.611  -4.113  -0.024  1.00  0.00    -0.361 N 
HETATM   11  C   UNL     1       2.471  -5.469   0.020  1.00  0.00     0.219 C 
HETATM   12  O   UNL     1       1.361  -5.975   0.005  1.00  0.00    -0.274 OA
HETATM   13  H   UNL     1       3.556  -3.698  -0.019  1.00  0.00     0.162 HD
BRANCH  11  14
HETATM   14  C   UNL     1       3.677  -6.375   0.081  1.00  0.00     0.132 C 
BRANCH  14  15
HETATM   15  C   UNL     1       4.526  -6.142   1.336  1.00  0.00     0.276 C 
BRANCH  15  16
HETATM   16  N   UNL     1       3.756  -6.394   2.552  1.00  0.00     0.078 N 
HETATM   17  H   UNL     1       3.000  -5.678   2.640  1.00  0.00     0.312 HD
HETATM   18  H   UNL     1       4.392  -6.274   3.373  1.00  0.00     0.312 HD
ENDBRANCH  15  16
ENDBRANCH  14  15
ENDBRANCH  11  14
ENDBRANCH   1  10
TORSDOF 6
