REMARK  10 active torsions:
REMARK  status: ('A' for Active; 'I' for Inactive)
REMARK    1  A    between atoms: C_2  and  C_3 
REMARK    2  A    between atoms: C_3  and  C_4 
REMARK    3  A    between atoms: C_4  and  C_5 
REMARK    4  A    between atoms: C_5  and  C_6 
REMARK    5  A    between atoms: C_6  and  C_7 
REMARK    6  A    between atoms: C_7  and  C_8 
REMARK    7  A    between atoms: C_8  and  C_9 
REMARK    8  A    between atoms: C_9  and  C_10 
REMARK    9  A    between atoms: C_9  and  O_12 
REMARK   10  A    between atoms: C_10  and  O_11 
ROOT
HETATM    1  C   UNL     1       7.112  -3.897  -1.896  1.00  0.00     0.002 C 
ENDROOT
BRANCH   1   2
HETATM    2  C   UNL     1       6.621  -2.621  -1.211  1.00  0.00     0.000 C 
BRANCH   2   3
HETATM    3  C   UNL     1       5.092  -2.587  -1.230  1.00  0.00     0.000 C 
BRANCH   3   4
HETATM    4  C   UNL     1       4.549  -1.327  -0.566  1.00  0.00     0.000 C 
BRANCH   4   5
HETATM    5  C   UNL     1       3.021  -1.322  -0.597  1.00  0.00    -0.000 C 
BRANCH   5   6
HETATM    6  C   UNL     1       2.468  -0.065   0.071  1.00  0.00    -0.005 C 
HETATM    7  C   UNL     1       0.949  -0.052   0.040  1.00  0.00     0.005 C 
ENDBRANCH   5   6
ENDBRANCH   4   5
ENDBRANCH   3   4
ENDBRANCH   2   3
ENDBRANCH   1   2
BRANCH   1   8
HETATM    8  C   UNL     1       8.635  -3.997  -1.913  1.00  0.00     0.034 C 
BRANCH   8   9
HETATM    9  C   UNL     1       9.148  -5.280  -2.586  1.00  0.00     0.141 C 
BRANCH   9  10
HETATM   10  C   UNL     1       8.736  -5.422  -4.059  1.00  0.00     0.195 C 
BRANCH  10  11
HETATM   11  O   UNL     1       9.221  -6.620  -4.649  1.00  0.00    -0.398 OA
HETATM   12  H   UNL     1      10.170  -6.687  -4.417  1.00  0.00     0.209 HD
ENDBRANCH  10  11
ENDBRANCH   9  10
BRANCH   9  13
HETATM   13  O   UNL     1      10.584  -5.284  -2.521  1.00  0.00    -0.393 OA
HETATM   14  H   UNL     1      10.905  -4.472  -2.946  1.00  0.00     0.210 HD
ENDBRANCH   9  13
ENDBRANCH   8   9
ENDBRANCH   1   8
TORSDOF 10
