REMARK  15 active torsions:
REMARK  status: ('A' for Active; 'I' for Inactive)
REMARK    1  A    between atoms: C_2  and  C_3 
REMARK    2  A    between atoms: C_3  and  C_4 
REMARK    3  A    between atoms: C_4  and  C_5 
REMARK    4  A    between atoms: C_5  and  C_6 
REMARK    5  A    between atoms: C_6  and  C_7 
REMARK    6  A    between atoms: C_7  and  C_8 
REMARK    7  A    between atoms: C_8  and  C_9 
REMARK    8  A    between atoms: C_9  and  C_10 
REMARK    9  A    between atoms: C_10  and  O_11 
REMARK   10  A    between atoms: O_11  and  C_12 
REMARK   11  A    between atoms: C_13  and  O_22 
REMARK   12  A    between atoms: C_14  and  O_21 
REMARK   13  A    between atoms: C_15  and  O_20 
REMARK   14  A    between atoms: C_16  and  C_18 
REMARK   15  A    between atoms: C_18  and  O_19 
ROOT
HETATM    1  C   UNL     1      12.611  -3.817  -3.373  1.00  0.00     0.291 C 
HETATM    2  C   UNL     1      12.976  -4.464  -2.017  1.00  0.00     0.204 C 
HETATM    3  C   UNL     1      12.619  -3.497  -0.867  1.00  0.00     0.183 C 
HETATM    4  C   UNL     1      13.209  -2.098  -1.104  1.00  0.00     0.180 C 
HETATM    5  C   UNL     1      12.730  -1.602  -2.474  1.00  0.00     0.179 C 
HETATM    6  O   UNL     1      13.200  -2.508  -3.494  1.00  0.00    -0.348 OA
ENDROOT
BRANCH   1   7
HETATM    7  O   UNL     1      11.189  -3.771  -3.491  1.00  0.00    -0.359 OA
BRANCH   7   8
HETATM    8  C   UNL     1      10.746  -3.311  -4.767  1.00  0.00     0.171 C 
BRANCH   8   9
HETATM    9  C   UNL     1       9.218  -3.249  -4.754  1.00  0.00     0.026 C 
BRANCH   9  10
HETATM   10  C   UNL     1       8.641  -2.413  -3.603  1.00  0.00     0.002 C 
BRANCH  10  11
HETATM   11  C   UNL     1       9.039  -0.940  -3.681  1.00  0.00     0.000 C 
BRANCH  11  12
HETATM   12  C   UNL     1       8.530  -0.154  -2.475  1.00  0.00     0.000 C 
BRANCH  12  13
HETATM   13  C   UNL     1       9.019   1.290  -2.529  1.00  0.00     0.000 C 
BRANCH  13  14
HETATM   14  C   UNL     1       8.474   2.101  -1.356  1.00  0.00     0.000 C 
BRANCH  14  15
HETATM   15  C   UNL     1       8.949   3.551  -1.425  1.00  0.00    -0.000 C 
BRANCH  15  16
HETATM   16  C   UNL     1       8.394   4.366  -0.263  1.00  0.00    -0.005 C 
HETATM   17  C   UNL     1       8.856   5.813  -0.328  1.00  0.00     0.005 C 
ENDBRANCH  15  16
ENDBRANCH  14  15
ENDBRANCH  13  14
ENDBRANCH  12  13
ENDBRANCH  11  12
ENDBRANCH  10  11
ENDBRANCH   9  10
ENDBRANCH   8   9
ENDBRANCH   7   8
ENDBRANCH   1   7
BRANCH   2  18
HETATM   18  O   UNL     1      14.374  -4.803  -1.987  1.00  0.00    -0.388 OA
HETATM   19  H   UNL     1      14.872  -3.975  -2.111  1.00  0.00     0.210 HD
ENDBRANCH   2  18
BRANCH   3  20
HETATM   20  O   UNL     1      13.093  -4.008   0.381  1.00  0.00    -0.390 OA
HETATM   21  H   UNL     1      14.061  -4.065   0.289  1.00  0.00     0.210 HD
ENDBRANCH   3  20
BRANCH   5  22
HETATM   22  C   UNL     1      13.231  -0.194  -2.812  1.00  0.00     0.198 C 
BRANCH  22  23
HETATM   23  O   UNL     1      12.738   0.206  -4.092  1.00  0.00    -0.398 OA
HETATM   24  H   UNL     1      13.032  -0.484  -4.719  1.00  0.00     0.209 HD
ENDBRANCH  22  23
ENDBRANCH   5  22
BRANCH   4  25
HETATM   25  O   UNL     1      14.647  -2.192  -1.049  1.00  0.00    -0.390 OA
HETATM   26  H   UNL     1      15.021  -1.857  -1.885  1.00  0.00     0.210 HD
ENDBRANCH   4  25
TORSDOF 15
