REMARK  1 active torsions:
REMARK  status: ('A' for Active; 'I' for Inactive)
REMARK    1  A    between atoms: C_6  and  C_10 
ROOT
HETATM    1  C   UNL     1       0.994   0.025  -0.111  1.00  0.00     0.077 C 
HETATM    2  C   UNL     1       2.487   0.126  -0.067  1.00  0.00     0.056 C 
HETATM    3  C   UNL     1       3.137   1.291  -0.030  1.00  0.00     0.084 C 
HETATM    4  C   UNL     1       4.601   1.274   0.026  1.00  0.00     0.172 C 
HETATM    5  O   UNL     1       5.203   2.333   0.205  1.00  0.00    -0.292 OA
HETATM    6  C   UNL     1       5.321  -0.021  -0.146  1.00  0.00     0.228 C 
HETATM    7  C   UNL     1       4.490  -1.256  -0.069  1.00  0.00     0.282 C 
HETATM    8  O   UNL     1       5.013  -2.369  -0.024  1.00  0.00    -0.264 OA
HETATM    9  O   UNL     1       3.137  -1.122  -0.045  1.00  0.00    -0.283 OA
ENDROOT
BRANCH   6  10
HETATM   10  C   UNL     1       6.110  -0.018  -1.429  1.00  0.00     0.144 C 
HETATM   11  O   UNL     1       5.552   0.143  -2.517  1.00  0.00    -0.297 OA
HETATM   12  C   UNL     1       7.598  -0.241  -1.354  1.00  0.00     0.092 C 
ENDBRANCH   6  10
TORSDOF 1
