REMARK  22 active torsions:
REMARK  status: ('A' for Active; 'I' for Inactive)
REMARK    1  A    between atoms: C_1  and  C_2 
REMARK    2  A    between atoms: C_1  and  O_34 
REMARK    3  A    between atoms: C_3  and  O_33 
REMARK    4  A    between atoms: C_4  and  O_32 
REMARK    5  A    between atoms: C_5  and  O_31 
REMARK    6  A    between atoms: C_6  and  O_8 
REMARK    7  A    between atoms: O_8  and  C_9 
REMARK    8  A    between atoms: C_9  and  C_10 
REMARK    9  A    between atoms: C_11  and  O_30 
REMARK   10  A    between atoms: C_12  and  O_29 
REMARK   11  A    between atoms: C_13  and  O_28 
REMARK   12  A    between atoms: C_14  and  O_16 
REMARK   13  A    between atoms: O_16  and  C_17 
REMARK   14  A    between atoms: C_17  and  C_18 
REMARK   15  A    between atoms: C_18  and  C_19 
REMARK   16  A    between atoms: C_18  and  O_27 
REMARK   17  A    between atoms: C_19  and  C_20 
REMARK   18  A    between atoms: C_19  and  O_26 
REMARK   19  A    between atoms: C_20  and  C_21 
REMARK   20  A    between atoms: C_20  and  O_25 
REMARK   21  A    between atoms: C_21  and  C_22 
REMARK   22  A    between atoms: C_21  and  O_24 
ROOT
HETATM    1  C   UNL     1      -1.742   0.703   5.133  1.00  0.00     0.180 C 
HETATM    2  C   UNL     1      -2.321  -0.621   4.613  1.00  0.00     0.180 C 
HETATM    3  C   UNL     1      -3.117  -0.414   3.311  1.00  0.00     0.183 C 
HETATM    4  C   UNL     1      -4.178   0.687   3.441  1.00  0.00     0.204 C 
HETATM    5  C   UNL     1      -3.489   1.956   3.994  1.00  0.00     0.291 C 
HETATM    6  O   UNL     1      -2.762   1.710   5.195  1.00  0.00    -0.348 OA
ENDROOT
BRANCH   1   7
HETATM    7  C   UNL     1      -0.522   1.208   4.362  1.00  0.00     0.205 C 
BRANCH   7   8
HETATM    8  O   UNL     1      -0.139   2.470   4.930  1.00  0.00    -0.356 OA
BRANCH   8   9
HETATM    9  C   UNL     1       1.003   3.007   4.259  1.00  0.00     0.291 C 
HETATM   10  C   UNL     1       1.420   4.302   4.975  1.00  0.00     0.204 C 
HETATM   11  C   UNL     1       2.644   4.879   4.260  1.00  0.00     0.183 C 
HETATM   12  C   UNL     1       2.343   5.092   2.764  1.00  0.00     0.180 C 
HETATM   13  C   UNL     1       1.694   3.855   2.108  1.00  0.00     0.179 C 
HETATM   14  O   UNL     1       0.636   3.303   2.912  1.00  0.00    -0.348 OA
BRANCH  10  15
HETATM   15  O   UNL     1       0.343   5.273   4.905  1.00  0.00    -0.388 OA
HETATM   16  H   UNL     1      -0.481   4.752   5.008  1.00  0.00     0.210 HD
ENDBRANCH  10  15
BRANCH  11  17
HETATM   17  O   UNL     1       3.021   6.119   4.874  1.00  0.00    -0.390 OA
HETATM   18  H   UNL     1       2.233   6.693   4.794  1.00  0.00     0.210 HD
ENDBRANCH  11  17
BRANCH  12  19
HETATM   19  O   UNL     1       1.437   6.205   2.615  1.00  0.00    -0.390 OA
HETATM   20  H   UNL     1       0.679   6.030   3.213  1.00  0.00     0.210 HD
ENDBRANCH  12  19
BRANCH  13  21
HETATM   21  C   UNL     1       2.695   2.762   1.701  1.00  0.00     0.198 C 
BRANCH  21  22
HETATM   22  O   UNL     1       3.518   2.371   2.792  1.00  0.00    -0.398 OA
HETATM   23  H   UNL     1       4.371   2.079   2.424  1.00  0.00     0.209 HD
ENDBRANCH  21  22
ENDBRANCH  13  21
ENDBRANCH   8   9
ENDBRANCH   7   8
ENDBRANCH   1   7
BRANCH   2  24
HETATM   24  O   UNL     1      -3.179  -1.193   5.617  1.00  0.00    -0.390 OA
HETATM   25  H   UNL     1      -3.532  -0.485   6.181  1.00  0.00     0.210 HD
ENDBRANCH   2  24
BRANCH   3  26
HETATM   26  O   UNL     1      -3.748  -1.644   2.936  1.00  0.00    -0.390 OA
HETATM   27  H   UNL     1      -4.449  -1.784   3.609  1.00  0.00     0.210 HD
ENDBRANCH   3  26
BRANCH   5  28
HETATM   28  O   UNL     1      -4.351   3.069   4.221  1.00  0.00    -0.356 OA
BRANCH  28  29
HETATM   29  C   UNL     1      -5.368   2.959   5.208  1.00  0.00     0.205 C 
BRANCH  29  30
HETATM   30  C   UNL     1      -4.920   2.591   6.644  1.00  0.00     0.173 C 
BRANCH  30  31
HETATM   31  C   UNL     1      -4.084   3.723   7.303  1.00  0.00     0.180 C 
BRANCH  31  32
HETATM   32  C   UNL     1      -3.397   3.302   8.622  1.00  0.00     0.184 C 
BRANCH  32  33
HETATM   33  C   UNL     1      -2.556   4.450   9.232  1.00  0.00     0.210 C 
BRANCH  33  34
HETATM   34  C   UNL     1      -3.431   5.653   9.546  1.00  0.00     0.265 C 
HETATM   35  O   UNL     1      -4.634   5.560   9.795  1.00  0.00    -0.304 OA
ENDBRANCH  33  34
BRANCH  33  36
HETATM   36  O   UNL     1      -1.941   4.012  10.445  1.00  0.00    -0.386 OA
HETATM   37  H   UNL     1      -2.592   3.430  10.886  1.00  0.00     0.210 HD
ENDBRANCH  33  36
ENDBRANCH  32  33
BRANCH  32  38
HETATM   38  O   UNL     1      -4.333   2.824   9.597  1.00  0.00    -0.390 OA
HETATM   39  H   UNL     1      -4.863   3.594   9.895  1.00  0.00     0.210 HD
ENDBRANCH  32  38
ENDBRANCH  31  32
BRANCH  31  40
HETATM   40  O   UNL     1      -3.064   4.236   6.439  1.00  0.00    -0.390 OA
HETATM   41  H   UNL     1      -2.760   3.493   5.879  1.00  0.00     0.210 HD
ENDBRANCH  31  40
ENDBRANCH  30  31
BRANCH  30  42
HETATM   42  O   UNL     1      -6.094   2.226   7.377  1.00  0.00    -0.391 OA
HETATM   43  H   UNL     1      -6.276   2.902   8.050  1.00  0.00     0.210 HD
ENDBRANCH  30  42
ENDBRANCH  29  30
ENDBRANCH  28  29
ENDBRANCH   5  28
BRANCH   4  44
HETATM   44  O   UNL     1      -5.266   0.181   4.238  1.00  0.00    -0.388 OA
HETATM   45  H   UNL     1      -5.101   0.358   5.178  1.00  0.00     0.210 HD
ENDBRANCH   4  44
TORSDOF 22
