REMARK  18 active torsions:
REMARK  status: ('A' for Active; 'I' for Inactive)
REMARK    1  A    between atoms: C_1  and  C_2 
REMARK    2  A    between atoms: C_1  and  O_34 
REMARK    3  A    between atoms: C_3  and  O_33 
REMARK    4  A    between atoms: C_4  and  O_32 
REMARK    5  A    between atoms: C_5  and  O_31 
REMARK    6  A    between atoms: C_6  and  O_8 
REMARK    7  A    between atoms: O_8  and  C_9 
REMARK    8  A    between atoms: C_10  and  C_29 
REMARK    9  A    between atoms: C_12  and  O_17 
REMARK   10  A    between atoms: C_13  and  O_16 
REMARK   11  A    between atoms: C_14  and  O_15 
REMARK   12  A    between atoms: O_17  and  C_18 
REMARK   13  A    between atoms: C_19  and  C_27 
REMARK   14  A    between atoms: C_21  and  O_26 
REMARK   15  A    between atoms: C_22  and  O_25 
REMARK   16  A    between atoms: C_23  and  O_24 
REMARK   17  A    between atoms: C_27  and  O_28 
REMARK   18  A    between atoms: C_29  and  O_30 
ROOT
HETATM    1  C   UNL     1       2.226   4.443  -2.120  1.00  0.00     0.187 C 
HETATM    2  C   UNL     1       0.893   4.722  -2.848  1.00  0.00     0.180 C 
HETATM    3  O   UNL     1       0.135   3.515  -3.020  1.00  0.00    -0.348 OA
HETATM    4  C   UNL     1       0.762   2.425  -3.692  1.00  0.00     0.292 C 
HETATM    5  C   UNL     1       2.255   2.188  -3.282  1.00  0.00     0.204 C 
HETATM    6  C   UNL     1       3.044   3.471  -2.978  1.00  0.00     0.183 C 
ENDROOT
BRANCH   1   7
HETATM    7  O   UNL     1       1.880   3.942  -0.810  1.00  0.00    -0.348 OA
BRANCH   7   8
HETATM    8  C   UNL     1       2.880   3.647   0.172  1.00  0.00     0.292 C 
HETATM    9  C   UNL     1       3.877   4.789   0.510  1.00  0.00     0.204 C 
HETATM   10  C   UNL     1       4.849   4.302   1.595  1.00  0.00     0.183 C 
HETATM   11  C   UNL     1       5.525   2.980   1.187  1.00  0.00     0.180 C 
HETATM   12  C   UNL     1       4.466   1.919   0.852  1.00  0.00     0.179 C 
HETATM   13  O   UNL     1       3.508   2.400  -0.125  1.00  0.00    -0.348 OA
BRANCH   9  14
HETATM   14  O   UNL     1       4.673   5.254  -0.594  1.00  0.00    -0.388 OA
HETATM   15  H   UNL     1       4.718   4.527  -1.260  1.00  0.00     0.210 HD
ENDBRANCH   9  14
BRANCH  10  16
HETATM   16  O   UNL     1       5.852   5.296   1.852  1.00  0.00    -0.390 OA
HETATM   17  H   UNL     1       5.859   5.902   1.086  1.00  0.00     0.210 HD
ENDBRANCH  10  16
BRANCH  11  18
HETATM   18  O   UNL     1       6.346   3.150   0.022  1.00  0.00    -0.390 OA
HETATM   19  H   UNL     1       6.471   4.106  -0.124  1.00  0.00     0.210 HD
ENDBRANCH  11  18
BRANCH  12  20
HETATM   20  C   UNL     1       3.769   1.366   2.102  1.00  0.00     0.198 C 
BRANCH  20  21
HETATM   21  O   UNL     1       2.777   0.409   1.747  1.00  0.00    -0.398 OA
HETATM   22  H   UNL     1       2.262   0.785   1.009  1.00  0.00     0.209 HD
ENDBRANCH  20  21
ENDBRANCH  12  20
ENDBRANCH   7   8
ENDBRANCH   1   7
BRANCH   2  23
HETATM   23  C   UNL     1       1.022   5.560  -4.140  1.00  0.00     0.198 C 
BRANCH  23  24
HETATM   24  O   UNL     1       1.846   4.966  -5.137  1.00  0.00    -0.398 OA
HETATM   25  H   UNL     1       2.630   5.536  -5.258  1.00  0.00     0.209 HD
ENDBRANCH  23  24
ENDBRANCH   2  23
BRANCH   6  26
HETATM   26  O   UNL     1       4.323   3.235  -2.369  1.00  0.00    -0.390 OA
HETATM   27  H   UNL     1       4.215   2.463  -1.772  1.00  0.00     0.210 HD
ENDBRANCH   6  26
BRANCH   5  28
HETATM   28  O   UNL     1       2.958   1.380  -4.233  1.00  0.00    -0.388 OA
HETATM   29  H   UNL     1       2.972   1.883  -5.068  1.00  0.00     0.210 HD
ENDBRANCH   5  28
BRANCH   4  30
HETATM   30  O   UNL     1       0.499   2.433  -5.118  1.00  0.00    -0.348 OA
BRANCH  30  31
HETATM   31  C   UNL     1      -0.930   2.552  -5.423  1.00  0.00     0.187 C 
HETATM   32  C   UNL     1      -1.759   1.299  -5.034  1.00  0.00     0.180 C 
HETATM   33  O   UNL     1      -1.544   0.205  -5.939  1.00  0.00    -0.349 OA
HETATM   34  C   UNL     1      -1.776   0.450  -7.311  1.00  0.00     0.288 C 
HETATM   35  C   UNL     1      -0.998   1.663  -7.852  1.00  0.00     0.204 C 
HETATM   36  C   UNL     1      -1.131   2.879  -6.915  1.00  0.00     0.183 C 
BRANCH  32  37
HETATM   37  C   UNL     1      -3.256   1.631  -4.864  1.00  0.00     0.198 C 
BRANCH  37  38
HETATM   38  O   UNL     1      -3.985   0.453  -4.534  1.00  0.00    -0.398 OA
HETATM   39  H   UNL     1      -3.800  -0.186  -5.251  1.00  0.00     0.209 HD
ENDBRANCH  37  38
ENDBRANCH  32  37
BRANCH  34  40
HETATM   40  O   UNL     1      -3.172   0.545  -7.582  1.00  0.00    -0.369 OA
HETATM   41  H   UNL     1      -3.352   1.441  -7.920  1.00  0.00     0.212 HD
ENDBRANCH  34  40
BRANCH  35  42
HETATM   42  O   UNL     1      -1.523   2.013  -9.151  1.00  0.00    -0.388 OA
HETATM   43  H   UNL     1      -1.832   1.201  -9.592  1.00  0.00     0.210 HD
ENDBRANCH  35  42
BRANCH  36  44
HETATM   44  O   UNL     1      -0.241   3.932  -7.314  1.00  0.00    -0.390 OA
HETATM   45  H   UNL     1       0.618   3.749  -6.885  1.00  0.00     0.210 HD
ENDBRANCH  36  44
ENDBRANCH  30  31
ENDBRANCH   4  30
TORSDOF 18
