REMARK  2 active torsions:
REMARK  status: ('A' for Active; 'I' for Inactive)
REMARK    1  A    between atoms: C_2  and  N_11 
REMARK    2  A    between atoms: N_3  and  O_10 
ROOT
HETATM    1  C   UNL     1      -1.129  -0.798  -0.029  1.00  0.00     0.062 C 
HETATM    2  C   UNL     1       0.043  -1.462   0.045  1.00  0.00     0.126 C 
HETATM    3  N   UNL     1       1.206  -0.710   0.127  1.00  0.00    -0.042 N 
HETATM    4  C   UNL     1       1.206   0.675   0.050  1.00  0.00     0.703 C 
HETATM    5  N   UNL     1       2.281   1.390  -0.045  1.00  0.00    -0.232 N 
ATOM      6  HN  UNL     1       2.353   2.406  -0.092  1.00  0.00     0.174 HD
HETATM    7  N   UNL     1       0.035   1.388   0.067  1.00  0.00    -0.200 N 
ATOM      8  HN  UNL     1       0.018   2.407   0.111  1.00  0.00     0.183 HD
HETATM    9  C   UNL     1      -1.045   0.681   0.024  1.00  0.00     0.109 C 
HETATM   10  H   UNL     1       3.045   0.704  -0.063  1.00  0.00     0.174 HD
ENDROOT
BRANCH   2  11
HETATM   11  N   UNL     1       0.068  -2.855   0.027  1.00  0.00    -0.286 NA
HETATM   12  H   UNL     1      -0.861  -3.269   0.078  1.00  0.00     0.125 HD
HETATM   13  H   UNL     1       0.640  -3.225   0.783  1.00  0.00     0.125 HD
ENDBRANCH   2  11
BRANCH   3  14
HETATM   14  O   UNL     1       2.468  -1.305  -0.011  1.00  0.00    -0.268 OA
HETATM   15  H   UNL     1       2.260  -2.255  -0.007  1.00  0.00     0.246 HD
ENDBRANCH   3  14
TORSDOF 2
