REMARK  9 active torsions:
REMARK  status: ('A' for Active; 'I' for Inactive)
REMARK    1  A    between atoms: C_1  and  N_2 
REMARK    2  A    between atoms: C_1  and  O_19 
REMARK       I    between atoms: N_2  and  C_3 
REMARK       I    between atoms: C_3  and  N_5 
REMARK    3  A    between atoms: N_5  and  C_6 
REMARK    4  A    between atoms: N_5  and  C_8 
REMARK    5  A    between atoms: C_6  and  O_7 
REMARK    6  A    between atoms: N_11  and  C_17 
REMARK    7  A    between atoms: N_14  and  C_15 
REMARK    8  A    between atoms: C_15  and  O_16 
REMARK    9  A    between atoms: C_17  and  O_18 
ROOT
HETATM    1  C   UNL     1      -2.734   2.431  -2.083  1.00  0.00     0.292 A 
HETATM    2  C   UNL     1      -3.586   1.238  -1.609  1.00  0.00     0.272 A 
HETATM    3  O   UNL     1      -3.508   0.078  -1.994  1.00  0.00    -0.268 OA
HETATM    4  N   UNL     1      -4.404   1.670  -0.605  1.00  0.00    -0.244 N 
HETATM    5  C   UNL     1      -4.276   3.004  -0.422  1.00  0.00     0.332 A 
HETATM    6  O   UNL     1      -4.933   3.722   0.316  1.00  0.00    -0.246 OA
HETATM    7  N   UNL     1      -3.251   3.467  -1.230  1.00  0.00    -0.282 N 
ENDROOT
BRANCH   1   8
HETATM    8  N   UNL     1      -1.325   2.118  -1.903  1.00  0.00    -0.282 N 
HETATM    9  C   UNL     1      -0.660   1.697  -3.036  1.00  0.00     0.323 C 
HETATM   10  N   UNL     1       0.660   1.424  -2.888  1.00  0.00    -0.322 N 
HETATM   11  O   UNL     1      -1.228   1.562  -4.118  1.00  0.00    -0.247 OA
HETATM   12  H   UNL     1       1.092   1.591  -1.986  1.00  0.00     0.166 HD
BRANCH  10  13
HETATM   13  C   UNL     1       1.453   0.830  -3.912  1.00  0.00     0.291 C 
BRANCH  13  14
HETATM   14  O   UNL     1       2.036   1.884  -4.636  1.00  0.00    -0.382 OA
HETATM   15  H   UNL     1       1.275   2.372  -4.997  1.00  0.00     0.211 HD
ENDBRANCH  13  14
ENDBRANCH  10  13
BRANCH   8  16
HETATM   16  C   UNL     1      -0.718   2.411  -0.616  1.00  0.00     0.297 C 
BRANCH  16  17
HETATM   17  O   UNL     1       0.279   1.456  -0.323  1.00  0.00    -0.382 OA
HETATM   18  H   UNL     1      -0.174   0.595  -0.309  1.00  0.00     0.211 HD
ENDBRANCH  16  17
ENDBRANCH   8  16
ENDBRANCH   1   8
BRANCH   7  19
HETATM   19  C   UNL     1      -2.989   4.852  -1.473  1.00  0.00     0.297 C 
BRANCH  19  20
HETATM   20  O   UNL     1      -2.530   5.406  -0.261  1.00  0.00    -0.382 OA
HETATM   21  H   UNL     1      -3.252   5.253   0.378  1.00  0.00     0.211 HD
ENDBRANCH  19  20
ENDBRANCH   7  19
BRANCH   4  22
HETATM   22  C   UNL     1      -5.292   0.818   0.118  1.00  0.00     0.303 C 
BRANCH  22  23
HETATM   23  O   UNL     1      -4.511  -0.159   0.789  1.00  0.00    -0.382 OA
HETATM   24  H   UNL     1      -4.056  -0.655   0.082  1.00  0.00     0.211 HD
ENDBRANCH  22  23
ENDBRANCH   4  22
TORSDOF 9
