REMARK  16 active torsions:
REMARK  status: ('A' for Active; 'I' for Inactive)
REMARK    1  A    between atoms: C_2  and  C_3 
REMARK    2  A    between atoms: C_3  and  C_4 
REMARK    3  A    between atoms: C_4  and  C_5 
REMARK    4  A    between atoms: C_5  and  C_6 
REMARK    5  A    between atoms: C_6  and  C_7 
REMARK    6  A    between atoms: C_7  and  C_8 
REMARK    7  A    between atoms: C_8  and  O_9 
REMARK    8  A    between atoms: O_9  and  C_10 
REMARK    9  A    between atoms: C_10  and  O_12 
REMARK   10  A    between atoms: O_12  and  C_13 
REMARK   11  A    between atoms: C_13  and  C_14 
REMARK   12  A    between atoms: C_14  and  C_15 
REMARK   13  A    between atoms: C_15  and  C_16 
REMARK   14  A    between atoms: C_16  and  C_17 
REMARK   15  A    between atoms: C_17  and  C_18 
REMARK   16  A    between atoms: C_18  and  C_19 
ROOT
HETATM    1  C   UNL     1      10.478   3.777  -4.402  1.00  0.00     0.406 C 
HETATM    2  O   UNL     1      11.277   3.178  -3.686  1.00  0.00    -0.230 OA
ENDROOT
BRANCH   1   3
HETATM    3  O   UNL     1       9.123   3.669  -4.366  1.00  0.00    -0.298 OA
BRANCH   3   4
HETATM    4  C   UNL     1       8.609   2.340  -4.469  1.00  0.00     0.181 C 
BRANCH   4   5
HETATM    5  C   UNL     1       7.834   1.916  -3.225  1.00  0.00     0.027 C 
BRANCH   5   6
HETATM    6  C   UNL     1       7.252   0.509  -3.392  1.00  0.00     0.002 C 
BRANCH   6   7
HETATM    7  C   UNL     1       6.492   0.070  -2.143  1.00  0.00     0.000 C 
BRANCH   7   8
HETATM    8  C   UNL     1       5.919  -1.334  -2.317  1.00  0.00     0.000 C 
BRANCH   8   9
HETATM    9  C   UNL     1       5.162  -1.763  -1.066  1.00  0.00    -0.000 C 
BRANCH   9  10
HETATM   10  C   UNL     1       4.584  -3.165  -1.234  1.00  0.00    -0.005 C 
HETATM   11  C   UNL     1       3.834  -3.588   0.016  1.00  0.00     0.005 C 
ENDBRANCH   9  10
ENDBRANCH   8   9
ENDBRANCH   7   8
ENDBRANCH   6   7
ENDBRANCH   5   6
ENDBRANCH   4   5
ENDBRANCH   3   4
ENDBRANCH   1   3
BRANCH   1  12
HETATM   12  O   UNL     1      10.785   4.673  -5.379  1.00  0.00    -0.298 OA
BRANCH  12  13
HETATM   13  C   UNL     1      11.630   5.753  -4.979  1.00  0.00     0.181 C 
BRANCH  13  14
HETATM   14  C   UNL     1      12.961   5.759  -5.724  1.00  0.00     0.027 C 
BRANCH  14  15
HETATM   15  C   UNL     1      13.816   6.962  -5.313  1.00  0.00     0.002 C 
BRANCH  15  16
HETATM   16  C   UNL     1      15.160   6.962  -6.038  1.00  0.00     0.000 C 
BRANCH  16  17
HETATM   17  C   UNL     1      16.007   8.160  -5.618  1.00  0.00     0.000 C 
BRANCH  17  18
HETATM   18  C   UNL     1      17.347   8.151  -6.345  1.00  0.00    -0.000 C 
BRANCH  18  19
HETATM   19  C   UNL     1      18.199   9.347  -5.930  1.00  0.00    -0.005 C 
HETATM   20  C   UNL     1      19.531   9.332  -6.657  1.00  0.00     0.005 C 
ENDBRANCH  18  19
ENDBRANCH  17  18
ENDBRANCH  16  17
ENDBRANCH  15  16
ENDBRANCH  14  15
ENDBRANCH  13  14
ENDBRANCH  12  13
ENDBRANCH   1  12
TORSDOF 16
