REMARK  14 active torsions:
REMARK  status: ('A' for Active; 'I' for Inactive)
REMARK    1  A    between atoms: C_2  and  C_3 
REMARK    2  A    between atoms: C_3  and  C_4 
REMARK    3  A    between atoms: C_4  and  C_5 
REMARK    4  A    between atoms: C_5  and  C_6 
REMARK    5  A    between atoms: C_6  and  C_7 
REMARK    6  A    between atoms: C_7  and  C_8 
REMARK    7  A    between atoms: C_8  and  O_9 
REMARK    8  A    between atoms: O_9  and  C_10 
REMARK    9  A    between atoms: C_10  and  C_11 
REMARK   10  A    between atoms: C_11  and  C_12 
REMARK   11  A    between atoms: C_12  and  C_13 
REMARK   12  A    between atoms: C_13  and  C_14 
REMARK   13  A    between atoms: C_14  and  C_15 
REMARK   14  A    between atoms: C_15  and  C_16 
ROOT
HETATM    1  O   UNL     1       9.044  -5.194   2.074  1.00  0.00    -0.391 OA
ENDROOT
BRANCH   1   2
HETATM    2  C   UNL     1       8.558  -3.944   1.596  1.00  0.00     0.167 C 
BRANCH   2   3
HETATM    3  C   UNL     1       7.039  -3.970   1.606  1.00  0.00     0.026 C 
BRANCH   3   4
HETATM    4  C   UNL     1       6.488  -2.644   1.096  1.00  0.00     0.002 C 
BRANCH   4   5
HETATM    5  C   UNL     1       4.964  -2.635   1.094  1.00  0.00     0.000 C 
BRANCH   5   6
HETATM    6  C   UNL     1       4.438  -1.297   0.578  1.00  0.00     0.000 C 
BRANCH   6   7
HETATM    7  C   UNL     1       2.912  -1.276   0.574  1.00  0.00    -0.000 C 
BRANCH   7   8
HETATM    8  C   UNL     1       2.380   0.059   0.058  1.00  0.00    -0.005 C 
HETATM    9  C   UNL     1       0.861   0.077   0.055  1.00  0.00     0.005 C 
ENDBRANCH   7   8
ENDBRANCH   6   7
ENDBRANCH   5   6
ENDBRANCH   4   5
ENDBRANCH   3   4
ENDBRANCH   2   3
ENDBRANCH   1   2
BRANCH   1  10
HETATM   10  C   UNL     1      10.468  -5.204   2.078  1.00  0.00     0.167 C 
BRANCH  10  11
HETATM   11  C   UNL     1      10.949  -6.550   2.594  1.00  0.00     0.026 C 
BRANCH  11  12
HETATM   12  C   UNL     1      12.472  -6.592   2.611  1.00  0.00     0.002 C 
BRANCH  12  13
HETATM   13  C   UNL     1      12.988  -7.931   3.123  1.00  0.00     0.000 C 
BRANCH  13  14
HETATM   14  C   UNL     1      14.515  -7.951   3.129  1.00  0.00     0.000 C 
BRANCH  14  15
HETATM   15  C   UNL     1      15.042  -9.288   3.639  1.00  0.00    -0.000 C 
BRANCH  15  16
HETATM   16  C   UNL     1      16.569  -9.311   3.649  1.00  0.00    -0.005 C 
HETATM   17  C   UNL     1      17.091 -10.643   4.159  1.00  0.00     0.005 C 
ENDBRANCH  15  16
ENDBRANCH  14  15
ENDBRANCH  13  14
ENDBRANCH  12  13
ENDBRANCH  11  12
ENDBRANCH  10  11
ENDBRANCH   1  10
TORSDOF 14
