REMARK  18 active torsions:
REMARK  status: ('A' for Active; 'I' for Inactive)
REMARK    1  A    between atoms: C_2  and  C_3 
REMARK    2  A    between atoms: C_3  and  C_4 
REMARK    3  A    between atoms: C_4  and  C_5 
REMARK    4  A    between atoms: C_5  and  C_6 
REMARK    5  A    between atoms: C_6  and  C_7 
REMARK    6  A    between atoms: C_7  and  C_8 
REMARK    7  A    between atoms: C_8  and  O_9 
REMARK    8  A    between atoms: O_9  and  C_10 
REMARK    9  A    between atoms: C_10  and  C_12 
REMARK   10  A    between atoms: C_13  and  C_14 
REMARK   11  A    between atoms: C_14  and  O_16 
REMARK   12  A    between atoms: O_16  and  C_17 
REMARK   13  A    between atoms: C_17  and  C_18 
REMARK   14  A    between atoms: C_18  and  C_19 
REMARK   15  A    between atoms: C_19  and  C_20 
REMARK   16  A    between atoms: C_20  and  C_21 
REMARK   17  A    between atoms: C_21  and  C_22 
REMARK   18  A    between atoms: C_22  and  C_23 
ROOT
HETATM    1  C   UNL     1      10.899  -5.183  -5.209  1.00  0.00     0.088 C 
HETATM    2  C   UNL     1      12.196  -5.413  -5.441  1.00  0.00     0.088 C 
ENDROOT
BRANCH   1   3
HETATM    3  C   UNL     1      10.494  -4.184  -4.188  1.00  0.00     0.283 C 
HETATM    4  O   UNL     1      11.251  -3.556  -3.483  1.00  0.00    -0.260 OA
BRANCH   3   5
HETATM    5  O   UNL     1       9.129  -4.175  -4.106  1.00  0.00    -0.318 OA
BRANCH   5   6
HETATM    6  C   UNL     1       8.593  -4.413  -2.790  1.00  0.00     0.179 C 
BRANCH   6   7
HETATM    7  C   UNL     1       7.792  -3.235  -2.232  1.00  0.00     0.027 C 
BRANCH   7   8
HETATM    8  C   UNL     1       7.202  -3.552  -0.845  1.00  0.00     0.002 C 
BRANCH   8   9
HETATM    9  C   UNL     1       6.411  -2.371  -0.268  1.00  0.00     0.000 C 
BRANCH   9  10
HETATM   10  C   UNL     1       5.830  -2.696   1.113  1.00  0.00     0.000 C 
BRANCH  10  11
HETATM   11  C   UNL     1       5.045  -1.510   1.678  1.00  0.00    -0.000 C 
BRANCH  11  12
HETATM   12  C   UNL     1       4.460  -1.827   3.055  1.00  0.00    -0.005 C 
HETATM   13  C   UNL     1       3.682  -0.643   3.606  1.00  0.00     0.005 C 
ENDBRANCH  11  12
ENDBRANCH  10  11
ENDBRANCH   9  10
ENDBRANCH   8   9
ENDBRANCH   7   8
ENDBRANCH   6   7
ENDBRANCH   5   6
ENDBRANCH   3   5
ENDBRANCH   1   3
BRANCH   2  14
HETATM   14  C   UNL     1      12.640  -6.421  -6.432  1.00  0.00     0.283 C 
HETATM   15  O   UNL     1      11.902  -7.140  -7.094  1.00  0.00    -0.260 OA
BRANCH  14  16
HETATM   16  O   UNL     1      14.003  -6.496  -6.431  1.00  0.00    -0.318 OA
BRANCH  16  17
HETATM   17  C   UNL     1      14.531  -7.814  -6.193  1.00  0.00     0.179 C 
BRANCH  17  18
HETATM   18  C   UNL     1      15.340  -8.376  -7.364  1.00  0.00     0.027 C 
BRANCH  18  19
HETATM   19  C   UNL     1      15.920  -9.767  -7.045  1.00  0.00     0.002 C 
BRANCH  19  20
HETATM   20  C   UNL     1      16.718 -10.344  -8.221  1.00  0.00     0.000 C 
BRANCH  20  21
HETATM   21  C   UNL     1      17.290 -11.729  -7.899  1.00  0.00     0.000 C 
BRANCH  21  22
HETATM   22  C   UNL     1      18.082 -12.291  -9.082  1.00  0.00    -0.000 C 
BRANCH  22  23
HETATM   23  C   UNL     1      18.656 -13.672  -8.768  1.00  0.00    -0.005 C 
HETATM   24  C   UNL     1      19.441 -14.221  -9.949  1.00  0.00     0.005 C 
ENDBRANCH  22  23
ENDBRANCH  21  22
ENDBRANCH  20  21
ENDBRANCH  19  20
ENDBRANCH  18  19
ENDBRANCH  17  18
ENDBRANCH  16  17
ENDBRANCH  14  16
ENDBRANCH   2  14
TORSDOF 18
