REMARK  13 active torsions:
REMARK  status: ('A' for Active; 'I' for Inactive)
REMARK    1  A    between atoms: C_2  and  C_3 
REMARK    2  A    between atoms: C_3  and  C_4 
REMARK    3  A    between atoms: C_4  and  C_5 
REMARK    4  A    between atoms: C_5  and  C_6 
REMARK    5  A    between atoms: C_6  and  O_7 
REMARK    6  A    between atoms: O_7  and  C_8 
REMARK    7  A    between atoms: C_8  and  C_10 
REMARK    8  A    between atoms: C_15  and  C_16 
REMARK    9  A    between atoms: C_16  and  C_18 
REMARK   10  A    between atoms: C_19  and  O_29 
REMARK   11  A    between atoms: C_21  and  N_24 
REMARK   12  A    between atoms: N_24  and  C_25 
REMARK   13  A    between atoms: N_24  and  C_27 
ROOT
HETATM    1  C   UNL     1       9.056   3.905   4.316  1.00  0.00     0.053 A 
HETATM    2  C   UNL     1       8.466   3.911   5.590  1.00  0.00     0.018 A 
HETATM    3  C   UNL     1       9.017   4.678   6.619  1.00  0.00     0.001 A 
HETATM    4  C   UNL     1      10.163   5.433   6.380  1.00  0.00     0.001 A 
HETATM    5  C   UNL     1      10.721   5.483   5.098  1.00  0.00     0.016 A 
HETATM    6  C   UNL     1      10.141   4.752   4.052  1.00  0.00     0.031 A 
ENDROOT
BRANCH   6   7
HETATM    7  C   UNL     1      10.693   4.944   2.689  1.00  0.00     0.196 C 
HETATM    8  O   UNL     1      11.903   4.847   2.509  1.00  0.00    -0.287 OA
BRANCH   7   9
HETATM    9  C   UNL     1       9.796   5.273   1.542  1.00  0.00     0.048 A 
HETATM   10  C   UNL     1      10.218   5.045   0.232  1.00  0.00     0.082 A 
HETATM   11  C   UNL     1       9.398   5.392  -0.848  1.00  0.00     0.066 A 
HETATM   12  C   UNL     1       8.132   5.972  -0.660  1.00  0.00     0.032 A 
HETATM   13  C   UNL     1       7.702   6.129   0.663  1.00  0.00     0.030 A 
HETATM   14  C   UNL     1       8.527   5.820   1.750  1.00  0.00     0.020 A 
BRANCH  10  15
HETATM   15  O   UNL     1      11.427   4.478  -0.075  1.00  0.00    -0.360 OA
HETATM   16  H   UNL     1      11.942   4.405   0.759  1.00  0.00     0.217 HD
ENDBRANCH  10  15
BRANCH  12  17
HETATM   17  N   UNL     1       7.369   6.426  -1.726  1.00  0.00    -0.382 N 
BRANCH  17  18
HETATM   18  C   UNL     1       5.907   6.312  -1.728  1.00  0.00     0.118 C 
HETATM   19  C   UNL     1       5.220   7.608  -1.327  1.00  0.00     0.026 C 
ENDBRANCH  17  18
BRANCH  17  20
HETATM   20  C   UNL     1       8.018   7.046  -2.888  1.00  0.00     0.118 C 
HETATM   21  C   UNL     1       8.759   8.322  -2.499  1.00  0.00     0.026 C 
ENDBRANCH  17  20
ENDBRANCH  12  17
ENDBRANCH   7   9
ENDBRANCH   6   7
BRANCH   1  22
HETATM   22  C   UNL     1       8.566   2.866   3.380  1.00  0.00     0.294 C 
HETATM   23  O   UNL     1       7.472   2.341   3.473  1.00  0.00    -0.259 OA
BRANCH  22  24
HETATM   24  O   UNL     1       9.605   2.450   2.620  1.00  0.00    -0.317 OA
BRANCH  24  25
HETATM   25  C   UNL     1       9.798   1.037   2.520  1.00  0.00     0.179 C 
BRANCH  25  26
HETATM   26  C   UNL     1       8.791   0.303   1.648  1.00  0.00     0.027 C 
BRANCH  26  27
HETATM   27  C   UNL     1       8.780   0.794   0.202  1.00  0.00     0.002 C 
BRANCH  27  28
HETATM   28  C   UNL     1       7.758  -0.002  -0.610  1.00  0.00    -0.000 C 
BRANCH  28  29
HETATM   29  C   UNL     1       7.736   0.433  -2.071  1.00  0.00    -0.005 C 
HETATM   30  C   UNL     1       6.712  -0.364  -2.863  1.00  0.00     0.005 C 
ENDBRANCH  28  29
ENDBRANCH  27  28
ENDBRANCH  26  27
ENDBRANCH  25  26
ENDBRANCH  24  25
ENDBRANCH  22  24
ENDBRANCH   1  22
TORSDOF 13
