REMARK  16 active torsions:
REMARK  status: ('A' for Active; 'I' for Inactive)
REMARK    1  A    between atoms: C_2  and  C_3 
REMARK    2  A    between atoms: C_3  and  C_4 
REMARK    3  A    between atoms: C_4  and  C_5 
REMARK    4  A    between atoms: C_5  and  C_6 
REMARK    5  A    between atoms: C_5  and  C_8 
REMARK    6  A    between atoms: C_8  and  O_9 
REMARK    7  A    between atoms: O_9  and  C_10 
REMARK    8  A    between atoms: C_10  and  C_12 
REMARK    9  A    between atoms: C_13  and  C_14 
REMARK   10  A    between atoms: C_14  and  O_16 
REMARK   11  A    between atoms: O_16  and  C_17 
REMARK   12  A    between atoms: C_17  and  C_18 
REMARK   13  A    between atoms: C_18  and  C_19 
REMARK   14  A    between atoms: C_18  and  C_21 
REMARK   15  A    between atoms: C_21  and  C_22 
REMARK   16  A    between atoms: C_22  and  C_23 
ROOT
HETATM    1  C   UNL     1       8.888  -3.576   4.618  1.00  0.00     0.088 C 
HETATM    2  C   UNL     1      10.188  -3.836   4.835  1.00  0.00     0.088 C 
ENDROOT
BRANCH   1   3
HETATM    3  C   UNL     1       8.503  -2.637   3.543  1.00  0.00     0.283 C 
HETATM    4  O   UNL     1       9.303  -2.037   2.839  1.00  0.00    -0.260 OA
BRANCH   3   5
HETATM    5  O   UNL     1       7.156  -2.471   3.552  1.00  0.00    -0.318 OA
BRANCH   5   6
HETATM    6  C   UNL     1       6.657  -1.255   2.953  1.00  0.00     0.183 C 
BRANCH   6   7
HETATM    7  C   UNL     1       6.640  -1.239   1.409  1.00  0.00     0.010 C 
BRANCH   7   8
HETATM    8  C   UNL     1       5.767  -2.382   0.849  1.00  0.00     0.007 C 
BRANCH   8   9
HETATM    9  C   UNL     1       5.705  -2.497  -0.681  1.00  0.00     0.000 C 
BRANCH   9  10
HETATM   10  C   UNL     1       7.052  -2.767  -1.356  1.00  0.00    -0.005 C 
HETATM   11  C   UNL     1       6.880  -2.868  -2.867  1.00  0.00     0.005 C 
ENDBRANCH   9  10
ENDBRANCH   8   9
ENDBRANCH   7   8
BRANCH   7  12
HETATM   12  C   UNL     1       6.250   0.165   0.882  1.00  0.00     0.002 C 
HETATM   13  C   UNL     1       4.862   0.670   1.261  1.00  0.00     0.005 C 
ENDBRANCH   7  12
ENDBRANCH   6   7
ENDBRANCH   5   6
ENDBRANCH   3   5
ENDBRANCH   1   3
BRANCH   2  14
HETATM   14  C   UNL     1      10.621  -4.619   6.019  1.00  0.00     0.283 C 
HETATM   15  O   UNL     1       9.880  -5.037   6.887  1.00  0.00    -0.260 OA
BRANCH  14  16
HETATM   16  O   UNL     1      11.983  -4.626   6.044  1.00  0.00    -0.318 OA
BRANCH  16  17
HETATM   17  C   UNL     1      12.548  -4.216   7.302  1.00  0.00     0.183 C 
BRANCH  17  18
HETATM   18  C   UNL     1      13.358  -5.299   8.042  1.00  0.00     0.010 C 
BRANCH  18  19
HETATM   19  C   UNL     1      14.478  -5.920   7.172  1.00  0.00     0.002 C 
HETATM   20  C   UNL     1      15.571  -4.957   6.723  1.00  0.00     0.005 C 
ENDBRANCH  18  19
BRANCH  18  21
HETATM   21  C   UNL     1      13.939  -4.747   9.376  1.00  0.00     0.007 C 
BRANCH  21  22
HETATM   22  C   UNL     1      12.871  -4.245  10.357  1.00  0.00     0.000 C 
BRANCH  22  23
HETATM   23  C   UNL     1      13.469  -3.698  11.655  1.00  0.00    -0.005 C 
HETATM   24  C   UNL     1      12.374  -3.180  12.579  1.00  0.00     0.005 C 
ENDBRANCH  22  23
ENDBRANCH  21  22
ENDBRANCH  18  21
ENDBRANCH  17  18
ENDBRANCH  16  17
ENDBRANCH  14  16
ENDBRANCH   2  14
TORSDOF 16
