REMARK  16 active torsions:
REMARK  status: ('A' for Active; 'I' for Inactive)
REMARK    1  A    between atoms: C_2  and  C_3 
REMARK    2  A    between atoms: C_3  and  C_4 
REMARK    3  A    between atoms: C_4  and  C_5 
REMARK    4  A    between atoms: C_5  and  C_6 
REMARK    5  A    between atoms: C_5  and  C_8 
REMARK    6  A    between atoms: C_8  and  O_9 
REMARK    7  A    between atoms: O_9  and  C_10 
REMARK    8  A    between atoms: C_10  and  C_12 
REMARK    9  A    between atoms: C_17  and  C_18 
REMARK   10  A    between atoms: C_18  and  O_20 
REMARK   11  A    between atoms: O_20  and  C_21 
REMARK   12  A    between atoms: C_21  and  C_22 
REMARK   13  A    between atoms: C_22  and  C_23 
REMARK   14  A    between atoms: C_22  and  C_25 
REMARK   15  A    between atoms: C_25  and  C_26 
REMARK   16  A    between atoms: C_26  and  C_27 
ROOT
HETATM    1  C   UNL     1       9.054   4.606   3.215  1.00  0.00     0.055 A 
HETATM    2  C   UNL     1       8.445   4.928   4.449  1.00  0.00     0.018 A 
HETATM    3  C   UNL     1       8.967   5.924   5.273  1.00  0.00     0.001 A 
HETATM    4  C   UNL     1      10.112   6.602   4.885  1.00  0.00     0.001 A 
HETATM    5  C   UNL     1      10.700   6.324   3.647  1.00  0.00     0.018 A 
HETATM    6  C   UNL     1      10.153   5.352   2.783  1.00  0.00     0.055 A 
ENDROOT
BRANCH   1   7
HETATM    7  C   UNL     1       8.479   3.467   2.455  1.00  0.00     0.294 C 
HETATM    8  O   UNL     1       8.347   3.400   1.250  1.00  0.00    -0.259 OA
BRANCH   7   9
HETATM    9  O   UNL     1       8.062   2.530   3.348  1.00  0.00    -0.317 OA
BRANCH   9  10
HETATM   10  C   UNL     1       7.119   1.571   2.850  1.00  0.00     0.183 C 
BRANCH  10  11
HETATM   11  C   UNL     1       7.759   0.457   2.007  1.00  0.00     0.010 C 
BRANCH  11  12
HETATM   12  C   UNL     1       8.807  -0.320   2.836  1.00  0.00     0.007 C 
BRANCH  12  13
HETATM   13  C   UNL     1       9.520  -1.466   2.108  1.00  0.00     0.000 C 
BRANCH  13  14
HETATM   14  C   UNL     1      10.334  -1.028   0.890  1.00  0.00    -0.005 C 
HETATM   15  C   UNL     1      11.012  -2.224   0.237  1.00  0.00     0.005 C 
ENDBRANCH  13  14
ENDBRANCH  12  13
ENDBRANCH  11  12
BRANCH  11  16
HETATM   16  C   UNL     1       6.661  -0.423   1.370  1.00  0.00     0.002 C 
HETATM   17  C   UNL     1       5.725  -1.115   2.352  1.00  0.00     0.005 C 
ENDBRANCH  11  16
ENDBRANCH  10  11
ENDBRANCH   9  10
ENDBRANCH   7   9
ENDBRANCH   1   7
BRANCH   6  18
HETATM   18  C   UNL     1      10.805   5.251   1.449  1.00  0.00     0.294 C 
HETATM   19  O   UNL     1      12.010   5.323   1.305  1.00  0.00    -0.259 OA
BRANCH  18  20
HETATM   20  O   UNL     1       9.864   5.388   0.483  1.00  0.00    -0.317 OA
BRANCH  20  21
HETATM   21  C   UNL     1      10.299   5.957  -0.764  1.00  0.00     0.183 C 
BRANCH  21  22
HETATM   22  C   UNL     1      10.424   4.951  -1.928  1.00  0.00     0.010 C 
BRANCH  22  23
HETATM   23  C   UNL     1       9.131   4.139  -2.175  1.00  0.00     0.002 C 
HETATM   24  C   UNL     1       7.911   4.963  -2.571  1.00  0.00     0.005 C 
ENDBRANCH  22  23
BRANCH  22  25
HETATM   25  C   UNL     1      10.873   5.662  -3.232  1.00  0.00     0.007 C 
BRANCH  25  26
HETATM   26  C   UNL     1      12.233   6.357  -3.109  1.00  0.00     0.000 C 
BRANCH  26  27
HETATM   27  C   UNL     1      12.649   7.061  -4.400  1.00  0.00    -0.005 C 
HETATM   28  C   UNL     1      13.983   7.771  -4.213  1.00  0.00     0.005 C 
ENDBRANCH  26  27
ENDBRANCH  25  26
ENDBRANCH  22  25
ENDBRANCH  21  22
ENDBRANCH  20  21
ENDBRANCH  18  20
ENDBRANCH   6  18
TORSDOF 16
