REMARK  18 active torsions:
REMARK  status: ('A' for Active; 'I' for Inactive)
REMARK    1  A    between atoms: C_2  and  C_3 
REMARK    2  A    between atoms: C_3  and  C_4 
REMARK    3  A    between atoms: C_4  and  C_5 
REMARK    4  A    between atoms: C_5  and  C_6 
REMARK    5  A    between atoms: C_5  and  C_8 
REMARK    6  A    between atoms: C_8  and  O_9 
REMARK    7  A    between atoms: O_9  and  C_10 
REMARK    8  A    between atoms: C_10  and  C_12 
REMARK    9  A    between atoms: C_12  and  C_13 
REMARK   10  A    between atoms: C_13  and  C_14 
REMARK   11  A    between atoms: C_13  and  S_25 
REMARK   12  A    between atoms: C_14  and  O_16 
REMARK   13  A    between atoms: O_16  and  C_17 
REMARK   14  A    between atoms: C_17  and  C_18 
REMARK   15  A    between atoms: C_18  and  C_19 
REMARK   16  A    between atoms: C_18  and  C_21 
REMARK   17  A    between atoms: C_21  and  C_22 
REMARK   18  A    between atoms: C_22  and  C_23 
ROOT
HETATM    1 NA   UNL     2      -1.497   0.770  -0.735  1.00  0.00     0.000 Na
ENDROOT
TORSDOF 18
