REMARK  4 active torsions:
REMARK  status: ('A' for Active; 'I' for Inactive)
REMARK    1  A    between atoms: C_1  and  C_2 
REMARK    2  A    between atoms: C_1  and  O_6 
REMARK    3  A    between atoms: C_2  and  C_4 
REMARK    4  A    between atoms: C_4  and  O_5 
ROOT
HETATM    1  C   UNL     1       0.421   0.947  -1.046  1.00  0.00     0.173 C 
HETATM    2  O   UNL     1       1.224   1.579  -1.740  1.00  0.00    -0.293 OA
ENDROOT
BRANCH   1   3
HETATM    3  C   UNL     1       0.878  -0.078  -0.016  1.00  0.00     0.244 C 
BRANCH   3   4
HETATM    4  O   UNL     1       2.288  -0.175   0.083  1.00  0.00    -0.394 OA
HETATM    5  H   UNL     1       2.649   0.039  -0.799  1.00  0.00     0.209 HD
ENDBRANCH   3   4
ENDBRANCH   1   3
BRANCH   1   6
HETATM    6  C   UNL     1      -1.083   1.149  -1.168  1.00  0.00     0.244 C 
BRANCH   6   7
HETATM    7  O   UNL     1      -1.443   2.073  -2.180  1.00  0.00    -0.394 OA
HETATM    8  H   UNL     1      -0.709   2.716  -2.247  1.00  0.00     0.209 HD
ENDBRANCH   6   7
ENDBRANCH   1   6
TORSDOF 4
