REMARK  9 active torsions:
REMARK  status: ('A' for Active; 'I' for Inactive)
REMARK    1  A    between atoms: C_2  and  O_4 
REMARK    2  A    between atoms: O_4  and  C_5 
REMARK    3  A    between atoms: C_5  and  C_7 
REMARK    4  A    between atoms: C_7  and  C_8 
REMARK    5  A    between atoms: C_8  and  C_9 
REMARK    6  A    between atoms: C_9  and  C_10 
REMARK    7  A    between atoms: C_10  and  C_11 
REMARK    8  A    between atoms: C_11  and  O_13 
REMARK    9  A    between atoms: O_13  and  C_14 
ROOT
HETATM    1  C   UNL     1       6.389   1.635   2.440  1.00  0.00     0.010 C 
ENDROOT
BRANCH   1   2
HETATM    2  C   UNL     1       4.860   1.568   2.357  1.00  0.00     0.111 C 
BRANCH   2   3
HETATM    3  C   UNL     1       4.420   0.751   1.165  1.00  0.00     0.259 C 
HETATM    4  O   UNL     1       5.183   0.227   0.365  1.00  0.00    -0.265 OA
BRANCH   3   5
HETATM    5  O   UNL     1       3.060   0.673   1.111  1.00  0.00    -0.317 OA
BRANCH   5   6
HETATM    6  C   UNL     1       2.535  -0.132   0.035  1.00  0.00     0.123 C 
HETATM    7  C   UNL     1       2.585  -1.605   0.426  1.00  0.00     0.040 C 
HETATM    8  C   UNL     1       1.095   0.299  -0.224  1.00  0.00     0.040 C 
ENDBRANCH   5   6
ENDBRANCH   3   5
ENDBRANCH   2   3
ENDBRANCH   1   2
BRANCH   1   9
HETATM    9  C   UNL     1       6.862   2.462   3.634  1.00  0.00     0.010 C 
BRANCH   9  10
HETATM   10  C   UNL     1       8.390   2.539   3.710  1.00  0.00     0.111 C 
BRANCH  10  11
HETATM   11  C   UNL     1       8.831   3.380   4.887  1.00  0.00     0.259 C 
HETATM   12  O   UNL     1       8.072   3.947   5.663  1.00  0.00    -0.265 OA
BRANCH  11  13
HETATM   13  O   UNL     1      10.193   3.421   4.956  1.00  0.00    -0.317 OA
BRANCH  13  14
HETATM   14  C   UNL     1      10.731   4.201   6.043  1.00  0.00     0.123 C 
HETATM   15  C   UNL     1      10.725   3.376   7.326  1.00  0.00     0.040 C 
HETATM   16  C   UNL     1      12.155   4.604   5.676  1.00  0.00     0.040 C 
ENDBRANCH  13  14
ENDBRANCH  11  13
ENDBRANCH  10  11
ENDBRANCH   9  10
ENDBRANCH   1   9
TORSDOF 9
