REMARK  2 active torsions:
REMARK  status: ('A' for Active; 'I' for Inactive)
REMARK    1  A    between atoms: C_7  and  O_14 
REMARK    2  A    between atoms: C_8  and  O_12 
ROOT
HETATM    1  C   UNL     1       1.181   0.205   0.028  1.00  0.00     0.046 C 
HETATM    2  C   UNL     1       2.701   0.031  -0.107  1.00  0.00     0.061 C 
HETATM    3  C   UNL     1       3.132  -1.171   0.746  1.00  0.00     0.042 C 
HETATM    4  C   UNL     1       4.640  -1.354   0.696  1.00  0.00     0.044 C 
HETATM    5  C   UNL     1       5.337  -0.032   0.828  1.00  0.00    -0.022 A 
HETATM    6  C   UNL     1       6.718   0.001   1.065  1.00  0.00     0.049 A 
HETATM    7  C   UNL     1       7.391   1.222   1.183  1.00  0.00     0.099 A 
HETATM    8  C   UNL     1       6.693   2.429   1.079  1.00  0.00     0.103 A 
HETATM    9  C   UNL     1       5.313   2.386   0.829  1.00  0.00     0.077 A 
HETATM   10  C   UNL     1       4.643   1.170   0.679  1.00  0.00     0.079 A 
HETATM   11  O   UNL     1       3.305   1.243   0.386  1.00  0.00    -0.340 OA
HETATM   12  C   UNL     1       3.034  -0.133  -1.600  1.00  0.00     0.046 C 
ENDROOT
BRANCH   8  13
HETATM   13  O   UNL     1       7.182   3.705   1.181  1.00  0.00    -0.353 OA
HETATM   14  C   UNL     1       8.572   3.872   1.416  1.00  0.00     0.210 C 
ENDBRANCH   8  13
BRANCH   7  15
HETATM   15  O   UNL     1       8.742   1.188   1.397  1.00  0.00    -0.358 OA
HETATM   16  H   UNL     1       9.043   0.266   1.395  1.00  0.00     0.217 HD
ENDBRANCH   7  15
TORSDOF 2
