REMARK  2 active torsions:
REMARK  status: ('A' for Active; 'I' for Inactive)
REMARK    1  A    between atoms: O_2  and  C_3 
REMARK    2  A    between atoms: C_10  and  O_11 
ROOT
HETATM    1  C   UNL     1       2.769   0.773   1.008  1.00  0.00     0.176 C 
HETATM    2  C   UNL     1       1.692   1.216   1.992  1.00  0.00     0.203 C 
HETATM    3  O   UNL     1       1.323   2.563   1.643  1.00  0.00    -0.378 OA
HETATM    4  C   UNL     1       2.394   3.125   0.851  1.00  0.00     0.184 C 
HETATM    5  C   UNL     1       3.502   2.084   0.770  1.00  0.00     0.184 C 
HETATM    6  O   UNL     1       4.427   2.344   1.850  1.00  0.00    -0.378 OA
HETATM    7  C   UNL     1       3.987   3.531   2.535  1.00  0.00     0.203 C 
HETATM    8  C   UNL     1       3.046   4.277   1.594  1.00  0.00     0.176 C 
ENDROOT
BRANCH   1   9
HETATM    9  O   UNL     1       2.230   0.316  -0.239  1.00  0.00    -0.386 OA
HETATM   10  C   UNL     1       1.568  -0.939  -0.135  1.00  0.00     0.202 C 
ENDBRANCH   1   9
BRANCH   8  11
HETATM   11  O   UNL     1       3.743   5.102   0.651  1.00  0.00    -0.386 OA
HETATM   12  C   UNL     1       4.349   6.244   1.248  1.00  0.00     0.202 C 
ENDBRANCH   8  11
TORSDOF 2
