REMARK  32 active torsions:
REMARK  status: ('A' for Active; 'I' for Inactive)
REMARK    1  A    between atoms: C_2  and  C_3 
REMARK    2  A    between atoms: C_3  and  C_4 
REMARK    3  A    between atoms: C_4  and  C_5 
REMARK    4  A    between atoms: C_5  and  C_6 
REMARK    5  A    between atoms: C_6  and  C_7 
REMARK    6  A    between atoms: C_7  and  C_8 
REMARK    7  A    between atoms: C_8  and  C_9 
REMARK    8  A    between atoms: C_9  and  C_10 
REMARK    9  A    between atoms: C_10  and  C_11 
REMARK   10  A    between atoms: C_11  and  C_12 
REMARK   11  A    between atoms: C_12  and  C_13 
REMARK   12  A    between atoms: C_13  and  C_14 
REMARK   13  A    between atoms: C_14  and  C_15 
REMARK   14  A    between atoms: C_15  and  C_16 
REMARK       I    between atoms: C_16  and  N_18 
REMARK   15  A    between atoms: C_20  and  O_26 
REMARK   16  A    between atoms: C_22  and  C_23 
REMARK   17  A    between atoms: C_23  and  O_25 
REMARK   18  A    between atoms: O_26  and  C_27 
REMARK   19  A    between atoms: C_27  and  C_29 
REMARK   20  A    between atoms: C_29  and  C_30 
REMARK   21  A    between atoms: C_30  and  C_31 
REMARK   22  A    between atoms: C_31  and  C_32 
REMARK   23  A    between atoms: C_32  and  C_33 
REMARK   24  A    between atoms: C_33  and  C_34 
REMARK   25  A    between atoms: C_34  and  C_35 
REMARK   26  A    between atoms: C_35  and  C_36 
REMARK   27  A    between atoms: C_36  and  C_37 
REMARK   28  A    between atoms: C_37  and  C_38 
REMARK   29  A    between atoms: C_38  and  C_39 
REMARK   30  A    between atoms: C_39  and  C_40 
REMARK   31  A    between atoms: C_40  and  C_41 
REMARK   32  A    between atoms: C_41  and  C_42 
ROOT
HETATM    1  C   UNL     1      16.825  -7.112   7.295  1.00  0.00     0.220 C 
HETATM    2  O   UNL     1      17.229  -5.963   7.165  1.00  0.00    -0.273 OA
HETATM    3  N   UNL     1      17.438  -8.031   8.138  1.00  0.00    -0.335 N 
HETATM    4  C   UNL     1      17.066  -9.408   8.371  1.00  0.00     0.159 C 
HETATM    5  C   UNL     1      17.298  -9.598   9.865  1.00  0.00     0.152 C 
HETATM    6  C   UNL     1      18.580  -8.784  10.096  1.00  0.00     0.070 C 
HETATM    7  C   UNL     1      18.519  -7.643   9.060  1.00  0.00     0.187 C 
ENDROOT
BRANCH   5   8
HETATM    8  O   UNL     1      17.464 -10.971  10.236  1.00  0.00    -0.314 OA
BRANCH   8   9
HETATM    9  C   UNL     1      16.285 -11.658  10.346  1.00  0.00     0.259 C 
HETATM   10  O   UNL     1      15.185 -11.172  10.139  1.00  0.00    -0.265 OA
BRANCH   9  11
HETATM   11  C   UNL     1      16.512 -13.110  10.708  1.00  0.00     0.111 C 
BRANCH  11  12
HETATM   12  C   UNL     1      15.943 -14.029   9.630  1.00  0.00     0.010 C 
BRANCH  12  13
HETATM   13  C   UNL     1      16.602 -13.792   8.275  1.00  0.00     0.000 C 
BRANCH  13  14
HETATM   14  C   UNL     1      16.004 -14.720   7.226  1.00  0.00     0.000 C 
BRANCH  14  15
HETATM   15  C   UNL     1      16.657 -14.483   5.874  1.00  0.00     0.000 C 
BRANCH  15  16
HETATM   16  C   UNL     1      16.059 -15.411   4.829  1.00  0.00     0.000 C 
BRANCH  16  17
HETATM   17  C   UNL     1      16.717 -15.170   3.481  1.00  0.00     0.000 C 
BRANCH  17  18
HETATM   18  C   UNL     1      16.120 -16.096   2.437  1.00  0.00     0.000 C 
BRANCH  18  19
HETATM   19  C   UNL     1      16.778 -15.853   1.091  1.00  0.00     0.000 C 
BRANCH  19  20
HETATM   20  C   UNL     1      16.182 -16.782   0.048  1.00  0.00     0.000 C 
BRANCH  20  21
HETATM   21  C   UNL     1      16.839 -16.540  -1.300  1.00  0.00     0.000 C 
BRANCH  21  22
HETATM   22  C   UNL     1      16.243 -17.469  -2.345  1.00  0.00     0.000 C 
BRANCH  22  23
HETATM   23  C   UNL     1      16.899 -17.227  -3.696  1.00  0.00    -0.000 C 
BRANCH  23  24
HETATM   24  C   UNL     1      16.310 -18.154  -4.749  1.00  0.00    -0.005 C 
HETATM   25  C   UNL     1      16.966 -17.912  -6.096  1.00  0.00     0.005 C 
ENDBRANCH  23  24
ENDBRANCH  22  23
ENDBRANCH  21  22
ENDBRANCH  20  21
ENDBRANCH  19  20
ENDBRANCH  18  19
ENDBRANCH  17  18
ENDBRANCH  16  17
ENDBRANCH  15  16
ENDBRANCH  14  15
ENDBRANCH  13  14
ENDBRANCH  12  13
ENDBRANCH  11  12
ENDBRANCH   9  11
ENDBRANCH   8   9
ENDBRANCH   5   8
BRANCH   7  26
HETATM   26  C   UNL     1      19.841  -7.529   8.286  1.00  0.00     0.163 C 
HETATM   27  O   UNL     1      20.759  -6.831   8.655  1.00  0.00    -0.648 OA
BRANCH  26  28
HETATM   28  O   UNL     1      19.927  -8.311   7.181  1.00  0.00    -0.775 OA
HETATM   29  H   UNL     1      19.156  -8.861   6.961  1.00  0.00     0.167 HD
ENDBRANCH  26  28
ENDBRANCH   7  26
BRANCH   1  30
HETATM   30  C   UNL     1      15.572  -7.611   6.574  1.00  0.00     0.103 C 
BRANCH  30  31
HETATM   31  C   UNL     1      15.295  -6.862   5.271  1.00  0.00     0.009 C 
BRANCH  31  32
HETATM   32  C   UNL     1      16.427  -7.011   4.254  1.00  0.00     0.000 C 
BRANCH  32  33
HETATM   33  C   UNL     1      16.107  -6.248   2.972  1.00  0.00     0.000 C 
BRANCH  33  34
HETATM   34  C   UNL     1      17.238  -6.388   1.961  1.00  0.00     0.000 C 
BRANCH  34  35
HETATM   35  C   UNL     1      16.909  -5.627   0.685  1.00  0.00     0.000 C 
BRANCH  35  36
HETATM   36  C   UNL     1      18.042  -5.770  -0.318  1.00  0.00     0.000 C 
BRANCH  36  37
HETATM   37  C   UNL     1      17.716  -5.009  -1.592  1.00  0.00     0.000 C 
BRANCH  37  38
HETATM   38  C   UNL     1      18.849  -5.156  -2.592  1.00  0.00     0.000 C 
BRANCH  38  39
HETATM   39  C   UNL     1      18.524  -4.396  -3.866  1.00  0.00     0.000 C 
BRANCH  39  40
HETATM   40  C   UNL     1      19.656  -4.543  -4.869  1.00  0.00     0.000 C 
BRANCH  40  41
HETATM   41  C   UNL     1      19.326  -3.783  -6.142  1.00  0.00     0.000 C 
BRANCH  41  42
HETATM   42  C   UNL     1      20.458  -3.929  -7.148  1.00  0.00    -0.000 C 
BRANCH  42  43
HETATM   43  C   UNL     1      20.138  -3.172  -8.427  1.00  0.00    -0.005 C 
HETATM   44  C   UNL     1      21.270  -3.318  -9.427  1.00  0.00     0.005 C 
ENDBRANCH  42  43
ENDBRANCH  41  42
ENDBRANCH  40  41
ENDBRANCH  39  40
ENDBRANCH  38  39
ENDBRANCH  37  38
ENDBRANCH  36  37
ENDBRANCH  35  36
ENDBRANCH  34  35
ENDBRANCH  33  34
ENDBRANCH  32  33
ENDBRANCH  31  32
ENDBRANCH  30  31
ENDBRANCH   1  30
TORSDOF 32
