REMARK WARNING: 32 MAX_TORS EXCEEDED!!!
REMARK  125 active torsions:
REMARK  status: ('A' for Active; 'I' for Inactive)
REMARK    1  A    between atoms: C_2  and  C_3 
REMARK    2  A    between atoms: C_3  and  C_4 
REMARK    3  A    between atoms: C_4  and  C_5 
REMARK    4  A    between atoms: C_5  and  C_6 
REMARK    5  A    between atoms: C_6  and  C_7 
REMARK    6  A    between atoms: C_7  and  C_8 
REMARK    7  A    between atoms: C_7  and  O_138 
REMARK    8  A    between atoms: C_8  and  C_9 
REMARK    9  A    between atoms: C_9  and  C_10 
REMARK   10  A    between atoms: C_10  and  C_11 
REMARK   11  A    between atoms: C_11  and  C_12 
REMARK   12  A    between atoms: C_12  and  C_13 
REMARK   13  A    between atoms: C_13  and  C_14 
REMARK   14  A    between atoms: C_14  and  C_15 
REMARK   15  A    between atoms: C_15  and  C_16 
REMARK   16  A    between atoms: C_16  and  C_17 
REMARK   17  A    between atoms: C_17  and  C_18 
REMARK   18  A    between atoms: C_18  and  O_20 
REMARK   19  A    between atoms: O_20  and  C_21 
REMARK   20  A    between atoms: C_21  and  C_22 
REMARK   21  A    between atoms: C_22  and  C_23 
REMARK   22  A    between atoms: C_22  and  C_93 
REMARK   23  A    between atoms: C_22  and  C_116 
REMARK   24  A    between atoms: C_23  and  O_24 
REMARK   25  A    between atoms: O_24  and  C_25 
REMARK   26  A    between atoms: C_25  and  C_26 
REMARK   27  A    between atoms: C_26  and  C_27 
REMARK   28  A    between atoms: C_26  and  C_49 
REMARK   29  A    between atoms: C_26  and  C_71 
REMARK   30  A    between atoms: C_27  and  O_28 
REMARK   31  A    between atoms: O_28  and  C_29 
REMARK   32  A    between atoms: C_29  and  C_31 
REMARK   33  A    between atoms: C_31  and  C_32 
REMARK   34  A    between atoms: C_32  and  C_33 
REMARK   35  A    between atoms: C_33  and  C_34 
REMARK   36  A    between atoms: C_34  and  C_35 
REMARK   37  A    between atoms: C_35  and  C_36 
REMARK   38  A    between atoms: C_36  and  C_37 
REMARK   39  A    between atoms: C_37  and  C_38 
REMARK   40  A    between atoms: C_38  and  C_39 
REMARK   41  A    between atoms: C_39  and  C_40 
REMARK   42  A    between atoms: C_40  and  C_41 
REMARK   43  A    between atoms: C_41  and  C_42 
REMARK   44  A    between atoms: C_41  and  O_48 
REMARK   45  A    between atoms: C_42  and  C_43 
REMARK   46  A    between atoms: C_43  and  C_44 
REMARK   47  A    between atoms: C_44  and  C_45 
REMARK   48  A    between atoms: C_45  and  C_46 
REMARK   49  A    between atoms: C_49  and  O_50 
REMARK   50  A    between atoms: O_50  and  C_51 
REMARK   51  A    between atoms: C_51  and  C_53 
REMARK   52  A    between atoms: C_53  and  C_54 
REMARK   53  A    between atoms: C_54  and  C_55 
REMARK   54  A    between atoms: C_55  and  C_56 
REMARK   55  A    between atoms: C_56  and  C_57 
REMARK   56  A    between atoms: C_57  and  C_58 
REMARK   57  A    between atoms: C_58  and  C_59 
REMARK   58  A    between atoms: C_59  and  C_60 
REMARK   59  A    between atoms: C_60  and  C_61 
REMARK   60  A    between atoms: C_61  and  C_62 
REMARK   61  A    between atoms: C_62  and  C_63 
REMARK   62  A    between atoms: C_63  and  C_64 
REMARK   63  A    between atoms: C_63  and  O_70 
REMARK   64  A    between atoms: C_64  and  C_65 
REMARK   65  A    between atoms: C_65  and  C_66 
REMARK   66  A    between atoms: C_66  and  C_67 
REMARK   67  A    between atoms: C_67  and  C_68 
REMARK   68  A    between atoms: C_71  and  O_72 
REMARK   69  A    between atoms: O_72  and  C_73 
REMARK   70  A    between atoms: C_73  and  C_75 
REMARK   71  A    between atoms: C_75  and  C_76 
REMARK   72  A    between atoms: C_76  and  C_77 
REMARK   73  A    between atoms: C_77  and  C_78 
REMARK   74  A    between atoms: C_78  and  C_79 
REMARK   75  A    between atoms: C_79  and  C_80 
REMARK   76  A    between atoms: C_80  and  C_81 
REMARK   77  A    between atoms: C_81  and  C_82 
REMARK   78  A    between atoms: C_82  and  C_83 
REMARK   79  A    between atoms: C_83  and  C_84 
REMARK   80  A    between atoms: C_84  and  C_85 
REMARK   81  A    between atoms: C_85  and  C_86 
REMARK   82  A    between atoms: C_85  and  O_92 
REMARK   83  A    between atoms: C_86  and  C_87 
REMARK   84  A    between atoms: C_87  and  C_88 
REMARK   85  A    between atoms: C_88  and  C_89 
REMARK   86  A    between atoms: C_89  and  C_90 
REMARK   87  A    between atoms: C_93  and  O_94 
REMARK   88  A    between atoms: O_94  and  C_95 
REMARK   89  A    between atoms: C_95  and  O_96 
REMARK   90  A    between atoms: C_95  and  C_98 
REMARK   91  A    between atoms: C_98  and  C_99 
REMARK   92  A    between atoms: C_99  and  C_100 
REMARK   93  A    between atoms: C_100  and  C_101 
REMARK   94  A    between atoms: C_101  and  C_102 
REMARK   95  A    between atoms: C_102  and  C_103 
REMARK   96  A    between atoms: C_103  and  C_104 
REMARK   97  A    between atoms: C_104  and  C_105 
REMARK   98  A    between atoms: C_105  and  C_106 
REMARK   99  A    between atoms: C_106  and  C_107 
REMARK  100  A    between atoms: C_107  and  C_108 
REMARK  101  A    between atoms: C_108  and  C_109 
REMARK  102  A    between atoms: C_108  and  O_115 
REMARK  103  A    between atoms: C_109  and  C_110 
REMARK  104  A    between atoms: C_110  and  C_111 
REMARK  105  A    between atoms: C_111  and  C_112 
REMARK  106  A    between atoms: C_112  and  C_113 
REMARK  107  A    between atoms: C_116  and  O_117 
REMARK  108  A    between atoms: O_117  and  C_118 
REMARK  109  A    between atoms: C_118  and  C_120 
REMARK  110  A    between atoms: C_120  and  C_121 
REMARK  111  A    between atoms: C_121  and  C_122 
REMARK  112  A    between atoms: C_122  and  C_123 
REMARK  113  A    between atoms: C_123  and  C_124 
REMARK  114  A    between atoms: C_124  and  C_125 
REMARK  115  A    between atoms: C_125  and  C_126 
REMARK  116  A    between atoms: C_126  and  C_127 
REMARK  117  A    between atoms: C_127  and  C_128 
REMARK  118  A    between atoms: C_128  and  C_129 
REMARK  119  A    between atoms: C_129  and  C_130 
REMARK  120  A    between atoms: C_130  and  C_131 
REMARK  121  A    between atoms: C_130  and  O_137 
REMARK  122  A    between atoms: C_131  and  C_132 
REMARK  123  A    between atoms: C_132  and  C_133 
REMARK  124  A    between atoms: C_133  and  C_134 
REMARK  125  A    between atoms: C_134  and  C_135 
ROOT
HETATM    1  C   UNL     1      -8.055   7.214  10.460  1.00  0.00     0.183 C 
ENDROOT
BRANCH   1   2
HETATM    2  C   UNL     1      -7.562   6.006  11.514  1.00  0.00     0.047 C 
BRANCH   2   3
HETATM    3  C   UNL     1      -7.986   6.544  12.936  1.00  0.00     0.194 C 
BRANCH   3   4
HETATM    4  O   UNL     1      -7.365   7.875  13.157  1.00  0.00    -0.320 OA
BRANCH   4   5
HETATM    5  C   UNL     1      -6.228   8.063  13.898  1.00  0.00     0.258 C 
HETATM    6  O   UNL     1      -5.756   7.224  14.650  1.00  0.00    -0.265 OA
BRANCH   5   7
HETATM    7  C   UNL     1      -5.630   9.468  13.695  1.00  0.00     0.111 C 
BRANCH   7   8
HETATM    8  C   UNL     1      -4.095   9.637  13.869  1.00  0.00     0.010 C 
BRANCH   8   9
HETATM    9  C   UNL     1      -3.588  11.155  13.870  1.00  0.00     0.000 C 
BRANCH   9  10
HETATM   10  C   UNL     1      -2.061  11.477  14.244  1.00  0.00     0.000 C 
BRANCH  10  11
HETATM   11  C   UNL     1      -1.019  12.788  14.037  1.00  0.00     0.000 C 
BRANCH  11  12
HETATM   12  C   UNL     1       0.538  12.760  13.643  1.00  0.00     0.000 C 
BRANCH  12  13
HETATM   13  C   UNL     1       0.980  14.047  12.970  1.00  0.00     0.000 C 
BRANCH  13  14
HETATM   14  C   UNL     1       2.499  14.096  12.765  1.00  0.00     0.000 C 
BRANCH  14  15
HETATM   15  C   UNL     1       2.959  15.492  12.367  1.00  0.00     0.002 C 
BRANCH  15  16
HETATM   16  C   UNL     1       2.319  16.517  13.291  1.00  0.00     0.032 C 
BRANCH  16  17
HETATM   17  C   UNL     1       2.760  17.937  13.013  1.00  0.00     0.118 C 
BRANCH  17  18
HETATM   18  C   UNL     1       2.142  18.899  14.024  1.00  0.00     0.032 C 
BRANCH  18  19
HETATM   19  C   UNL     1       2.473  18.493  15.455  1.00  0.00     0.002 C 
BRANCH  19  20
HETATM   20  C   UNL     1       2.042  19.552  16.447  1.00  0.00     0.000 C 
BRANCH  20  21
HETATM   21  C   UNL     1       2.491  19.131  17.838  1.00  0.00    -0.000 C 
BRANCH  21  22
HETATM   22  C   UNL     1       2.035  20.150  18.869  1.00  0.00    -0.005 C 
HETATM   23  C   UNL     1       2.483  19.739  20.256  1.00  0.00     0.005 C 
ENDBRANCH  21  22
ENDBRANCH  20  21
ENDBRANCH  19  20
ENDBRANCH  18  19
ENDBRANCH  17  18
BRANCH  17  24
HETATM   24  O   UNL     1       2.325  18.314  11.707  1.00  0.00    -0.396 OA
HETATM   25  H   UNL     1       1.360  18.191  11.677  1.00  0.00     0.210 HD
ENDBRANCH  17  24
ENDBRANCH  16  17
ENDBRANCH  15  16
ENDBRANCH  14  15
ENDBRANCH  13  14
ENDBRANCH  12  13
ENDBRANCH  11  12
ENDBRANCH  10  11
ENDBRANCH   9  10
ENDBRANCH   8   9
ENDBRANCH   7   8
ENDBRANCH   5   7
ENDBRANCH   4   5
ENDBRANCH   3   4
ENDBRANCH   2   3
BRANCH   2  26
HETATM   26  C   UNL     1      -6.093   5.536  11.778  1.00  0.00     0.187 C 
BRANCH  26  27
HETATM   27  O   UNL     1      -5.623   3.963  11.289  1.00  0.00    -0.360 OA
BRANCH  27  28
HETATM   28  C   UNL     1      -4.634   2.941  11.041  1.00  0.00     0.256 C 
BRANCH  28  29
HETATM   29  O   UNL     1      -4.986   2.019  10.183  1.00  0.00    -0.371 OA
ATOM     30  HO  UNL     1      -4.335   1.346  10.020  1.00  0.00     0.212 HD
ENDBRANCH  28  29
BRANCH  28  31
HETATM   31  C   UNL     1      -3.240   2.666  11.766  1.00  0.00     0.060 C 
BRANCH  31  32
HETATM   32  C   UNL     1      -1.805   2.526  11.172  1.00  0.00     0.005 C 
BRANCH  32  33
HETATM   33  C   UNL     1      -0.722   2.484  12.306  1.00  0.00     0.000 C 
BRANCH  33  34
HETATM   34  C   UNL     1       0.657   2.328  11.704  1.00  0.00     0.000 C 
BRANCH  34  35
HETATM   35  C   UNL     1       1.729   1.980  12.723  1.00  0.00     0.000 C 
BRANCH  35  36
HETATM   36  C   UNL     1       2.960   1.618  11.914  1.00  0.00     0.000 C 
BRANCH  36  37
HETATM   37  C   UNL     1       4.081   1.138  12.795  1.00  0.00     0.000 C 
BRANCH  37  38
HETATM   38  C   UNL     1       5.255   0.745  11.913  1.00  0.00     0.000 C 
BRANCH  38  39
HETATM   39  C   UNL     1       6.349   0.210  12.803  1.00  0.00     0.002 C 
BRANCH  39  40
HETATM   40  C   UNL     1       7.598  -0.136  12.013  1.00  0.00     0.032 C 
BRANCH  40  41
HETATM   41  C   UNL     1       8.744  -0.543  12.937  1.00  0.00     0.118 C 
BRANCH  41  42
HETATM   42  C   UNL     1       8.367  -1.724  13.832  1.00  0.00     0.032 C 
BRANCH  42  43
HETATM   43  C   UNL     1       9.498  -2.120  14.776  1.00  0.00     0.002 C 
BRANCH  43  44
HETATM   44  C   UNL     1       9.162  -3.366  15.593  1.00  0.00     0.000 C 
BRANCH  44  45
HETATM   45  C   UNL     1       8.833  -4.574  14.716  1.00  0.00    -0.000 C 
BRANCH  45  46
HETATM   46  C   UNL     1       8.522  -5.801  15.562  1.00  0.00    -0.005 C 
HETATM   47  C   UNL     1       8.163  -6.981  14.676  1.00  0.00     0.005 C 
ENDBRANCH  45  46
ENDBRANCH  44  45
ENDBRANCH  43  44
ENDBRANCH  42  43
ENDBRANCH  41  42
BRANCH  41  48
HETATM   48  O   UNL     1       9.861  -0.903  12.124  1.00  0.00    -0.396 OA
HETATM   49  H   UNL     1       9.598  -1.682  11.602  1.00  0.00     0.210 HD
ENDBRANCH  41  48
ENDBRANCH  40  41
ENDBRANCH  39  40
ENDBRANCH  38  39
ENDBRANCH  37  38
ENDBRANCH  36  37
ENDBRANCH  35  36
ENDBRANCH  34  35
ENDBRANCH  33  34
ENDBRANCH  32  33
ENDBRANCH  31  32
ENDBRANCH  28  31
ENDBRANCH  27  28
ENDBRANCH  26  27
ENDBRANCH   2  26
BRANCH   2  50
HETATM   50  C   UNL     1      -8.102   4.664  11.031  1.00  0.00     0.194 C 
BRANCH  50  51
HETATM   51  O   UNL     1      -9.489   4.668  10.823  1.00  0.00    -0.320 OA
BRANCH  51  52
HETATM   52  C   UNL     1      -9.823   4.470   9.522  1.00  0.00     0.258 C 
HETATM   53  O   UNL     1      -9.255   4.909   8.528  1.00  0.00    -0.265 OA
BRANCH  52  54
HETATM   54  C   UNL     1     -10.984   3.544   9.496  1.00  0.00     0.111 C 
BRANCH  54  55
HETATM   55  C   UNL     1     -10.582   2.247   8.821  1.00  0.00     0.010 C 
BRANCH  55  56
HETATM   56  C   UNL     1     -11.770   1.309   8.878  1.00  0.00     0.000 C 
BRANCH  56  57
HETATM   57  C   UNL     1     -11.480   0.023   8.137  1.00  0.00     0.000 C 
BRANCH  57  58
HETATM   58  C   UNL     1     -12.702  -0.876   8.193  1.00  0.00     0.000 C 
BRANCH  58  59
HETATM   59  C   UNL     1     -12.428  -2.159   7.431  1.00  0.00     0.000 C 
BRANCH  59  60
HETATM   60  C   UNL     1     -13.651  -3.055   7.467  1.00  0.00     0.000 C 
BRANCH  60  61
HETATM   61  C   UNL     1     -13.393  -4.341   6.694  1.00  0.00     0.000 C 
BRANCH  61  62
HETATM   62  C   UNL     1     -14.657  -5.185   6.709  1.00  0.00     0.002 C 
BRANCH  62  63
HETATM   63  C   UNL     1     -14.465  -6.523   6.011  1.00  0.00     0.032 C 
BRANCH  63  64
HETATM   64  C   UNL     1     -15.701  -7.420   6.137  1.00  0.00     0.118 C 
BRANCH  64  65
HETATM   65  C   UNL     1     -16.963  -6.785   5.539  1.00  0.00     0.032 C 
BRANCH  65  66
HETATM   66  C   UNL     1     -18.190  -7.688   5.684  1.00  0.00     0.002 C 
BRANCH  66  67
HETATM   67  C   UNL     1     -19.454  -7.097   5.054  1.00  0.00     0.000 C 
BRANCH  67  68
HETATM   68  C   UNL     1     -19.300  -6.809   3.560  1.00  0.00    -0.000 C 
BRANCH  68  69
HETATM   69  C   UNL     1     -20.594  -6.272   2.955  1.00  0.00    -0.005 C 
HETATM   70  C   UNL     1     -20.417  -5.983   1.473  1.00  0.00     0.005 C 
ENDBRANCH  68  69
ENDBRANCH  67  68
ENDBRANCH  66  67
ENDBRANCH  65  66
ENDBRANCH  64  65
BRANCH  64  71
HETATM   71  O   UNL     1     -15.426  -8.649   5.463  1.00  0.00    -0.396 OA
HETATM   72  H   UNL     1     -15.258  -8.439   4.528  1.00  0.00     0.210 HD
ENDBRANCH  64  71
ENDBRANCH  63  64
ENDBRANCH  62  63
ENDBRANCH  61  62
ENDBRANCH  60  61
ENDBRANCH  59  60
ENDBRANCH  58  59
ENDBRANCH  57  58
ENDBRANCH  56  57
ENDBRANCH  55  56
ENDBRANCH  54  55
ENDBRANCH  52  54
ENDBRANCH  51  52
ENDBRANCH  50  51
ENDBRANCH   2  50
ENDBRANCH   1   2
BRANCH   1  73
HETATM   73  O   UNL     1      -7.627   8.599  10.707  1.00  0.00    -0.389 OA
BRANCH  73  74
HETATM   74  C   UNL     1      -8.047   9.656   9.773  1.00  0.00     0.183 C 
BRANCH  74  75
HETATM   75  C   UNL     1      -7.569  11.165  10.197  1.00  0.00     0.047 C 
BRANCH  75  76
HETATM   76  C   UNL     1      -6.071  11.403  10.151  1.00  0.00     0.194 C 
BRANCH  76  77
HETATM   77  O   UNL     1      -5.651  12.768  10.264  1.00  0.00    -0.320 OA
BRANCH  77  78
HETATM   78  C   UNL     1      -4.803  12.978  11.296  1.00  0.00     0.258 C 
HETATM   79  O   UNL     1      -5.220  13.040  12.462  1.00  0.00    -0.265 OA
BRANCH  78  80
HETATM   80  C   UNL     1      -3.396  13.300  10.808  1.00  0.00     0.111 C 
BRANCH  80  81
HETATM   81  C   UNL     1      -2.111  12.659  11.461  1.00  0.00     0.010 C 
BRANCH  81  82
HETATM   82  C   UNL     1      -1.165  11.264  11.364  1.00  0.00     0.000 C 
BRANCH  82  83
HETATM   83  C   UNL     1      -0.017  10.286  12.325  1.00  0.00     0.000 C 
BRANCH  83  84
HETATM   84  C   UNL     1       0.223   9.950  13.974  1.00  0.00     0.000 C 
BRANCH  84  85
HETATM   85  C   UNL     1      -0.693   8.972  14.699  1.00  0.00     0.000 C 
BRANCH  85  86
HETATM   86  C   UNL     1      -0.565   7.683  14.003  1.00  0.00     0.000 C 
BRANCH  86  87
HETATM   87  C   UNL     1      -1.844   6.964  14.167  1.00  0.00     0.000 C 
BRANCH  87  88
HETATM   88  C   UNL     1      -1.500   5.572  13.788  1.00  0.00     0.002 C 
BRANCH  88  89
HETATM   89  C   UNL     1      -2.732   4.819  14.039  1.00  0.00     0.032 C 
BRANCH  89  90
HETATM   90  C   UNL     1      -3.842   5.171  13.022  1.00  0.00     0.118 C 
BRANCH  90  91
HETATM   91  C   UNL     1      -3.396   5.480  11.278  1.00  0.00     0.032 C 
BRANCH  91  92
HETATM   92  C   UNL     1      -4.212   5.407   9.731  1.00  0.00     0.002 C 
BRANCH  92  93
HETATM   93  C   UNL     1      -4.999   6.598   9.186  1.00  0.00     0.000 C 
BRANCH  93  94
HETATM   94  C   UNL     1      -4.075   7.748   9.221  1.00  0.00    -0.000 C 
BRANCH  94  95
HETATM   95  C   UNL     1      -4.766   8.894   9.863  1.00  0.00    -0.005 C 
HETATM   96  C   UNL     1      -3.669   9.870  10.113  1.00  0.00     0.005 C 
ENDBRANCH  94  95
ENDBRANCH  93  94
ENDBRANCH  92  93
ENDBRANCH  91  92
ENDBRANCH  90  91
BRANCH  90  97
HETATM   97  O   UNL     1      -4.739   4.139  13.550  1.00  0.00    -0.396 OA
HETATM   98  H   UNL     1      -5.145   3.557  12.897  1.00  0.00     0.210 HD
ENDBRANCH  90  97
ENDBRANCH  89  90
ENDBRANCH  88  89
ENDBRANCH  87  88
ENDBRANCH  86  87
ENDBRANCH  85  86
ENDBRANCH  84  85
ENDBRANCH  83  84
ENDBRANCH  82  83
ENDBRANCH  81  82
ENDBRANCH  80  81
ENDBRANCH  78  80
ENDBRANCH  77  78
ENDBRANCH  76  77
ENDBRANCH  75  76
BRANCH  75  99
HETATM   99  C   UNL     1      -8.098  12.270   9.248  1.00  0.00     0.194 C 
BRANCH  99 100
HETATM  100  O   UNL     1      -7.408  12.271   7.982  1.00  0.00    -0.320 OA
BRANCH 100 101
HETATM  101  C   UNL     1      -8.118  11.856   6.908  1.00  0.00     0.258 C 
HETATM  102  O   UNL     1      -9.197  11.282   6.960  1.00  0.00    -0.265 OA
BRANCH 101 103
HETATM  103  C   UNL     1      -7.382  12.193   5.640  1.00  0.00     0.111 C 
BRANCH 103 104
HETATM  104  C   UNL     1      -6.762  10.959   4.996  1.00  0.00     0.010 C 
BRANCH 104 105
HETATM  105  C   UNL     1      -7.767   9.844   4.680  1.00  0.00     0.000 C 
BRANCH 105 106
HETATM  106  C   UNL     1      -8.982  10.311   3.879  1.00  0.00     0.000 C 
BRANCH 106 107
HETATM  107  C   UNL     1      -8.571  10.893   2.536  1.00  0.00     0.000 C 
BRANCH 107 108
HETATM  108  C   UNL     1      -9.781  11.422   1.786  1.00  0.00     0.000 C 
BRANCH 108 109
HETATM  109  C   UNL     1      -9.336  11.968   0.443  1.00  0.00     0.000 C 
BRANCH 109 110
HETATM  110  C   UNL     1     -10.526  12.490  -0.346  1.00  0.00     0.000 C 
BRANCH 110 111
HETATM  111  C   UNL     1     -10.040  12.948  -1.710  1.00  0.00     0.002 C 
BRANCH 111 112
HETATM  112  C   UNL     1     -11.164  13.537  -2.547  1.00  0.00     0.032 C 
BRANCH 112 113
HETATM  113  C   UNL     1     -10.653  14.098  -3.877  1.00  0.00     0.118 C 
BRANCH 113 114
HETATM  114  C   UNL     1      -9.942  13.044  -4.732  1.00  0.00     0.032 C 
BRANCH 114 115
HETATM  115  C   UNL     1      -9.413  13.619  -6.047  1.00  0.00     0.002 C 
BRANCH 115 116
HETATM  116  C   UNL     1      -8.756  12.565  -6.943  1.00  0.00     0.000 C 
BRANCH 116 117
HETATM  117  C   UNL     1      -9.696  11.416  -7.312  1.00  0.00    -0.000 C 
BRANCH 117 118
HETATM  118  C   UNL     1      -9.014  10.408  -8.231  1.00  0.00    -0.005 C 
HETATM  119  C   UNL     1      -9.953   9.263  -8.573  1.00  0.00     0.005 C 
ENDBRANCH 117 118
ENDBRANCH 116 117
ENDBRANCH 115 116
ENDBRANCH 114 115
ENDBRANCH 113 114
BRANCH 113 120
HETATM  120  O   UNL     1     -11.774  14.614  -4.592  1.00  0.00    -0.396 OA
HETATM  121  H   UNL     1     -12.364  13.868  -4.798  1.00  0.00     0.210 HD
ENDBRANCH 113 120
ENDBRANCH 112 113
ENDBRANCH 111 112
ENDBRANCH 110 111
ENDBRANCH 109 110
ENDBRANCH 108 109
ENDBRANCH 107 108
ENDBRANCH 106 107
ENDBRANCH 105 106
ENDBRANCH 104 105
ENDBRANCH 103 104
ENDBRANCH 101 103
ENDBRANCH 100 101
ENDBRANCH  99 100
ENDBRANCH  75  99
BRANCH  75 122
HETATM  122  C   UNL     1      -7.954  11.395  11.682  1.00  0.00     0.194 C 
BRANCH 122 123
HETATM  123  O   UNL     1      -9.348  11.393  11.781  1.00  0.00    -0.320 OA
BRANCH 123 124
HETATM  124  C   UNL     1      -9.890  12.602  11.537  1.00  0.00     0.258 C 
HETATM  125  O   UNL     1      -9.393  13.720  11.659  1.00  0.00    -0.265 OA
BRANCH 124 126
HETATM  126  C   UNL     1     -11.175  12.318  10.787  1.00  0.00     0.111 C 
BRANCH 126 127
HETATM  127  C   UNL     1     -11.994  11.521  11.764  1.00  0.00     0.010 C 
BRANCH 127 128
HETATM  128  C   UNL     1     -13.305  11.252  11.112  1.00  0.00     0.000 C 
BRANCH 128 129
HETATM  129  C   UNL     1     -14.149  10.574  12.147  1.00  0.00     0.000 C 
BRANCH 129 130
HETATM  130  C   UNL     1     -15.524  10.377  11.582  1.00  0.00     0.000 C 
BRANCH 130 131
HETATM  131  C   UNL     1     -16.383   9.757  12.655  1.00  0.00     0.000 C 
BRANCH 131 132
HETATM  132  C   UNL     1     -17.763   9.538  12.093  1.00  0.00     0.000 C 
BRANCH 132 133
HETATM  133  C   UNL     1     -18.650   8.899  13.143  1.00  0.00     0.000 C 
BRANCH 133 134
HETATM  134  C   UNL     1     -20.005   8.644  12.517  1.00  0.00     0.002 C 
BRANCH 134 135
HETATM  135  C   UNL     1     -20.987   8.057  13.514  1.00  0.00     0.032 C 
BRANCH 135 136
HETATM  136  C   UNL     1     -22.385   7.908  12.910  1.00  0.00     0.118 C 
BRANCH 136 137
HETATM  137  C   UNL     1     -22.398   7.022  11.659  1.00  0.00     0.032 C 
BRANCH 137 138
HETATM  138  C   UNL     1     -23.792   6.901  11.044  1.00  0.00     0.002 C 
BRANCH 138 139
HETATM  139  C   UNL     1     -23.835   5.965   9.833  1.00  0.00     0.000 C 
BRANCH 139 140
HETATM  140  C   UNL     1     -23.368   4.543  10.152  1.00  0.00    -0.000 C 
BRANCH 140 141
HETATM  141  C   UNL     1     -23.457   3.637   8.928  1.00  0.00    -0.005 C 
HETATM  142  C   UNL     1     -22.970   2.235   9.255  1.00  0.00     0.005 C 
ENDBRANCH 140 141
ENDBRANCH 139 140
ENDBRANCH 138 139
ENDBRANCH 137 138
ENDBRANCH 136 137
BRANCH 136 143
HETATM  143  O   UNL     1     -23.234   7.341  13.906  1.00  0.00    -0.396 OA
HETATM  144  H   UNL     1     -22.900   6.449  14.107  1.00  0.00     0.210 HD
ENDBRANCH 136 143
ENDBRANCH 135 136
ENDBRANCH 134 135
ENDBRANCH 133 134
ENDBRANCH 132 133
ENDBRANCH 131 132
ENDBRANCH 130 131
ENDBRANCH 129 130
ENDBRANCH 128 129
ENDBRANCH 127 128
ENDBRANCH 126 127
ENDBRANCH 124 126
ENDBRANCH 123 124
ENDBRANCH 122 123
ENDBRANCH  75 122
ENDBRANCH  74  75
ENDBRANCH  73  74
ENDBRANCH   1  73
TORSDOF 125
