REMARK  13 active torsions:
REMARK  status: ('A' for Active; 'I' for Inactive)
REMARK    1  A    between atoms: C_11  and  O_12 
REMARK    2  A    between atoms: O_12  and  C_13 
REMARK    3  A    between atoms: C_14  and  O_24 
REMARK    4  A    between atoms: C_15  and  O_23 
REMARK    5  A    between atoms: C_16  and  O_22 
REMARK    6  A    between atoms: C_17  and  C_19 
REMARK    7  A    between atoms: O_24  and  C_25 
REMARK    8  A    between atoms: C_26  and  O_36 
REMARK    9  A    between atoms: C_27  and  O_35 
REMARK   10  A    between atoms: C_28  and  O_34 
REMARK   11  A    between atoms: C_29  and  C_31 
REMARK   12  A    between atoms: C_48  and  C_52 
REMARK   13  A    between atoms: C_52  and  O_54 
ROOT
HETATM    1  K   UNL     2       1.208  -2.627   1.774  1.00  0.00     0.000 K 
ENDROOT
TORSDOF 13
