REMARK  4 active torsions:
REMARK  status: ('A' for Active; 'I' for Inactive)
REMARK    1  A    between atoms: N_5  and  C_11 
REMARK    2  A    between atoms: N_8  and  C_9 
REMARK    3  A    between atoms: C_9  and  O_10 
REMARK    4  A    between atoms: C_11  and  O_12 
ROOT
HETATM    1  C   UNL     1       0.968  -0.144   0.102  1.00  0.00     0.049 C 
HETATM    2  C   UNL     1       2.485  -0.063  -0.038  1.00  0.00     0.113 C 
HETATM    3  C   UNL     1       3.160  -1.274   0.620  1.00  0.00     0.257 C 
HETATM    4  O   UNL     1       2.773  -2.435   0.555  1.00  0.00    -0.270 OA
HETATM    5  N   UNL     1       4.292  -0.855   1.255  1.00  0.00    -0.246 N 
HETATM    6  C   UNL     1       4.192   0.486   1.488  1.00  0.00     0.331 C 
HETATM    7  O   UNL     1       4.824   1.119   2.320  1.00  0.00    -0.246 OA
HETATM    8  N   UNL     1       3.155   0.996   0.716  1.00  0.00    -0.295 N 
HETATM    9  C   UNL     1       2.915  -0.013  -1.507  1.00  0.00     0.049 C 
ENDROOT
BRANCH   5  10
HETATM   10  C   UNL     1       5.125  -1.684   2.076  1.00  0.00     0.303 C 
BRANCH  10  11
HETATM   11  O   UNL     1       5.285  -2.963   1.494  1.00  0.00    -0.382 OA
HETATM   12  H   UNL     1       4.382  -3.275   1.283  1.00  0.00     0.211 HD
ENDBRANCH  10  11
ENDBRANCH   5  10
BRANCH   8  13
HETATM   13  C   UNL     1       2.545   2.247   1.070  1.00  0.00     0.296 C 
BRANCH  13  14
HETATM   14  O   UNL     1       1.979   2.816  -0.086  1.00  0.00    -0.382 OA
HETATM   15  H   UNL     1       2.731   3.096  -0.632  1.00  0.00     0.211 HD
ENDBRANCH  13  14
ENDBRANCH   8  13
TORSDOF 4
