REMARK  13 active torsions:
REMARK  status: ('A' for Active; 'I' for Inactive)
REMARK    1  A    between atoms: C_2  and  C_3 
REMARK    2  A    between atoms: C_3  and  C_4 
REMARK    3  A    between atoms: C_4  and  C_5 
REMARK    4  A    between atoms: C_5  and  C_6 
REMARK    5  A    between atoms: C_6  and  C_7 
REMARK    6  A    between atoms: C_7  and  C_8 
REMARK    7  A    between atoms: C_8  and  C_9 
REMARK    8  A    between atoms: C_9  and  C_10 
REMARK    9  A    between atoms: C_10  and  C_11 
REMARK   10  A    between atoms: C_11  and  C_12 
REMARK   11  A    between atoms: C_12  and  C_13 
REMARK   12  A    between atoms: C_18  and  S_19 
REMARK   13  A    between atoms: S_19  and  O_22 
ROOT
HETATM    1  C   UNL     1      12.675   5.939  -4.145  1.00  0.00     0.040 C 
ENDROOT
BRANCH   1   2
HETATM    2  C   UNL     1      11.156   5.912  -4.139  1.00  0.00     0.005 C 
BRANCH   2   3
HETATM    3  C   UNL     1      10.651   4.723  -3.328  1.00  0.00     0.000 C 
BRANCH   3   4
HETATM    4  C   UNL     1       9.135   4.730  -3.329  1.00  0.00     0.000 C 
BRANCH   4   5
HETATM    5  C   UNL     1       8.616   3.563  -2.516  1.00  0.00     0.000 C 
BRANCH   5   6
HETATM    6  C   UNL     1       7.100   3.571  -2.518  1.00  0.00     0.000 C 
BRANCH   6   7
HETATM    7  C   UNL     1       6.586   2.401  -1.701  1.00  0.00     0.000 C 
BRANCH   7   8
HETATM    8  C   UNL     1       5.069   2.398  -1.696  1.00  0.00     0.000 C 
BRANCH   8   9
HETATM    9  C   UNL     1       4.556   1.224  -0.877  1.00  0.00     0.000 C 
BRANCH   9  10
HETATM   10  C   UNL     1       3.036   1.217  -0.868  1.00  0.00    -0.000 C 
BRANCH  10  11
HETATM   11  C   UNL     1       2.511   0.044  -0.050  1.00  0.00    -0.005 C 
HETATM   12  C   UNL     1       0.994   0.039  -0.040  1.00  0.00     0.005 C 
ENDBRANCH  10  11
ENDBRANCH   9  10
ENDBRANCH   8   9
ENDBRANCH   7   8
ENDBRANCH   6   7
ENDBRANCH   5   6
ENDBRANCH   4   5
ENDBRANCH   3   4
ENDBRANCH   2   3
ENDBRANCH   1   2
BRANCH   1  13
HETATM   13  C   UNL     1      13.198   7.077  -4.982  1.00  0.00    -0.035 A 
HETATM   14  C   UNL     1      13.382   6.809  -6.357  1.00  0.00     0.009 A 
HETATM   15  C   UNL     1      13.821   7.796  -7.240  1.00  0.00     0.001 A 
HETATM   16  C   UNL     1      14.013   9.094  -6.793  1.00  0.00     0.002 A 
HETATM   17  C   UNL     1      13.806   9.390  -5.446  1.00  0.00     0.026 A 
HETATM   18  C   UNL     1      13.443   8.391  -4.529  1.00  0.00     0.078 A 
BRANCH  18  19
HETATM   19  S   UNL     1      13.441   8.920  -2.826  1.00  0.00     0.130 S 
HETATM   20  O   UNL     1      14.477   9.945  -2.711  1.00  0.00    -0.598 OA
HETATM   21  O   UNL     1      12.079   9.186  -2.442  1.00  0.00    -0.598 OA
BRANCH  19  22
HETATM   22  O   UNL     1      14.000   7.694  -1.944  1.00  0.00    -0.292 OA
HETATM   23  H   UNL     1      14.977   7.720  -1.951  1.00  0.00     0.232 HD
ENDBRANCH  19  22
ENDBRANCH  18  19
ENDBRANCH   1  13
TORSDOF 13
