REMARK  11 active torsions:
REMARK  status: ('A' for Active; 'I' for Inactive)
REMARK    1  A    between atoms: C_2  and  C_3 
REMARK    2  A    between atoms: C_3  and  C_4 
REMARK    3  A    between atoms: C_4  and  C_5 
REMARK    4  A    between atoms: C_5  and  C_6 
REMARK    5  A    between atoms: C_5  and  C_8 
REMARK    6  A    between atoms: C_8  and  O_9 
REMARK    7  A    between atoms: O_9  and  C_10 
REMARK    8  A    between atoms: C_10  and  C_11 
REMARK    9  A    between atoms: C_11  and  C_12 
REMARK   10  A    between atoms: C_11  and  O_14 
REMARK   11  A    between atoms: C_12  and  O_13 
ROOT
HETATM    1  C   UNL     1       6.570   2.117   1.791  1.00  0.00     0.172 C 
ENDROOT
BRANCH   1   2
HETATM    2  C   UNL     1       5.035   2.034   1.866  1.00  0.00     0.009 C 
BRANCH   2   3
HETATM    3  C   UNL     1       4.497   0.995   0.853  1.00  0.00     0.007 C 
BRANCH   3   4
HETATM    4  C   UNL     1       2.969   0.894   0.830  1.00  0.00     0.000 C 
BRANCH   4   5
HETATM    5  C   UNL     1       2.483  -0.123  -0.202  1.00  0.00    -0.005 C 
HETATM    6  C   UNL     1       0.962  -0.198  -0.218  1.00  0.00     0.005 C 
ENDBRANCH   4   5
ENDBRANCH   3   4
ENDBRANCH   2   3
BRANCH   2   7
HETATM    7  C   UNL     1       4.564   1.795   3.319  1.00  0.00     0.002 C 
HETATM    8  C   UNL     1       5.051   0.502   3.960  1.00  0.00     0.005 C 
ENDBRANCH   2   7
ENDBRANCH   1   2
BRANCH   1   9
HETATM    9  O   UNL     1       6.975   2.513   0.471  1.00  0.00    -0.388 OA
BRANCH   9  10
HETATM   10  C   UNL     1       8.401   2.555   0.366  1.00  0.00     0.201 C 
BRANCH  10  11
HETATM   11  C   UNL     1       8.814   2.935  -1.057  1.00  0.00     0.165 C 
BRANCH  11  12
HETATM   12  C   UNL     1       8.311   1.943  -2.108  1.00  0.00     0.198 C 
BRANCH  12  13
HETATM   13  O   UNL     1       8.817   2.325  -3.391  1.00  0.00    -0.398 OA
HETATM   14  H   UNL     1       8.801   3.304  -3.400  1.00  0.00     0.209 HD
ENDBRANCH  12  13
ENDBRANCH  11  12
BRANCH  11  15
HETATM   15  O   UNL     1       8.300   4.232  -1.396  1.00  0.00    -0.391 OA
HETATM   16  H   UNL     1       7.344   4.198  -1.188  1.00  0.00     0.210 HD
ENDBRANCH  11  15
ENDBRANCH  10  11
ENDBRANCH   9  10
ENDBRANCH   1   9
TORSDOF 11
