REMARK  22 active torsions:
REMARK  status: ('A' for Active; 'I' for Inactive)
REMARK    1  A    between atoms: C_2  and  C_3 
REMARK    2  A    between atoms: C_3  and  C_4 
REMARK    3  A    between atoms: C_4  and  C_5 
REMARK    4  A    between atoms: C_5  and  C_6 
REMARK    5  A    between atoms: C_6  and  C_7 
REMARK    6  A    between atoms: C_7  and  C_8 
REMARK    7  A    between atoms: C_8  and  C_9 
REMARK    8  A    between atoms: C_10  and  C_11 
REMARK    9  A    between atoms: C_11  and  C_12 
REMARK   10  A    between atoms: C_12  and  C_13 
REMARK   11  A    between atoms: C_13  and  C_14 
REMARK   12  A    between atoms: C_14  and  C_15 
REMARK   13  A    between atoms: C_15  and  C_16 
REMARK   14  A    between atoms: C_16  and  C_17 
REMARK   15  A    between atoms: C_17  and  C_18 
REMARK   16  A    between atoms: C_18  and  O_20 
REMARK   17  A    between atoms: O_20  and  C_21 
REMARK   18  A    between atoms: C_21  and  C_22 
REMARK   19  A    between atoms: C_22  and  C_23 
REMARK   20  A    between atoms: C_22  and  C_25 
REMARK   21  A    between atoms: C_25  and  C_26 
REMARK   22  A    between atoms: C_26  and  C_27 
ROOT
HETATM    1  C   UNL     1      14.555  -6.617   5.805  1.00  0.00     0.000 C 
ENDROOT
BRANCH   1   2
HETATM    2  C   UNL     1      13.029  -6.593   5.772  1.00  0.00     0.000 C 
BRANCH   2   3
HETATM    3  C   UNL     1      12.510  -5.519   4.822  1.00  0.00     0.004 C 
BRANCH   3   4
HETATM    4  C   UNL     1      12.989  -5.773   3.395  1.00  0.00     0.027 C 
BRANCH   4   5
HETATM    5  C   UNL     1      12.495  -4.719   2.469  1.00  0.00    -0.031 C 
HETATM    6  C   UNL     1      13.324  -3.925   1.783  1.00  0.00    -0.031 C 
BRANCH   6   7
HETATM    7  C   UNL     1      12.833  -2.872   0.852  1.00  0.00     0.027 C 
BRANCH   7   8
HETATM    8  C   UNL     1      13.328  -3.139  -0.560  1.00  0.00     0.004 C 
BRANCH   8   9
HETATM    9  C   UNL     1      12.816  -2.061  -1.502  1.00  0.00     0.000 C 
BRANCH   9  10
HETATM   10  C   UNL     1      13.310  -2.319  -2.915  1.00  0.00     0.000 C 
BRANCH  10  11
HETATM   11  C   UNL     1      12.799  -1.240  -3.856  1.00  0.00     0.000 C 
BRANCH  11  12
HETATM   12  C   UNL     1      13.294  -1.498  -5.271  1.00  0.00    -0.000 C 
BRANCH  12  13
HETATM   13  C   UNL     1      12.786  -0.422  -6.222  1.00  0.00    -0.005 C 
HETATM   14  C   UNL     1      13.280  -0.683  -7.632  1.00  0.00     0.005 C 
ENDBRANCH  12  13
ENDBRANCH  11  12
ENDBRANCH  10  11
ENDBRANCH   9  10
ENDBRANCH   8   9
ENDBRANCH   7   8
ENDBRANCH   6   7
ENDBRANCH   4   5
ENDBRANCH   3   4
ENDBRANCH   2   3
ENDBRANCH   1   2
BRANCH   1  15
HETATM   15  C   UNL     1      15.068  -7.693   6.746  1.00  0.00     0.000 C 
BRANCH  15  16
HETATM   16  C   UNL     1      16.592  -7.692   6.743  1.00  0.00     0.010 C 
BRANCH  16  17
HETATM   17  C   UNL     1      17.171  -8.745   7.676  1.00  0.00     0.111 C 
BRANCH  17  18
HETATM   18  C   UNL     1      18.686  -8.709   7.621  1.00  0.00     0.258 C 
HETATM   19  O   UNL     1      19.361  -7.975   6.925  1.00  0.00    -0.265 OA
BRANCH  18  20
HETATM   20  O   UNL     1      19.186  -9.727   8.389  1.00  0.00    -0.321 OA
BRANCH  20  21
HETATM   21  C   UNL     1      20.059 -10.591   7.660  1.00  0.00     0.183 C 
BRANCH  21  22
HETATM   22  C   UNL     1      21.513 -10.580   8.166  1.00  0.00     0.010 C 
BRANCH  22  23
HETATM   23  C   UNL     1      21.610 -10.917   9.670  1.00  0.00     0.002 C 
HETATM   24  C   UNL     1      21.100 -12.307  10.031  1.00  0.00     0.005 C 
ENDBRANCH  22  23
BRANCH  22  25
HETATM   25  C   UNL     1      22.391 -11.548   7.337  1.00  0.00     0.007 C 
BRANCH  25  26
HETATM   26  C   UNL     1      22.419 -11.194   5.851  1.00  0.00     0.000 C 
BRANCH  26  27
HETATM   27  C   UNL     1      23.277 -12.165   5.050  1.00  0.00    -0.005 C 
HETATM   28  C   UNL     1      23.253 -11.782   3.580  1.00  0.00     0.005 C 
ENDBRANCH  26  27
ENDBRANCH  25  26
ENDBRANCH  22  25
ENDBRANCH  21  22
ENDBRANCH  20  21
ENDBRANCH  18  20
ENDBRANCH  17  18
ENDBRANCH  16  17
ENDBRANCH  15  16
ENDBRANCH   1  15
TORSDOF 22
