REMARK  10 active torsions:
REMARK  status: ('A' for Active; 'I' for Inactive)
REMARK    1  A    between atoms: C_2  and  C_3 
REMARK    2  A    between atoms: C_3  and  C_4 
REMARK    3  A    between atoms: C_4  and  C_5 
REMARK    4  A    between atoms: C_5  and  C_6 
REMARK    5  A    between atoms: C_5  and  C_8 
REMARK    6  A    between atoms: C_8  and  O_9 
REMARK    7  A    between atoms: O_9  and  C_10 
REMARK    8  A    between atoms: C_10  and  C_12 
REMARK    9  A    between atoms: C_13  and  C_14 
REMARK   10  A    between atoms: C_17  and  O_20 
ROOT
HETATM    1  C   UNL     1       7.123   2.108  -4.533  1.00  0.00     0.282 C 
HETATM    2  O   UNL     1       6.527   3.029  -4.002  1.00  0.00    -0.260 OA
ENDROOT
BRANCH   1   3
HETATM    3  O   UNL     1       7.088   0.802  -4.166  1.00  0.00    -0.318 OA
BRANCH   3   4
HETATM    4  C   UNL     1       6.510   0.538  -2.878  1.00  0.00     0.183 C 
BRANCH   4   5
HETATM    5  C   UNL     1       4.971   0.555  -2.870  1.00  0.00     0.010 C 
BRANCH   5   6
HETATM    6  C   UNL     1       4.386  -0.527  -3.809  1.00  0.00     0.007 C 
BRANCH   6   7
HETATM    7  C   UNL     1       2.853  -0.493  -3.865  1.00  0.00     0.000 C 
BRANCH   7   8
HETATM    8  C   UNL     1       2.279  -1.541  -4.816  1.00  0.00    -0.005 C 
HETATM    9  C   UNL     1       0.759  -1.464  -4.849  1.00  0.00     0.005 C 
ENDBRANCH   7   8
ENDBRANCH   6   7
ENDBRANCH   5   6
BRANCH   5  10
HETATM   10  C   UNL     1       4.449   0.481  -1.417  1.00  0.00     0.002 C 
HETATM   11  C   UNL     1       4.818  -0.786  -0.656  1.00  0.00     0.005 C 
ENDBRANCH   5  10
ENDBRANCH   4   5
ENDBRANCH   3   4
ENDBRANCH   1   3
BRANCH   1  12
HETATM   12  C   UNL     1       8.098   2.251  -5.627  1.00  0.00     0.083 C 
HETATM   13  C   UNL     1       8.342   3.462  -6.156  1.00  0.00     0.017 C 
BRANCH  13  14
HETATM   14  C   UNL     1       9.357   3.728  -7.185  1.00  0.00    -0.036 A 
HETATM   15  C   UNL     1       9.751   2.771  -8.125  1.00  0.00     0.014 A 
HETATM   16  C   UNL     1      10.718   3.068  -9.095  1.00  0.00     0.037 A 
HETATM   17  C   UNL     1      11.296   4.335  -9.147  1.00  0.00     0.068 A 
HETATM   18  C   UNL     1      10.896   5.301  -8.225  1.00  0.00     0.037 A 
HETATM   19  C   UNL     1       9.930   5.006  -7.255  1.00  0.00     0.014 A 
BRANCH  17  20
HETATM   20  O   UNL     1      12.251   4.742 -10.038  1.00  0.00    -0.356 OA
HETATM   21  C   UNL     1      12.681   3.782 -10.996  1.00  0.00     0.210 C 
ENDBRANCH  17  20
ENDBRANCH  13  14
ENDBRANCH   1  12
TORSDOF 10
