REMARK  9 active torsions:
REMARK  status: ('A' for Active; 'I' for Inactive)
REMARK    1  A    between atoms: C_2  and  C_3 
REMARK    2  A    between atoms: C_3  and  C_4 
REMARK    3  A    between atoms: C_4  and  C_5 
REMARK    4  A    between atoms: C_5  and  C_6 
REMARK    5  A    between atoms: C_5  and  C_8 
REMARK    6  A    between atoms: C_8  and  O_9 
REMARK    7  A    between atoms: O_9  and  C_10 
REMARK    8  A    between atoms: C_10  and  C_12 
REMARK    9  A    between atoms: C_17  and  O_18 
ROOT
HETATM    1  C   UNL     1       6.935   3.994  -0.390  1.00  0.00     0.296 C 
HETATM    2  O   UNL     1       6.567   4.986   0.222  1.00  0.00    -0.259 OA
ENDROOT
BRANCH   1   3
HETATM    3  O   UNL     1       7.017   2.735   0.115  1.00  0.00    -0.317 OA
BRANCH   3   4
HETATM    4  C   UNL     1       6.549   2.586   1.469  1.00  0.00     0.183 C 
BRANCH   4   5
HETATM    5  C   UNL     1       5.012   2.492   1.530  1.00  0.00     0.010 C 
BRANCH   5   6
HETATM    6  C   UNL     1       4.513   1.295   0.687  1.00  0.00     0.007 C 
BRANCH   6   7
HETATM    7  C   UNL     1       2.995   1.117   0.611  1.00  0.00     0.000 C 
BRANCH   7   8
HETATM    8  C   UNL     1       2.249   2.293  -0.020  1.00  0.00    -0.005 C 
HETATM    9  C   UNL     1       0.753   2.014  -0.034  1.00  0.00     0.005 C 
ENDBRANCH   7   8
ENDBRANCH   6   7
ENDBRANCH   5   6
BRANCH   5  10
HETATM   10  C   UNL     1       4.507   2.494   2.988  1.00  0.00     0.002 C 
HETATM   11  C   UNL     1       4.978   1.337   3.861  1.00  0.00     0.005 C 
ENDBRANCH   5  10
ENDBRANCH   4   5
ENDBRANCH   3   4
ENDBRANCH   1   3
BRANCH   1  12
HETATM   12  C   UNL     1       7.450   4.074  -1.780  1.00  0.00     0.072 A 
HETATM   13  C   UNL     1       8.082   5.273  -2.145  1.00  0.00     0.020 A 
HETATM   14  C   UNL     1       8.564   5.456  -3.443  1.00  0.00     0.001 A 
HETATM   15  C   UNL     1       8.412   4.442  -4.385  1.00  0.00     0.003 A 
HETATM   16  C   UNL     1       7.777   3.249  -4.036  1.00  0.00     0.037 A 
HETATM   17  C   UNL     1       7.290   3.066  -2.737  1.00  0.00     0.082 A 
BRANCH  17  18
HETATM   18  O   UNL     1       6.625   1.913  -2.437  1.00  0.00    -0.360 OA
HETATM   19  H   UNL     1       6.662   1.306  -3.197  1.00  0.00     0.217 HD
ENDBRANCH  17  18
ENDBRANCH   1  12
TORSDOF 9
