REMARK  5 active torsions:
REMARK  status: ('A' for Active; 'I' for Inactive)
REMARK    1  A    between atoms: C_1  and  C_2 
REMARK    2  A    between atoms: C_1  and  O_12 
REMARK    3  A    between atoms: C_3  and  O_11 
REMARK    4  A    between atoms: C_4  and  O_10 
REMARK    5  A    between atoms: C_5  and  O_9 
ROOT
HETATM    1  C   UNL     1       0.540  -0.634  -1.177  1.00  0.00     0.186 C 
HETATM    2  C   UNL     1       0.062  -2.039  -0.800  1.00  0.00     0.181 C 
HETATM    3  C   UNL     1       1.268  -2.939  -0.503  1.00  0.00     0.188 C 
HETATM    4  C   UNL     1       2.220  -2.961  -1.694  1.00  0.00     0.248 C 
HETATM    5  C   UNL     1       2.643  -1.547  -2.026  1.00  0.00     0.291 C 
HETATM    6  O   UNL     1       3.786  -1.275  -2.376  1.00  0.00    -0.262 OA
HETATM    7  O   UNL     1       1.648  -0.636  -2.118  1.00  0.00    -0.309 OA
ENDROOT
BRANCH   1   8
HETATM    8  C   UNL     1       0.976   0.181   0.046  1.00  0.00     0.199 C 
BRANCH   8   9
HETATM    9  O   UNL     1       1.384   1.489  -0.345  1.00  0.00    -0.398 OA
HETATM   10  H   UNL     1       2.110   1.389  -0.990  1.00  0.00     0.209 HD
ENDBRANCH   8   9
ENDBRANCH   1   8
BRANCH   2  11
HETATM   11  O   UNL     1      -0.735  -2.576  -1.860  1.00  0.00    -0.390 OA
HETATM   12  H   UNL     1      -0.176  -2.671  -2.656  1.00  0.00     0.210 HD
ENDBRANCH   2  11
BRANCH   3  13
HETATM   13  O   UNL     1       0.836  -4.269  -0.206  1.00  0.00    -0.390 OA
HETATM   14  H   UNL     1       0.375  -4.588  -1.008  1.00  0.00     0.210 HD
ENDBRANCH   3  13
BRANCH   4  15
HETATM   15  O   UNL     1       1.566  -3.536  -2.836  1.00  0.00    -0.383 OA
HETATM   16  H   UNL     1       2.197  -3.466  -3.580  1.00  0.00     0.210 HD
ENDBRANCH   4  15
TORSDOF 5
