REMARK  6 active torsions:
REMARK  status: ('A' for Active; 'I' for Inactive)
REMARK    1  A    between atoms: C_1  and  C_2 
REMARK    2  A    between atoms: C_1  and  O_12 
REMARK    3  A    between atoms: C_3  and  O_11 
REMARK    4  A    between atoms: C_4  and  O_10 
REMARK    5  A    between atoms: C_5  and  O_9 
REMARK    6  A    between atoms: C_6  and  O_8 
ROOT
HETATM    1  C   UNL     1       0.462   1.095   0.938  1.00  0.00     0.179 C 
HETATM    2  C   UNL     1      -1.013   1.363   0.603  1.00  0.00     0.180 C 
HETATM    3  C   UNL     1      -1.138   2.043  -0.769  1.00  0.00     0.183 C 
HETATM    4  C   UNL     1      -0.289   3.321  -0.814  1.00  0.00     0.204 C 
HETATM    5  C   UNL     1       1.156   2.997  -0.389  1.00  0.00     0.288 C 
HETATM    6  O   UNL     1       1.221   2.319   0.866  1.00  0.00    -0.349 OA
ENDROOT
BRANCH   1   7
HETATM    7  C   UNL     1       1.110  -0.007   0.092  1.00  0.00     0.198 C 
BRANCH   7   8
HETATM    8  O   UNL     1       2.463  -0.189   0.501  1.00  0.00    -0.398 OA
HETATM    9  H   UNL     1       2.843   0.705   0.645  1.00  0.00     0.209 HD
ENDBRANCH   7   8
ENDBRANCH   1   7
BRANCH   2  10
HETATM   10  O   UNL     1      -1.564   2.276   1.582  1.00  0.00    -0.390 OA
HETATM   11  H   UNL     1      -1.209   2.030   2.457  1.00  0.00     0.210 HD
ENDBRANCH   2  10
BRANCH   3  12
HETATM   12  O   UNL     1      -2.510   2.343  -1.033  1.00  0.00    -0.390 OA
HETATM   13  H   UNL     1      -2.790   2.952  -0.320  1.00  0.00     0.210 HD
ENDBRANCH   3  12
BRANCH   5  14
HETATM   14  O   UNL     1       1.896   4.203  -0.262  1.00  0.00    -0.369 OA
HETATM   15  H   UNL     1       1.252   4.855   0.078  1.00  0.00     0.212 HD
ENDBRANCH   5  14
BRANCH   4  16
HETATM   16  O   UNL     1      -0.820   4.332   0.074  1.00  0.00    -0.388 OA
HETATM   17  H   UNL     1      -1.018   3.879   0.923  1.00  0.00     0.210 HD
ENDBRANCH   4  16
TORSDOF 6
