REMARK  11 active torsions:
REMARK  status: ('A' for Active; 'I' for Inactive)
REMARK    1  A    between atoms: C_1  and  C_2 
REMARK    2  A    between atoms: C_1  and  O_13 
REMARK    3  A    between atoms: C_2  and  C_3 
REMARK    4  A    between atoms: C_2  and  O_12 
REMARK    5  A    between atoms: C_3  and  C_4 
REMARK    6  A    between atoms: C_3  and  O_11 
REMARK    7  A    between atoms: C_4  and  C_5 
REMARK    8  A    between atoms: C_4  and  O_10 
REMARK    9  A    between atoms: C_5  and  C_6 
REMARK   10  A    between atoms: C_5  and  O_9 
REMARK   11  A    between atoms: C_6  and  O_8 
ROOT
HETATM    1  C   UNL     1       0.494   3.405   1.750  1.00  0.00     0.188 C 
ENDROOT
BRANCH   1   2
HETATM    2  C   UNL     1       1.086   2.384   0.744  1.00  0.00     0.180 C 
BRANCH   2   3
HETATM    3  C   UNL     1       0.517   0.968   0.956  1.00  0.00     0.173 C 
BRANCH   3   4
HETATM    4  C   UNL     1       1.081  -0.045  -0.052  1.00  0.00     0.198 C 
BRANCH   4   5
HETATM    5  O   UNL     1       0.456  -1.312   0.165  1.00  0.00    -0.398 OA
HETATM    6  H   UNL     1       0.758  -1.646   1.028  1.00  0.00     0.209 HD
ENDBRANCH   4   5
ENDBRANCH   3   4
BRANCH   3   7
HETATM    7  O   UNL     1      -0.917   1.019   0.859  1.00  0.00    -0.391 OA
HETATM    8  H   UNL     1      -1.177   0.340   0.202  1.00  0.00     0.210 HD
ENDBRANCH   3   7
ENDBRANCH   2   3
BRANCH   2   9
HETATM    9  O   UNL     1       2.509   2.352   0.827  1.00  0.00    -0.390 OA
HETATM   10  H   UNL     1       2.778   2.167   1.745  1.00  0.00     0.210 HD
ENDBRANCH   2   9
ENDBRANCH   1   2
BRANCH   1  11
HETATM   11  C   UNL     1       1.094   4.813   1.582  1.00  0.00     0.246 C 
BRANCH  11  12
HETATM   12  C   UNL     1       0.696   5.410   0.228  1.00  0.00     0.172 C 
HETATM   13  O   UNL     1       1.490   5.821  -0.607  1.00  0.00    -0.648 OA
BRANCH  12  14
HETATM   14  O   UNL     1      -0.647   5.501   0.057  1.00  0.00    -0.774 OA
HETATM   15  H   UNL     1      -1.126   4.949   0.725  1.00  0.00     0.167 HD
ENDBRANCH  12  14
ENDBRANCH  11  12
BRANCH  11  16
HETATM   16  O   UNL     1       0.658   5.650   2.661  1.00  0.00    -0.382 OA
HETATM   17  H   UNL     1      -0.228   5.989   2.440  1.00  0.00     0.210 HD
ENDBRANCH  11  16
ENDBRANCH   1  11
BRANCH   1  18
HETATM   18  O   UNL     1      -0.944   3.516   1.635  1.00  0.00    -0.390 OA
HETATM   19  H   UNL     1      -1.283   2.591   1.551  1.00  0.00     0.210 HD
ENDBRANCH   1  18
TORSDOF 11
