REMARK  6 active torsions:
REMARK  status: ('A' for Active; 'I' for Inactive)
REMARK    1  A    between atoms: C_1  and  C_2 
REMARK    2  A    between atoms: C_1  and  O_12 
REMARK    3  A    between atoms: C_3  and  O_11 
REMARK    4  A    between atoms: C_4  and  O_10 
REMARK    5  A    between atoms: C_5  and  N_9 
REMARK    6  A    between atoms: C_6  and  O_8 
ROOT
HETATM    1  C   UNL     1       0.518  -1.154  -0.577  1.00  0.00     0.179 C 
HETATM    2  C   UNL     1      -0.128  -2.421   0.066  1.00  0.00     0.180 C 
HETATM    3  C   UNL     1       0.997  -3.319   0.637  1.00  0.00     0.187 C 
HETATM    4  C   UNL     1       2.063  -3.639  -0.441  1.00  0.00     0.303 C 
HETATM    5  C   UNL     1       2.550  -2.304  -1.056  1.00  0.00     0.292 C 
HETATM    6  O   UNL     1       1.480  -1.511  -1.572  1.00  0.00    -0.349 OA
ENDROOT
BRANCH   1   7
HETATM    7  C   UNL     1       1.064  -0.140   0.463  1.00  0.00     0.198 C 
BRANCH   7   8
HETATM    8  O   UNL     1       0.032   0.304   1.304  1.00  0.00    -0.398 OA
HETATM    9  H   UNL     1      -0.462   1.005   0.803  1.00  0.00     0.209 HD
ENDBRANCH   7   8
ENDBRANCH   1   7
BRANCH   2  10
HETATM   10  O   UNL     1      -0.917  -3.148  -0.854  1.00  0.00    -0.390 OA
HETATM   11  H   UNL     1      -0.908  -2.706  -1.742  1.00  0.00     0.210 HD
ENDBRANCH   2  10
BRANCH   3  12
HETATM   12  O   UNL     1       0.509  -4.479   1.266  1.00  0.00    -0.391 OA
HETATM   13  H   UNL     1      -0.194  -4.880   0.694  1.00  0.00     0.210 HD
ENDBRANCH   3  12
BRANCH   5  14
HETATM   14  O   UNL     1       3.482  -2.554  -2.076  1.00  0.00    -0.369 OA
HETATM   15  H   UNL     1       2.976  -2.849  -2.878  1.00  0.00     0.212 HD
ENDBRANCH   5  14
BRANCH   4  16
HETATM   16  N   UNL     1       1.577  -4.552  -1.486  1.00  0.00     0.090 N 
HETATM   17  H   UNL     1       0.864  -4.118  -2.111  1.00  0.00     0.313 HD
HETATM   18  H   UNL     1       1.212  -5.438  -1.069  1.00  0.00     0.313 HD
ENDBRANCH   4  16
TORSDOF 6
