REMARK WARNING: 32 MAX_TORS EXCEEDED!!!
REMARK  37 active torsions:
REMARK  status: ('A' for Active; 'I' for Inactive)
REMARK    1  A    between atoms: C_2  and  C_3 
REMARK    2  A    between atoms: C_3  and  C_4 
REMARK    3  A    between atoms: C_4  and  C_5 
REMARK    4  A    between atoms: C_5  and  C_6 
REMARK    5  A    between atoms: C_6  and  C_7 
REMARK    6  A    between atoms: C_7  and  C_8 
REMARK    7  A    between atoms: C_8  and  C_9 
REMARK    8  A    between atoms: C_9  and  C_10 
REMARK    9  A    between atoms: C_10  and  C_11 
REMARK   10  A    between atoms: C_11  and  C_12 
REMARK   11  A    between atoms: C_12  and  C_13 
REMARK   12  A    between atoms: C_13  and  C_14 
REMARK   13  A    between atoms: C_14  and  C_15 
REMARK   14  A    between atoms: C_15  and  C_16 
REMARK   15  A    between atoms: C_16  and  C_17 
REMARK   16  A    between atoms: C_17  and  C_18 
REMARK   17  A    between atoms: C_18  and  O_20 
REMARK   18  A    between atoms: O_20  and  C_21 
REMARK   19  A    between atoms: C_21  and  C_22 
REMARK   20  A    between atoms: C_22  and  O_23 
REMARK   21  A    between atoms: O_23  and  C_24 
REMARK   22  A    between atoms: C_24  and  C_26 
REMARK   23  A    between atoms: C_26  and  C_27 
REMARK   24  A    between atoms: C_27  and  C_28 
REMARK   25  A    between atoms: C_28  and  C_29 
REMARK   26  A    between atoms: C_29  and  C_30 
REMARK   27  A    between atoms: C_30  and  C_31 
REMARK   28  A    between atoms: C_31  and  C_32 
REMARK   29  A    between atoms: C_32  and  C_33 
REMARK   30  A    between atoms: C_33  and  C_34 
REMARK   31  A    between atoms: C_34  and  C_35 
REMARK   32  A    between atoms: C_35  and  C_36 
REMARK   33  A    between atoms: C_36  and  C_37 
REMARK   34  A    between atoms: C_37  and  C_38 
REMARK   35  A    between atoms: C_38  and  C_39 
REMARK   36  A    between atoms: C_39  and  C_40 
REMARK   37  A    between atoms: C_40  and  C_41 
ROOT
HETATM    1  C   UNL     1      20.750  11.514  -5.273  1.00  0.00     0.205 C 
ENDROOT
BRANCH   1   2
HETATM    2  O   UNL     1      19.309  11.533  -5.276  1.00  0.00    -0.319 OA
BRANCH   2   3
HETATM    3  C   UNL     1      18.761  12.236  -4.228  1.00  0.00     0.258 C 
HETATM    4  O   UNL     1      19.406  12.818  -3.380  1.00  0.00    -0.265 OA
BRANCH   3   5
HETATM    5  C   UNL     1      17.252  12.242  -4.291  1.00  0.00     0.111 C 
BRANCH   5   6
HETATM    6  C   UNL     1      16.708  13.665  -4.399  1.00  0.00     0.010 C 
BRANCH   6   7
HETATM    7  C   UNL     1      17.178  14.370  -5.672  1.00  0.00     0.000 C 
BRANCH   7   8
HETATM    8  C   UNL     1      16.614  15.785  -5.743  1.00  0.00     0.000 C 
BRANCH   8   9
HETATM    9  C   UNL     1      17.088  16.486  -7.008  1.00  0.00     0.000 C 
BRANCH   9  10
HETATM   10  C   UNL     1      16.524  17.897  -7.077  1.00  0.00     0.000 C 
BRANCH  10  11
HETATM   11  C   UNL     1      16.999  18.591  -8.343  1.00  0.00     0.000 C 
BRANCH  11  12
HETATM   12  C   UNL     1      16.437  20.000  -8.409  1.00  0.00     0.000 C 
BRANCH  12  13
HETATM   13  C   UNL     1      16.914  20.691  -9.674  1.00  0.00     0.000 C 
BRANCH  13  14
HETATM   14  C   UNL     1      16.350  22.099  -9.741  1.00  0.00     0.000 C 
BRANCH  14  15
HETATM   15  C   UNL     1      16.828  22.786 -11.008  1.00  0.00     0.000 C 
BRANCH  15  16
HETATM   16  C   UNL     1      16.264  24.195 -11.076  1.00  0.00     0.000 C 
BRANCH  16  17
HETATM   17  C   UNL     1      16.740  24.884 -12.344  1.00  0.00     0.000 C 
BRANCH  17  18
HETATM   18  C   UNL     1      16.174  26.293 -12.414  1.00  0.00     0.000 C 
BRANCH  18  19
HETATM   19  C   UNL     1      16.648  26.986 -13.682  1.00  0.00    -0.000 C 
BRANCH  19  20
HETATM   20  C   UNL     1      16.087  28.399 -13.762  1.00  0.00    -0.005 C 
HETATM   21  C   UNL     1      16.563  29.089 -15.027  1.00  0.00     0.005 C 
ENDBRANCH  19  20
ENDBRANCH  18  19
ENDBRANCH  17  18
ENDBRANCH  16  17
ENDBRANCH  15  16
ENDBRANCH  14  15
ENDBRANCH  13  14
ENDBRANCH  12  13
ENDBRANCH  11  12
ENDBRANCH  10  11
ENDBRANCH   9  10
ENDBRANCH   8   9
ENDBRANCH   7   8
ENDBRANCH   6   7
ENDBRANCH   5   6
ENDBRANCH   3   5
ENDBRANCH   2   3
ENDBRANCH   1   2
BRANCH   1  22
HETATM   22  C   UNL     1      21.303  12.804  -5.872  1.00  0.00     0.205 C 
BRANCH  22  23
HETATM   23  O   UNL     1      20.853  12.977  -7.231  1.00  0.00    -0.319 OA
BRANCH  23  24
HETATM   24  C   UNL     1      21.579  12.285  -8.157  1.00  0.00     0.258 C 
HETATM   25  O   UNL     1      22.505  11.530  -7.887  1.00  0.00    -0.265 OA
BRANCH  24  26
HETATM   26  C   UNL     1      21.053  12.497  -9.561  1.00  0.00     0.111 C 
BRANCH  26  27
HETATM   27  C   UNL     1      20.595  11.187 -10.191  1.00  0.00     0.010 C 
BRANCH  27  28
HETATM   28  C   UNL     1      19.459  10.530  -9.409  1.00  0.00     0.000 C 
BRANCH  28  29
HETATM   29  C   UNL     1      19.036   9.228 -10.076  1.00  0.00     0.000 C 
BRANCH  29  30
HETATM   30  C   UNL     1      17.909   8.567  -9.296  1.00  0.00     0.000 C 
BRANCH  30  31
HETATM   31  C   UNL     1      17.487   7.269  -9.967  1.00  0.00     0.000 C 
BRANCH  31  32
HETATM   32  C   UNL     1      16.361   6.617  -9.181  1.00  0.00     0.000 C 
BRANCH  32  33
HETATM   33  C   UNL     1      15.940   5.321  -9.851  1.00  0.00     0.000 C 
BRANCH  33  34
HETATM   34  C   UNL     1      14.816   4.670  -9.066  1.00  0.00     0.000 C 
BRANCH  34  35
HETATM   35  C   UNL     1      14.395   3.375  -9.736  1.00  0.00     0.000 C 
BRANCH  35  36
HETATM   36  C   UNL     1      13.271   2.727  -8.947  1.00  0.00     0.000 C 
BRANCH  36  37
HETATM   37  C   UNL     1      12.847   1.432  -9.618  1.00  0.00     0.000 C 
BRANCH  37  38
HETATM   38  C   UNL     1      11.722   0.783  -8.830  1.00  0.00     0.000 C 
BRANCH  38  39
HETATM   39  C   UNL     1      11.298  -0.514  -9.500  1.00  0.00     0.000 C 
BRANCH  39  40
HETATM   40  C   UNL     1      10.170  -1.166  -8.716  1.00  0.00    -0.000 C 
BRANCH  40  41
HETATM   41  C   UNL     1       9.738  -2.467  -9.378  1.00  0.00    -0.005 C 
HETATM   42  C   UNL     1       8.614  -3.116  -8.593  1.00  0.00     0.005 C 
ENDBRANCH  40  41
ENDBRANCH  39  40
ENDBRANCH  38  39
ENDBRANCH  37  38
ENDBRANCH  36  37
ENDBRANCH  35  36
ENDBRANCH  34  35
ENDBRANCH  33  34
ENDBRANCH  32  33
ENDBRANCH  31  32
ENDBRANCH  30  31
ENDBRANCH  29  30
ENDBRANCH  28  29
ENDBRANCH  27  28
ENDBRANCH  26  27
ENDBRANCH  24  26
ENDBRANCH  23  24
ENDBRANCH  22  23
ENDBRANCH   1  22
TORSDOF 37
