REMARK  3 active torsions:
REMARK  status: ('A' for Active; 'I' for Inactive)
REMARK    1  A    between atoms: C_11  and  O_12 
REMARK    2  A    between atoms: C_24  and  C_28 
REMARK    3  A    between atoms: C_28  and  O_30 
ROOT
HETATM    1  C   UNL     1      12.914  -6.659   0.792  1.00  0.00     0.018 C 
HETATM    2  C   UNL     1      12.247  -6.021  -0.447  1.00  0.00    -0.017 C 
HETATM    3  C   UNL     1      11.322  -4.853  -0.022  1.00  0.00     0.005 C 
HETATM    4  C   UNL     1      10.405  -5.174   1.199  1.00  0.00     0.007 C 
HETATM    5  C   UNL     1       9.702  -3.963   1.928  1.00  0.00     0.011 C 
HETATM    6  C   UNL     1       8.550  -3.658   0.970  1.00  0.00    -0.025 C 
HETATM    7  C   UNL     1       9.763  -3.038  -0.505  1.00  0.00     0.072 C 
HETATM    8  C   UNL     1      10.717  -4.064  -1.243  1.00  0.00    -0.029 C 
HETATM    9  C   UNL     1      11.976  -3.402  -1.939  1.00  0.00     0.013 C 
HETATM   10  C   UNL     1      12.960  -4.497  -2.436  1.00  0.00     0.033 C 
HETATM   11  C   UNL     1      13.404  -5.385  -1.282  1.00  0.00     0.126 C 
HETATM   12  C   UNL     1      10.068  -4.673  -2.563  1.00  0.00     0.016 C 
HETATM   13  C   UNL     1       9.054  -1.768  -1.690  1.00  0.00     0.133 C 
HETATM   14  O   UNL     1       9.740  -1.247  -2.568  1.00  0.00    -0.298 OA
HETATM   15  C   UNL     1       7.317  -1.289  -1.635  1.00  0.00     0.084 C 
HETATM   16  C   UNL     1       6.388  -1.811  -0.650  1.00  0.00     0.006 C 
HETATM   17  C   UNL     1       7.009  -2.559   0.914  1.00  0.00    -0.032 C 
HETATM   18  C   UNL     1       8.083  -2.073   0.251  1.00  0.00     0.011 C 
HETATM   19  C   UNL     1       7.678  -3.632  -0.991  1.00  0.00     0.010 C 
HETATM   20  C   UNL     1       6.427  -3.846  -1.872  1.00  0.00    -0.040 C 
HETATM   21  C   UNL     1       5.447  -2.890  -1.244  1.00  0.00     0.000 C 
HETATM   22  C   UNL     1       4.388  -2.470  -2.256  1.00  0.00     0.025 C 
HETATM   23  C   UNL     1       4.924  -1.917  -3.602  1.00  0.00     0.042 C 
HETATM   24  C   UNL     1       5.850  -2.946  -4.268  1.00  0.00     0.021 C 
HETATM   25  C   UNL     1       6.862  -3.586  -3.357  1.00  0.00     0.011 C 
HETATM   26  C   UNL     1       3.743  -1.741  -4.563  1.00  0.00     0.026 C 
HETATM   27  C   UNL     1       5.996  -5.345  -1.835  1.00  0.00     0.015 C 
HETATM   28  C   UNL     1       6.613  -1.717   2.112  1.00  0.00     0.016 C 
HETATM   29  C   UNL     1       7.553  -4.838   1.517  1.00  0.00     0.016 C 
HETATM   30  C   UNL     1      11.436  -7.144  -1.127  1.00  0.00     0.018 C 
ENDROOT
BRANCH  23  31
HETATM   31  C   UNL     1       5.415  -0.469  -3.423  1.00  0.00     0.148 C 
HETATM   32  O   UNL     1       4.834   0.342  -2.709  1.00  0.00    -0.649 OA
BRANCH  31  33
HETATM   33  O   UNL     1       6.509  -0.091  -4.115  1.00  0.00    -0.776 OA
HETATM   34  H   UNL     1       7.051  -0.785  -4.529  1.00  0.00     0.167 HD
ENDBRANCH  31  33
ENDBRANCH  23  31
BRANCH  11  35
HETATM   35  O   UNL     1      14.331  -6.359  -1.742  1.00  0.00    -0.395 OA
HETATM   36  H   UNL     1      13.878  -6.931  -2.380  1.00  0.00     0.210 HD
ENDBRANCH  11  35
TORSDOF 3
