REMARK  24 active torsions:
REMARK  status: ('A' for Active; 'I' for Inactive)
REMARK    1  A    between atoms: C_1  and  C_2 
REMARK    2  A    between atoms: C_1  and  O_45 
REMARK    3  A    between atoms: C_3  and  O_44 
REMARK    4  A    between atoms: C_4  and  O_43 
REMARK    5  A    between atoms: C_5  and  O_42 
REMARK    6  A    between atoms: C_6  and  O_8 
REMARK    7  A    between atoms: O_8  and  C_9 
REMARK    8  A    between atoms: C_9  and  C_10 
REMARK    9  A    between atoms: C_11  and  O_30 
REMARK   10  A    between atoms: C_12  and  O_29 
REMARK   11  A    between atoms: C_13  and  O_28 
REMARK   12  A    between atoms: C_14  and  O_16 
REMARK   13  A    between atoms: O_16  and  C_17 
REMARK   14  A    between atoms: C_18  and  C_26 
REMARK   15  A    between atoms: C_20  and  O_25 
REMARK   16  A    between atoms: C_21  and  O_24 
REMARK   17  A    between atoms: C_22  and  O_23 
REMARK   18  A    between atoms: C_26  and  O_27 
REMARK   19  A    between atoms: O_30  and  C_31 
REMARK   20  A    between atoms: C_32  and  O_41 
REMARK   21  A    between atoms: C_33  and  O_40 
REMARK   22  A    between atoms: C_34  and  O_39 
REMARK   23  A    between atoms: C_35  and  C_37 
REMARK   24  A    between atoms: C_37  and  O_38 
ROOT
HETATM    1  C   UNL     1       2.307   5.969  -2.555  1.00  0.00     0.180 C 
HETATM    2  C   UNL     1       3.295   5.807  -1.371  1.00  0.00     0.187 C 
HETATM    3  C   UNL     1       2.939   6.871  -0.301  1.00  0.00     0.183 C 
HETATM    4  C   UNL     1       3.003   8.295  -0.877  1.00  0.00     0.204 C 
HETATM    5  C   UNL     1       2.055   8.371  -2.100  1.00  0.00     0.292 C 
HETATM    6  O   UNL     1       2.309   7.317  -3.024  1.00  0.00    -0.348 OA
ENDROOT
BRANCH   1   7
HETATM    7  C   UNL     1       0.897   5.393  -2.251  1.00  0.00     0.205 C 
BRANCH   7   8
HETATM    8  O   UNL     1       0.077   5.371  -3.436  1.00  0.00    -0.356 OA
BRANCH   8   9
HETATM    9  C   UNL     1      -1.167   4.628  -3.298  1.00  0.00     0.291 C 
HETATM   10  C   UNL     1      -0.843   3.119  -3.231  1.00  0.00     0.204 C 
HETATM   11  C   UNL     1      -2.120   2.284  -3.336  1.00  0.00     0.183 C 
HETATM   12  C   UNL     1      -2.881   2.621  -4.622  1.00  0.00     0.180 C 
HETATM   13  C   UNL     1      -3.155   4.135  -4.677  1.00  0.00     0.179 C 
HETATM   14  O   UNL     1      -1.960   4.922  -4.459  1.00  0.00    -0.348 OA
BRANCH  10  15
HETATM   15  O   UNL     1       0.042   2.778  -4.324  1.00  0.00    -0.388 OA
HETATM   16  H   UNL     1       0.579   3.577  -4.501  1.00  0.00     0.210 HD
ENDBRANCH  10  15
BRANCH  11  17
HETATM   17  O   UNL     1      -1.787   0.895  -3.297  1.00  0.00    -0.390 OA
HETATM   18  H   UNL     1      -1.290   0.720  -4.128  1.00  0.00     0.210 HD
ENDBRANCH  11  17
BRANCH  12  19
HETATM   19  O   UNL     1      -2.117   2.232  -5.778  1.00  0.00    -0.390 OA
HETATM   20  H   UNL     1      -1.247   2.676  -5.713  1.00  0.00     0.210 HD
ENDBRANCH  12  19
BRANCH  13  21
HETATM   21  C   UNL     1      -4.321   4.539  -3.758  1.00  0.00     0.198 C 
BRANCH  21  22
HETATM   22  O   UNL     1      -5.519   3.849  -4.102  1.00  0.00    -0.398 OA
HETATM   23  H   UNL     1      -5.836   4.194  -4.957  1.00  0.00     0.209 HD
ENDBRANCH  21  22
ENDBRANCH  13  21
ENDBRANCH   8   9
ENDBRANCH   7   8
ENDBRANCH   1   7
BRANCH   2  24
HETATM   24  O   UNL     1       4.681   6.030  -1.758  1.00  0.00    -0.348 OA
BRANCH  24  25
HETATM   25  C   UNL     1       5.224   5.171  -2.762  1.00  0.00     0.292 C 
HETATM   26  C   UNL     1       5.300   3.680  -2.356  1.00  0.00     0.204 C 
HETATM   27  C   UNL     1       6.482   3.435  -1.403  1.00  0.00     0.183 C 
HETATM   28  C   UNL     1       7.781   3.967  -2.020  1.00  0.00     0.180 C 
HETATM   29  C   UNL     1       7.580   5.472  -2.267  1.00  0.00     0.179 C 
HETATM   30  O   UNL     1       6.501   5.690  -3.184  1.00  0.00    -0.348 OA
BRANCH  26  31
HETATM   31  O   UNL     1       5.427   2.857  -3.532  1.00  0.00    -0.388 OA
HETATM   32  H   UNL     1       6.342   2.997  -3.867  1.00  0.00     0.210 HD
ENDBRANCH  26  31
BRANCH  27  33
HETATM   33  O   UNL     1       6.602   2.039  -1.121  1.00  0.00    -0.390 OA
HETATM   34  H   UNL     1       6.656   1.596  -1.991  1.00  0.00     0.210 HD
ENDBRANCH  27  33
BRANCH  28  35
HETATM   35  O   UNL     1       8.017   3.266  -3.261  1.00  0.00    -0.390 OA
HETATM   36  H   UNL     1       8.941   3.448  -3.515  1.00  0.00     0.210 HD
ENDBRANCH  28  35
BRANCH  29  37
HETATM   37  C   UNL     1       8.836   6.135  -2.840  1.00  0.00     0.198 C 
BRANCH  37  38
HETATM   38  O   UNL     1       9.922   6.045  -1.925  1.00  0.00    -0.398 OA
HETATM   39  H   UNL     1       9.821   6.770  -1.282  1.00  0.00     0.209 HD
ENDBRANCH  37  38
ENDBRANCH  29  37
ENDBRANCH  24  25
ENDBRANCH   2  24
BRANCH   3  40
HETATM   40  O   UNL     1       3.808   6.738   0.826  1.00  0.00    -0.390 OA
HETATM   41  H   UNL     1       4.573   7.325   0.646  1.00  0.00     0.210 HD
ENDBRANCH   3  40
BRANCH   5  42
HETATM   42  O   UNL     1       2.209   9.649  -2.753  1.00  0.00    -0.348 OA
BRANCH  42  43
HETATM   43  C   UNL     1       1.210   9.883  -3.778  1.00  0.00     0.187 C 
HETATM   44  C   UNL     1       1.579   9.190  -5.106  1.00  0.00     0.180 C 
HETATM   45  O   UNL     1       2.643   9.802  -5.843  1.00  0.00    -0.349 OA
HETATM   46  C   UNL     1       2.725  11.208  -5.899  1.00  0.00     0.288 C 
HETATM   47  C   UNL     1       2.337  11.985  -4.635  1.00  0.00     0.204 C 
HETATM   48  C   UNL     1       1.066  11.398  -4.012  1.00  0.00     0.183 C 
BRANCH  44  49
HETATM   49  C   UNL     1       0.346   8.896  -5.968  1.00  0.00     0.198 C 
BRANCH  49  50
HETATM   50  O   UNL     1      -0.598   8.102  -5.252  1.00  0.00    -0.398 OA
HETATM   51  H   UNL     1      -0.200   7.229  -5.067  1.00  0.00     0.209 HD
ENDBRANCH  49  50
ENDBRANCH  44  49
BRANCH  46  52
HETATM   52  O   UNL     1       1.939  11.698  -6.984  1.00  0.00    -0.369 OA
HETATM   53  H   UNL     1       1.519  10.915  -7.369  1.00  0.00     0.212 HD
ENDBRANCH  46  52
BRANCH  47  54
HETATM   54  O   UNL     1       2.138  13.368  -4.988  1.00  0.00    -0.388 OA
HETATM   55  H   UNL     1       1.859  13.371  -5.925  1.00  0.00     0.210 HD
ENDBRANCH  47  54
BRANCH  48  56
HETATM   56  O   UNL     1       0.750  12.041  -2.765  1.00  0.00    -0.390 OA
HETATM   57  H   UNL     1       1.552  11.989  -2.213  1.00  0.00     0.210 HD
ENDBRANCH  48  56
ENDBRANCH  42  43
ENDBRANCH   5  42
BRANCH   4  58
HETATM   58  O   UNL     1       4.374   8.616  -1.192  1.00  0.00    -0.388 OA
HETATM   59  H   UNL     1       4.678   7.957  -1.851  1.00  0.00     0.210 HD
ENDBRANCH   4  58
TORSDOF 24
