REMARK  5 active torsions:
REMARK  status: ('A' for Active; 'I' for Inactive)
REMARK    1  A    between atoms: C_1  and  C_2 
REMARK    2  A    between atoms: C_1  and  O_6 
REMARK    3  A    between atoms: C_2  and  C_3 
REMARK    4  A    between atoms: C_2  and  O_5 
REMARK    5  A    between atoms: C_3  and  O_4 
ROOT
HETATM    1  C   UNL     1       0.452   0.634   1.292  1.00  0.00     0.165 C 
ENDROOT
BRANCH   1   2
HETATM    2  C   UNL     1       0.997  -0.047   0.034  1.00  0.00     0.198 C 
BRANCH   2   3
HETATM    3  O   UNL     1       0.570   0.657  -1.137  1.00  0.00    -0.398 OA
HETATM    4  H   UNL     1      -0.396   0.514  -1.182  1.00  0.00     0.209 HD
ENDBRANCH   2   3
ENDBRANCH   1   2
BRANCH   1   5
HETATM    5  C   UNL     1       0.945   2.080   1.438  1.00  0.00     0.198 C 
BRANCH   5   6
HETATM    6  O   UNL     1       0.431   2.886   0.373  1.00  0.00    -0.398 OA
HETATM    7  H   UNL     1       0.711   2.452  -0.463  1.00  0.00     0.209 HD
ENDBRANCH   5   6
ENDBRANCH   1   5
BRANCH   1   8
HETATM    8  O   UNL     1      -0.982   0.639   1.207  1.00  0.00    -0.391 OA
HETATM    9  H   UNL     1      -1.228   1.528   0.879  1.00  0.00     0.210 HD
ENDBRANCH   1   8
TORSDOF 5
