REMARK  11 active torsions:
REMARK  status: ('A' for Active; 'I' for Inactive)
REMARK    1  A    between atoms: C_1  and  C_2 
REMARK    2  A    between atoms: C_1  and  O_17 
REMARK    3  A    between atoms: C_2  and  C_3 
REMARK    4  A    between atoms: C_2  and  O_16 
REMARK    5  A    between atoms: C_3  and  O_4 
REMARK    6  A    between atoms: O_4  and  C_5 
REMARK    7  A    between atoms: C_6  and  O_15 
REMARK    8  A    between atoms: C_7  and  C_11 
REMARK    9  A    between atoms: C_11  and  C_12 
REMARK   10  A    between atoms: C_11  and  O_14 
REMARK   11  A    between atoms: C_12  and  O_13 
ROOT
HETATM    1  C   UNL     1       3.039   3.662  -0.374  1.00  0.00     0.176 A 
HETATM    2  C   UNL     1       2.752   4.945  -0.137  1.00  0.00     0.115 A 
HETATM    3  C   UNL     1       3.597   5.870  -0.929  1.00  0.00     0.222 A 
HETATM    4  O   UNL     1       4.403   4.982  -1.712  1.00  0.00    -0.301 OA
HETATM    5  C   UNL     1       4.126   3.686  -1.383  1.00  0.00     0.320 A 
HETATM    6  O   UNL     1       4.690   2.723  -1.868  1.00  0.00    -0.257 OA
ENDROOT
BRANCH   1   7
HETATM    7  O   UNL     1       2.399   2.584   0.189  1.00  0.00    -0.341 OA
BRANCH   7   8
HETATM    8  C   UNL     1       2.919   1.311  -0.234  1.00  0.00     0.209 C 
BRANCH   8   9
HETATM    9  C   UNL     1       2.167   0.158   0.445  1.00  0.00     0.166 C 
BRANCH   9  10
HETATM   10  C   UNL     1       0.669   0.168   0.110  1.00  0.00     0.198 C 
BRANCH  10  11
HETATM   11  O   UNL     1      -0.012  -0.932   0.711  1.00  0.00    -0.398 OA
HETATM   12  H   UNL     1       0.528  -1.732   0.582  1.00  0.00     0.209 HD
ENDBRANCH  10  11
ENDBRANCH   9  10
BRANCH   9  13
HETATM   13  O   UNL     1       2.367   0.217   1.861  1.00  0.00    -0.391 OA
HETATM   14  H   UNL     1       1.897   1.003   2.188  1.00  0.00     0.210 HD
ENDBRANCH   9  13
ENDBRANCH   8   9
ENDBRANCH   7   8
ENDBRANCH   1   7
BRANCH   2  15
HETATM   15  O   UNL     1       1.777   5.429   0.692  1.00  0.00    -0.359 OA
HETATM   16  H   UNL     1       1.419   4.680   1.206  1.00  0.00     0.217 HD
ENDBRANCH   2  15
BRANCH   3  17
HETATM   17  C   UNL     1       4.499   6.790  -0.081  1.00  0.00     0.177 C 
BRANCH  17  18
HETATM   18  C   UNL     1       5.431   7.623  -0.970  1.00  0.00     0.198 C 
BRANCH  18  19
HETATM   19  O   UNL     1       6.235   8.474  -0.154  1.00  0.00    -0.398 OA
HETATM   20  H   UNL     1       5.637   8.814   0.542  1.00  0.00     0.209 HD
ENDBRANCH  18  19
ENDBRANCH  17  18
BRANCH  17  21
HETATM   21  O   UNL     1       3.759   7.722   0.728  1.00  0.00    -0.390 OA
HETATM   22  H   UNL     1       2.916   7.922   0.282  1.00  0.00     0.210 HD
ENDBRANCH  17  21
ENDBRANCH   3  17
TORSDOF 11
