REMARK  14 active torsions:
REMARK  status: ('A' for Active; 'I' for Inactive)
REMARK    1  A    between atoms: O_2  and  C_3 
REMARK    2  A    between atoms: C_3  and  C_4 
REMARK    3  A    between atoms: C_4  and  O_5 
REMARK    4  A    between atoms: O_5  and  C_6 
REMARK    5  A    between atoms: C_6  and  C_7 
REMARK    6  A    between atoms: C_7  and  C_8 
REMARK    7  A    between atoms: C_7  and  O_14 
REMARK    8  A    between atoms: C_8  and  O_9 
REMARK    9  A    between atoms: O_9  and  C_10 
REMARK   10  A    between atoms: C_10  and  C_11 
REMARK   11  A    between atoms: C_11  and  O_12 
REMARK   12  A    between atoms: O_14  and  C_15 
REMARK   13  A    between atoms: C_15  and  C_16 
REMARK   14  A    between atoms: C_16  and  O_17 
ROOT
HETATM    1  C   UNL     1       6.767   0.973   3.990  1.00  0.00     0.169 C 
ENDROOT
BRANCH   1   2
HETATM    2  C   UNL     1       6.228   0.621   2.595  1.00  0.00     0.201 C 
BRANCH   2   3
HETATM    3  O   UNL     1       4.803   0.647   2.578  1.00  0.00    -0.386 OA
BRANCH   3   4
HETATM    4  C   UNL     1       4.313   0.435   1.253  1.00  0.00     0.193 C 
BRANCH   4   5
HETATM    5  C   UNL     1       2.793   0.502   1.265  1.00  0.00     0.193 C 
BRANCH   5   6
HETATM    6  O   UNL     1       2.309   0.272  -0.057  1.00  0.00    -0.394 OA
HETATM    7  C   UNL     1       0.892   0.305  -0.099  1.00  0.00     0.201 C 
ENDBRANCH   5   6
ENDBRANCH   4   5
ENDBRANCH   3   4
ENDBRANCH   2   3
ENDBRANCH   1   2
BRANCH   1   8
HETATM    8  C   UNL     1       6.231  -0.026   5.040  1.00  0.00     0.201 C 
BRANCH   8   9
HETATM    9  O   UNL     1       6.679   0.243   6.378  1.00  0.00    -0.386 OA
BRANCH   9  10
HETATM   10  C   UNL     1       6.159   1.455   6.917  1.00  0.00     0.193 C 
BRANCH  10  11
HETATM   11  C   UNL     1       6.609   1.609   8.365  1.00  0.00     0.193 C 
BRANCH  11  12
HETATM   12  O   UNL     1       6.153   2.869   8.858  1.00  0.00    -0.394 OA
HETATM   13  C   UNL     1       6.595   3.102  10.188  1.00  0.00     0.201 C 
ENDBRANCH  11  12
ENDBRANCH  10  11
ENDBRANCH   9  10
ENDBRANCH   8   9
ENDBRANCH   1   8
BRANCH   1  14
HETATM   14  O   UNL     1       8.207   0.937   4.007  1.00  0.00    -0.380 OA
BRANCH  14  15
HETATM   15  C   UNL     1       8.795   2.012   3.276  1.00  0.00     0.194 C 
BRANCH  15  16
HETATM   16  C   UNL     1      10.314   1.958   3.363  1.00  0.00     0.193 C 
BRANCH  16  17
HETATM   17  O   UNL     1      10.839   2.973   2.510  1.00  0.00    -0.394 OA
HETATM   18  C   UNL     1      12.258   2.958   2.475  1.00  0.00     0.201 C 
ENDBRANCH  16  17
ENDBRANCH  15  16
ENDBRANCH  14  15
ENDBRANCH   1  14
TORSDOF 14
