REMARK  3 active torsions:
REMARK  status: ('A' for Active; 'I' for Inactive)
REMARK    1  A    between atoms: C_1  and  C_2 
REMARK    2  A    between atoms: C_1  and  O_5 
REMARK    3  A    between atoms: C_2  and  O_4 
ROOT
HETATM    1  C   UNL     1       0.501  -1.579   0.072  1.00  0.00     0.164 C 
HETATM    2  O   UNL     1      -0.573  -1.959   0.509  1.00  0.00    -0.648 OA
ENDROOT
BRANCH   1   3
HETATM    3  C   UNL     1       0.992  -0.141   0.090  1.00  0.00     0.273 C 
BRANCH   3   4
HETATM    4  O   UNL     1       2.419  -0.134  -0.022  1.00  0.00    -0.391 OA
HETATM    5  H   UNL     1       2.767  -0.298   0.876  1.00  0.00     0.210 HD
ENDBRANCH   3   4
ENDBRANCH   1   3
BRANCH   1   6
HETATM    6  O   UNL     1       1.407  -2.403  -0.514  1.00  0.00    -0.775 OA
HETATM    7  H   UNL     1       2.183  -1.862  -0.792  1.00  0.00     0.167 HD
ENDBRANCH   1   6
TORSDOF 3
