REMARK  8 active torsions:
REMARK  status: ('A' for Active; 'I' for Inactive)
REMARK    1  A    between atoms: N_2  and  C_4 
REMARK    2  A    between atoms: C_7  and  C_10 
REMARK    3  A    between atoms: C_10  and  C_20 
REMARK    4  A    between atoms: C_24  and  S_35 
REMARK    5  A    between atoms: C_28  and  S_31 
REMARK    6  A    between atoms: C_29  and  O_30 
REMARK    7  A    between atoms: S_31  and  O_34 
REMARK    8  A    between atoms: S_35  and  O_38 
ROOT
HETATM    1  C   UNL     1       5.023  -3.734  -4.794  1.00  0.00     0.022 A 
HETATM    2  C   UNL     1       5.547  -2.819  -5.766  1.00  0.00    -0.012 A 
HETATM    3  C   UNL     1       6.365  -1.705  -5.442  1.00  0.00     0.015 A 
HETATM    4  C   UNL     1       6.826  -0.817  -6.414  1.00  0.00     0.026 A 
HETATM    5  C   UNL     1       6.486  -1.035  -7.742  1.00  0.00     0.073 A 
HETATM    6  C   UNL     1       5.698  -2.127  -8.109  1.00  0.00     0.037 A 
HETATM    7  C   UNL     1       5.241  -3.026  -7.135  1.00  0.00    -0.022 A 
HETATM    8  C   UNL     1       4.517  -4.154  -7.526  1.00  0.00     0.040 A 
HETATM    9  C   UNL     1       4.082  -5.077  -6.573  1.00  0.00     0.107 A 
HETATM   10  C   UNL     1       4.261  -4.843  -5.210  1.00  0.00     0.101 A 
ENDROOT
BRANCH   1  11
HETATM   11  C   UNL     1       5.378  -3.560  -3.333  1.00  0.00    -0.002 C 
HETATM   12  C   UNL     1       6.475  -4.260  -2.894  1.00  0.00    -0.024 C 
HETATM   13  C   UNL     1       7.181  -5.242  -3.732  1.00  0.00     0.014 C 
HETATM   14  C   UNL     1       7.112  -4.028  -1.598  1.00  0.00     0.014 C 
HETATM   15  C   UNL     1       7.922  -6.219  -3.184  1.00  0.00     0.030 C 
HETATM   16  C   UNL     1       8.077  -6.294  -1.693  1.00  0.00     0.029 C 
HETATM   17  N   UNL     1       8.426  -7.378  -1.056  1.00  0.00    -0.390 N 
HETATM   18  C   UNL     1       7.848  -4.978  -1.002  1.00  0.00     0.030 C 
HETATM   19  C   UNL     1       8.496  -7.478   0.441  1.00  0.00     0.149 C 
HETATM   20  C   UNL     1       8.768  -8.681  -1.718  1.00  0.00     0.149 C 
BRANCH  11  21
HETATM   21  C   UNL     1       4.574  -2.605  -2.469  1.00  0.00    -0.024 A 
HETATM   22  C   UNL     1       3.899  -1.516  -3.037  1.00  0.00     0.014 A 
HETATM   23  C   UNL     1       3.191  -0.587  -2.254  1.00  0.00     0.030 A 
HETATM   24  C   UNL     1       3.105  -0.691  -0.861  1.00  0.00     0.029 A 
HETATM   25  C   UNL     1       3.738  -1.807  -0.303  1.00  0.00     0.030 A 
HETATM   26  C   UNL     1       4.410  -2.763  -1.088  1.00  0.00     0.014 A 
BRANCH  24  27
HETATM   27  N   UNL     1       2.443   0.264  -0.092  1.00  0.00    -0.390 N 
HETATM   28  C   UNL     1       1.323   0.988  -0.693  1.00  0.00     0.149 C 
HETATM   29  C   UNL     1       2.458   0.182   1.365  1.00  0.00     0.149 C 
ENDBRANCH  24  27
ENDBRANCH  11  21
ENDBRANCH   1  11
BRANCH  10  30
HETATM   30  O   UNL     1       3.769  -5.694  -4.253  1.00  0.00    -0.358 OA
HETATM   31  H   UNL     1       2.944  -6.119  -4.576  1.00  0.00     0.217 HD
ENDBRANCH  10  30
BRANCH   9  32
HETATM   32  S   UNL     1       3.440  -6.625  -7.123  1.00  0.00     0.132 S 
HETATM   33  O   UNL     1       4.560  -7.537  -7.191  1.00  0.00    -0.597 OA
HETATM   34  O   UNL     1       2.273  -6.894  -6.312  1.00  0.00    -0.597 OA
BRANCH  32  35
HETATM   35  O   UNL     1       2.971  -6.390  -8.647  1.00  0.00    -0.292 OA
HETATM   36  H   UNL     1       3.554  -6.923  -9.231  1.00  0.00     0.232 HD
ENDBRANCH  32  35
ENDBRANCH   9  32
BRANCH   5  37
HETATM   37  S   UNL     1       7.020   0.100  -8.991  1.00  0.00     0.129 S 
HETATM   38  O   UNL     1       7.164   1.401  -8.370  1.00  0.00    -0.598 OA
HETATM   39  O   UNL     1       8.084  -0.541  -9.719  1.00  0.00    -0.598 OA
BRANCH  37  40
HETATM   40  O   UNL     1       5.737   0.233  -9.958  1.00  0.00    -0.292 OA
HETATM   41  H   UNL     1       5.359   1.131  -9.830  1.00  0.00     0.232 HD
ENDBRANCH  37  40
ENDBRANCH   5  37
TORSDOF 8
