REMARK  5 active torsions:
REMARK  status: ('A' for Active; 'I' for Inactive)
REMARK    1  A    between atoms: C_4  and  N_11 
REMARK    2  A    between atoms: C_5  and  N_7 
REMARK    3  A    between atoms: N_7  and  C_8 
REMARK    4  A    between atoms: C_8  and  C_9 
REMARK    5  A    between atoms: C_9  and  O_10 
ROOT
HETATM    1  C   UNL     1       1.383  -0.200   0.045  1.00  0.00     0.002 A 
HETATM    2  C   UNL     1       0.592  -1.333  -0.072  1.00  0.00     0.003 A 
HETATM    3  C   UNL     1      -0.790  -1.196  -0.141  1.00  0.00     0.038 A 
HETATM    4  C   UNL     1      -1.387   0.085  -0.099  1.00  0.00     0.123 A 
HETATM    5  C   UNL     1      -0.599   1.262   0.005  1.00  0.00     0.041 A 
HETATM    6  C   UNL     1       0.795   1.069   0.098  1.00  0.00     0.026 A 
ENDROOT
BRANCH   5   7
HETATM    7  N   UNL     1      -1.144   2.557   0.167  1.00  0.00    -0.289 NA
HETATM    8  H   UNL     1      -2.118   2.590  -0.167  1.00  0.00     0.127 HD
BRANCH   7   9
HETATM    9  C   UNL     1      -0.350   3.711  -0.290  1.00  0.00     0.118 C 
BRANCH   9  10
HETATM   10  C   UNL     1      -1.124   5.019  -0.094  1.00  0.00     0.178 C 
BRANCH  10  11
HETATM   11  O   UNL     1      -1.415   5.226   1.286  1.00  0.00    -0.400 OA
HETATM   12  H   UNL     1      -1.684   4.358   1.637  1.00  0.00     0.209 HD
ENDBRANCH  10  11
ENDBRANCH   9  10
ENDBRANCH   7   9
ENDBRANCH   5   7
BRANCH   4  13
HETATM   13  N   UNL     1      -2.856   0.138  -0.223  1.00  0.00    -0.114 N 
HETATM   14  O   UNL     1      -3.470  -0.937  -0.292  1.00  0.00    -0.532 OA
HETATM   15  O   UNL     1      -3.404   1.252  -0.285  1.00  0.00    -0.532 OA
ENDBRANCH   4  13
TORSDOF 5
