REMARK  16 active torsions:
REMARK  status: ('A' for Active; 'I' for Inactive)
REMARK    1  A    between atoms: CB_2  and  CA_4 
REMARK    2  A    between atoms: CA_4  and  C_5 
REMARK    3  A    between atoms: CA_4  and  N_7 
REMARK       I    between atoms: C_5  and  N_9 
REMARK       I    between atoms: N_7  and  C_43 
REMARK    4  A    between atoms: N_9  and  CA_10 
REMARK    5  A    between atoms: CA_10  and  C_12 
REMARK       I    between atoms: C_12  and  N_15 
REMARK    6  A    between atoms: CA_19  and  C_20 
REMARK       I    between atoms: C_20  and  N_22 
REMARK    7  A    between atoms: N_22  and  CA_23 
REMARK    8  A    between atoms: CA_23  and  CB_24 
REMARK    9  A    between atoms: CA_23  and  C_31 
REMARK   10  A    between atoms: CB_24  and  CG_25 
REMARK       I    between atoms: C_31  and  N_34 
REMARK   11  A    between atoms: CA_38  and  C_39 
REMARK   12  A    between atoms: C_39  and  OXT_41 
REMARK   13  A    between atoms: C_43  and  CA_45 
REMARK   14  A    between atoms: CA_45  and  CB_46 
REMARK   15  A    between atoms: CA_45  and  N_53 
REMARK   16  A    between atoms: CB_46  and  CG_47 
ROOT
ATOM      1  C   ALA A   3      -0.612   4.247   0.454  1.00  0.00     0.238 C 
ATOM      2  O   ALA A   3       0.452   4.528  -0.111  1.00  0.00    -0.272 OA
ATOM      3  N   PRO A   4      -1.501   5.261   0.836  1.00  0.00    -0.337 N 
ATOM      4  CD  PRO A   4      -1.187   6.646   0.529  1.00  0.00     0.127 C 
ATOM      5  CG  PRO A   4      -1.513   7.391   1.809  1.00  0.00     0.022 C 
ATOM      6  CB  PRO A   4      -2.740   6.668   2.338  1.00  0.00     0.037 C 
ATOM      7  CA  PRO A   4      -2.651   5.228   1.767  1.00  0.00     0.179 C 
ENDROOT
BRANCH   1   8
ATOM      8  CA  ALA A   3      -0.979   2.752   0.694  1.00  0.00     0.151 C 
ATOM      9  CB  ALA A   3      -0.256   2.108   1.878  1.00  0.00     0.036 C 
BRANCH   8  10
ATOM     10  N   ALA A   3      -0.809   1.884  -0.526  1.00  0.00    -0.248 NA
ATOM     11  C   VAL A   2      -1.481   2.162  -1.705  1.00  0.00     0.221 C 
ATOM     12  O   VAL A   2      -2.074   3.240  -1.835  1.00  0.00    -0.278 OA
ATOM     13  H   ALA A   3      -0.903   0.893  -0.303  1.00  0.00     0.131 HD
BRANCH  11  14
ATOM     14  CA  VAL A   2      -1.566   1.026  -2.836  1.00  0.00     0.174 C 
BRANCH  14  15
ATOM     15  CB  VAL A   2      -2.151   1.781  -4.167  1.00  0.00     0.009 C 
ATOM     16  CG1 VAL A   2      -1.469   3.066  -4.694  1.00  0.00     0.012 C 
ATOM     17  CG2 VAL A   2      -2.449   0.839  -5.333  1.00  0.00     0.012 C 
ENDBRANCH  14  15
BRANCH  14  18
ATOM     18  N   VAL A   2      -2.419  -0.312  -2.509  1.00  0.00    -0.346 N 
ATOM     19  C   PHE A   1      -2.677  -0.881  -1.265  1.00  0.00     0.251 C 
ATOM     20  O   PHE A   1      -2.133  -0.327  -0.318  1.00  0.00    -0.271 OA
ATOM     21  H   VAL A   2      -2.409  -1.002  -3.249  1.00  0.00     0.163 HD
BRANCH  19  22
ATOM     22  CA  PHE A   1      -3.606  -2.174  -0.877  1.00  0.00     0.313 C 
BRANCH  22  23
ATOM     23  CB  PHE A   1      -4.282  -1.973   0.563  1.00  0.00     0.083 C 
BRANCH  23  24
ATOM     24  CG  PHE A   1      -5.166  -3.061   1.125  1.00  0.00    -0.056 A 
ATOM     25  CD1 PHE A   1      -4.535  -4.095   1.805  1.00  0.00     0.007 A 
ATOM     26  CE1 PHE A   1      -5.272  -5.107   2.411  1.00  0.00     0.001 A 
ATOM     27  CZ  PHE A   1      -6.662  -5.112   2.328  1.00  0.00     0.000 A 
ATOM     28  CE2 PHE A   1      -7.314  -4.074   1.667  1.00  0.00     0.001 A 
ATOM     29  CD2 PHE A   1      -6.567  -3.047   1.069  1.00  0.00     0.007 A 
ENDBRANCH  23  24
ENDBRANCH  22  23
BRANCH  22  30
ATOM     30  N   PHE A   1      -4.605  -2.611  -1.881  1.00  0.00     0.092 N 
ATOM     31  H1  PHE A   1      -5.456  -2.044  -1.816  1.00  0.00     0.313 HD
ATOM     32  H2  PHE A   1      -4.992  -3.502  -1.529  1.00  0.00     0.313 HD
ENDBRANCH  22  30
ENDBRANCH  19  22
ENDBRANCH  14  18
ENDBRANCH  11  14
ENDBRANCH   8  10
ENDBRANCH   1   8
BRANCH   7  33
ATOM     33  C   PRO A   4      -4.061   4.946   1.198  1.00  0.00     0.241 C 
ATOM     34  O   PRO A   4      -5.030   4.832   1.955  1.00  0.00    -0.271 OA
ATOM     35  N   PHE A   5      -4.223   4.938  -0.172  1.00  0.00    -0.346 N 
ATOM     36  H   PHE A   5      -3.376   4.876  -0.743  1.00  0.00     0.163 HD
BRANCH  35  37
ATOM     37  CA  PHE A   5      -5.503   4.477  -0.724  1.00  0.00     0.181 C 
BRANCH  37  38
ATOM     38  CB  PHE A   5      -6.633   5.478  -0.835  1.00  0.00     0.073 C 
BRANCH  38  39
ATOM     39  CG  PHE A   5      -6.300   6.662  -1.680  1.00  0.00    -0.056 A 
ATOM     40  CD1 PHE A   5      -6.674   6.708  -3.028  1.00  0.00     0.007 A 
ATOM     41  CE1 PHE A   5      -6.424   7.851  -3.775  1.00  0.00     0.001 A 
ATOM     42  CZ  PHE A   5      -5.798   8.940  -3.174  1.00  0.00     0.000 A 
ATOM     43  CE2 PHE A   5      -5.318   8.851  -1.867  1.00  0.00     0.001 A 
ATOM     44  CD2 PHE A   5      -5.573   7.710  -1.118  1.00  0.00     0.007 A 
ENDBRANCH  38  39
ENDBRANCH  37  38
BRANCH  37  45
ATOM     45  C   PHE A   5      -5.355   3.692  -2.046  1.00  0.00     0.243 C 
ATOM     46  O   PHE A   5      -5.020   4.205  -3.117  1.00  0.00    -0.271 OA
ATOM     47  N   PRO A   6      -5.505   2.330  -1.935  1.00  0.00    -0.336 N 
ATOM     48  CD  PRO A   6      -5.198   1.476  -3.036  1.00  0.00     0.127 C 
ATOM     49  CA  PRO A   6      -5.770   1.566  -0.715  1.00  0.00     0.185 C 
ATOM     50  CG  PRO A   6      -5.812   0.166  -2.754  1.00  0.00     0.022 C 
ATOM     51  CB  PRO A   6      -5.847   0.153  -1.240  1.00  0.00     0.038 C 
BRANCH  49  52
ATOM     52  C   PRO A   6      -4.643   1.630   0.330  1.00  0.00     0.163 C 
ATOM     53  O   PRO A   6      -4.618   1.121   1.421  1.00  0.00    -0.648 OA
BRANCH  52  54
ATOM     54  OXT PRO A   6      -3.592   2.316  -0.124  1.00  0.00    -0.775 OA
ATOM     55  HXT PRO A   6      -3.609   2.656  -1.041  1.00  0.00     0.167 HD
ENDBRANCH  52  54
ENDBRANCH  49  52
ENDBRANCH  37  45
ENDBRANCH  35  37
ENDBRANCH   7  33
TORSDOF 16
