REMARK  25 active torsions:
REMARK  status: ('A' for Active; 'I' for Inactive)
REMARK    1  A    between atoms: C_2  and  C_3 
REMARK    2  A    between atoms: C_3  and  C_4 
REMARK    3  A    between atoms: C_4  and  C_5 
REMARK    4  A    between atoms: C_5  and  C_6 
REMARK    5  A    between atoms: C_6  and  C_7 
REMARK    6  A    between atoms: C_7  and  C_8 
REMARK    7  A    between atoms: C_8  and  C_9 
REMARK    8  A    between atoms: C_9  and  C_10 
REMARK    9  A    between atoms: C_10  and  C_11 
REMARK   10  A    between atoms: C_11  and  C_12 
REMARK   11  A    between atoms: C_12  and  O_14 
REMARK   12  A    between atoms: O_14  and  C_15 
REMARK   13  A    between atoms: C_15  and  C_16 
REMARK   14  A    between atoms: C_16  and  C_17 
REMARK   15  A    between atoms: C_16  and  C_23 
REMARK   16  A    between atoms: C_17  and  C_18 
REMARK   17  A    between atoms: C_18  and  C_19 
REMARK   18  A    between atoms: C_19  and  C_20 
REMARK   19  A    between atoms: C_20  and  C_21 
REMARK   20  A    between atoms: C_23  and  C_24 
REMARK   21  A    between atoms: C_24  and  C_25 
REMARK   22  A    between atoms: C_25  and  C_26 
REMARK   23  A    between atoms: C_26  and  C_27 
REMARK   24  A    between atoms: C_27  and  C_28 
REMARK   25  A    between atoms: C_28  and  C_29 
ROOT
HETATM    1  C   UNL     1      14.684  -1.031   8.240  1.00  0.00     0.183 C 
ENDROOT
BRANCH   1   2
HETATM    2  O   UNL     1      13.260  -0.976   8.143  1.00  0.00    -0.321 OA
BRANCH   2   3
HETATM    3  C   UNL     1      12.705   0.199   8.582  1.00  0.00     0.258 C 
HETATM    4  O   UNL     1      13.209   0.976   9.361  1.00  0.00    -0.265 OA
BRANCH   3   5
HETATM    5  C   UNL     1      11.404   0.466   7.853  1.00  0.00     0.111 C 
BRANCH   5   6
HETATM    6  C   UNL     1      10.406  -0.628   8.178  1.00  0.00     0.010 C 
BRANCH   6   7
HETATM    7  C   UNL     1       9.066  -0.427   7.486  1.00  0.00     0.000 C 
BRANCH   7   8
HETATM    8  C   UNL     1       8.120  -1.562   7.860  1.00  0.00     0.000 C 
BRANCH   8   9
HETATM    9  C   UNL     1       6.773  -1.382   7.180  1.00  0.00     0.000 C 
BRANCH   9  10
HETATM   10  C   UNL     1       5.832  -2.516   7.558  1.00  0.00     0.000 C 
BRANCH  10  11
HETATM   11  C   UNL     1       4.487  -2.328   6.874  1.00  0.00     0.000 C 
BRANCH  11  12
HETATM   12  C   UNL     1       3.541  -3.458   7.251  1.00  0.00     0.000 C 
BRANCH  12  13
HETATM   13  C   UNL     1       2.197  -3.268   6.566  1.00  0.00    -0.000 C 
BRANCH  13  14
HETATM   14  C   UNL     1       1.245  -4.398   6.939  1.00  0.00    -0.005 C 
HETATM   15  C   UNL     1      -0.095  -4.206   6.252  1.00  0.00     0.005 C 
ENDBRANCH  13  14
ENDBRANCH  12  13
ENDBRANCH  11  12
ENDBRANCH  10  11
ENDBRANCH   9  10
ENDBRANCH   8   9
ENDBRANCH   7   8
ENDBRANCH   6   7
ENDBRANCH   5   6
ENDBRANCH   3   5
ENDBRANCH   2   3
ENDBRANCH   1   2
BRANCH   1  16
HETATM   16  C   UNL     1      15.206  -1.292   9.658  1.00  0.00     0.010 C 
BRANCH  16  17
HETATM   17  C   UNL     1      14.672  -2.622  10.218  1.00  0.00     0.007 C 
BRANCH  17  18
HETATM   18  C   UNL     1      15.149  -2.866  11.642  1.00  0.00     0.000 C 
BRANCH  18  19
HETATM   19  C   UNL     1      14.633  -4.182  12.175  1.00  0.00     0.000 C 
BRANCH  19  20
HETATM   20  C   UNL     1      15.172  -4.359  13.585  1.00  0.00    -0.000 C 
BRANCH  20  21
HETATM   21  C   UNL     1      14.667  -5.659  14.169  1.00  0.00    -0.005 C 
HETATM   22  C   UNL     1      15.199  -5.845  15.575  1.00  0.00     0.005 C 
ENDBRANCH  20  21
ENDBRANCH  19  20
ENDBRANCH  18  19
ENDBRANCH  17  18
ENDBRANCH  16  17
BRANCH  16  23
HETATM   23  C   UNL     1      16.741  -1.276   9.678  1.00  0.00     0.007 C 
BRANCH  23  24
HETATM   24  C   UNL     1      17.321   0.052   9.221  1.00  0.00     0.000 C 
BRANCH  24  25
HETATM   25  C   UNL     1      18.836   0.026   9.256  1.00  0.00     0.000 C 
BRANCH  25  26
HETATM   26  C   UNL     1      19.377   1.364   8.776  1.00  0.00     0.000 C 
BRANCH  26  27
HETATM   27  C   UNL     1      20.895   1.354   8.815  1.00  0.00     0.000 C 
BRANCH  27  28
HETATM   28  C   UNL     1      21.442   2.690   8.341  1.00  0.00    -0.000 C 
BRANCH  28  29
HETATM   29  C   UNL     1      22.964   2.680   8.377  1.00  0.00    -0.005 C 
HETATM   30  C   UNL     1      23.511   4.013   7.905  1.00  0.00     0.005 C 
ENDBRANCH  28  29
ENDBRANCH  27  28
ENDBRANCH  26  27
ENDBRANCH  25  26
ENDBRANCH  24  25
ENDBRANCH  23  24
ENDBRANCH  16  23
ENDBRANCH   1  16
TORSDOF 25
