REMARK  4 active torsions:
REMARK  status: ('A' for Active; 'I' for Inactive)
REMARK    1  A    between atoms: C_2  and  C_3 
REMARK    2  A    between atoms: C_2  and  O_8 
REMARK    3  A    between atoms: C_3  and  C_4 
REMARK    4  A    between atoms: C_4  and  O_7 
ROOT
HETATM    1  C   UNL     1       2.913  -0.613   1.355  1.00  0.00     0.068 C 
ENDROOT
BRANCH   1   2
HETATM    2  C   UNL     1       2.512   0.004   0.007  1.00  0.00     0.117 C 
HETATM    3  C   UNL     1       2.960  -0.857  -1.168  1.00  0.00     0.039 C 
BRANCH   2   4
HETATM    4  O   UNL     1       3.097   1.302  -0.125  1.00  0.00    -0.396 OA
HETATM    5  H   UNL     1       4.065   1.184  -0.169  1.00  0.00     0.210 HD
ENDBRANCH   2   4
ENDBRANCH   1   2
BRANCH   1   6
HETATM    6  C   UNL     1       2.509   0.217   2.594  1.00  0.00     0.053 C 
HETATM    7  C   UNL     1       0.992   0.366   2.726  1.00  0.00     0.045 C 
HETATM    8  C   UNL     1       3.071  -0.433   3.861  1.00  0.00     0.045 C 
BRANCH   6   9
HETATM    9  O   UNL     1       3.086   1.522   2.518  1.00  0.00    -0.391 OA
HETATM   10  H   UNL     1       2.870   1.880   1.631  1.00  0.00     0.210 HD
ENDBRANCH   6   9
ENDBRANCH   1   6
TORSDOF 4
