REMARK  5 active torsions:
REMARK  status: ('A' for Active; 'I' for Inactive)
REMARK    1  A    between atoms: CG_2  and  CB_7 
REMARK    2  A    between atoms: CB_7  and  CA_8 
REMARK    3  A    between atoms: CA_8  and  C_9 
REMARK    4  A    between atoms: CA_8  and  N_12 
REMARK    5  A    between atoms: C_9  and  OXT_11 
ROOT
ATOM      1  CB  HIS A   1       1.965  -1.683  -0.032  1.00  0.00     0.105 C 
ENDROOT
BRANCH   1   2
ATOM      2  CG  HIS A   1       0.806  -0.767   0.167  1.00  0.00     0.028 A 
ATOM      3  CD2 HIS A   1       0.172  -0.305   1.299  1.00  0.00     0.114 A 
ATOM      4  NE2 HIS A   1      -0.895   0.486   0.968  1.00  0.00    -0.360 N 
ATOM      5  CE1 HIS A   1      -0.887   0.558  -0.343  1.00  0.00     0.180 A 
ATOM      6  HE2 HIS A   1      -1.557   0.927   1.606  1.00  0.00     0.166 HD
ATOM      7  ND1 HIS A   1       0.138  -0.170  -0.877  1.00  0.00    -0.355 N 
ATOM      8  HD1 HIS A   1       0.342  -0.265  -1.863  1.00  0.00     0.166 HD
ENDBRANCH   1   2
BRANCH   1   9
ATOM      9  CA  HIS A   1       1.555  -3.164  -0.094  1.00  0.00     0.320 C 
BRANCH   9  10
ATOM     10  C   HIS A   1       0.622  -3.412  -1.292  1.00  0.00     0.174 C 
ATOM     11  O   HIS A   1       1.021  -3.653  -2.425  1.00  0.00    -0.648 OA
BRANCH  10  12
ATOM     12  OXT HIS A   1      -0.694  -3.318  -1.002  1.00  0.00    -0.775 OA
ATOM     13  HXT HIS A   1      -0.889  -3.065  -0.076  1.00  0.00     0.167 HD
ENDBRANCH  10  12
ENDBRANCH   9  10
BRANCH   9  14
ATOM     14  N   HIS A   1       2.764  -4.010  -0.237  1.00  0.00     0.093 N 
ATOM     15  H1  HIS A   1       3.165  -3.825  -1.164  1.00  0.00     0.314 HD
ATOM     16  H2  HIS A   1       2.476  -4.989  -0.294  1.00  0.00     0.314 HD
ENDBRANCH   9  14
ENDBRANCH   1   9
TORSDOF 5
