REMARK  4 active torsions:
REMARK  status: ('A' for Active; 'I' for Inactive)
REMARK    1  A    between atoms: C_4  and  O_10 
REMARK    2  A    between atoms: O_10  and  C_11 
REMARK    3  A    between atoms: C_11  and  C_13 
REMARK    4  A    between atoms: C_18  and  O_19 
ROOT
HETATM    1  O   UNL     1       3.327   1.808  -3.258  1.00  0.00    -0.312 OA
ENDROOT
BRANCH   1   2
HETATM    2  C   UNL     1       2.677   0.871  -2.383  1.00  0.00     0.133 C 
HETATM    3  C   UNL     1       3.094   1.165  -0.940  1.00  0.00     0.037 C 
HETATM    4  C   UNL     1       2.573   0.129   0.058  1.00  0.00    -0.015 C 
HETATM    5  C   UNL     1       1.089   0.329   0.367  1.00  0.00     0.010 C 
HETATM    6  C   UNL     1       2.919  -1.296  -0.402  1.00  0.00     0.013 C 
HETATM    7  C   UNL     1       2.565  -1.647  -1.868  1.00  0.00    -0.045 C 
HETATM    8  C   UNL     1       3.108  -0.544  -2.803  1.00  0.00     0.041 C 
HETATM    9  C   UNL     1       1.049  -1.837  -2.071  1.00  0.00     0.015 C 
HETATM   10  C   UNL     1       3.232  -2.996  -2.210  1.00  0.00     0.015 C 
ENDBRANCH   1   2
BRANCH   1  11
HETATM   11  C   UNL     1       2.726   3.015  -3.385  1.00  0.00     0.296 C 
HETATM   12  O   UNL     1       1.740   3.404  -2.770  1.00  0.00    -0.259 OA
BRANCH  11  13
HETATM   13  C   UNL     1       3.484   3.879  -4.316  1.00  0.00     0.072 A 
HETATM   14  C   UNL     1       3.526   5.254  -4.033  1.00  0.00     0.020 A 
HETATM   15  C   UNL     1       4.218   6.124  -4.876  1.00  0.00     0.001 A 
HETATM   16  C   UNL     1       4.871   5.628  -6.004  1.00  0.00     0.003 A 
HETATM   17  C   UNL     1       4.822   4.265  -6.299  1.00  0.00     0.037 A 
HETATM   18  C   UNL     1       4.121   3.393  -5.464  1.00  0.00     0.082 A 
BRANCH  18  19
HETATM   19  O   UNL     1       4.032   2.075  -5.803  1.00  0.00    -0.360 OA
HETATM   20  H   UNL     1       4.584   1.900  -6.580  1.00  0.00     0.217 HD
ENDBRANCH  18  19
ENDBRANCH  11  13
ENDBRANCH   1  11
TORSDOF 4
