REMARK WARNING: 32 MAX_TORS EXCEEDED!!!
REMARK  36 active torsions:
REMARK  status: ('A' for Active; 'I' for Inactive)
REMARK    1  A    between atoms: C_2  and  C_3 
REMARK    2  A    between atoms: C_2  and  O_55 
REMARK    3  A    between atoms: C_3  and  O_4 
REMARK    4  A    between atoms: O_4  and  C_5 
REMARK    5  A    between atoms: C_5  and  C_6 
REMARK    6  A    between atoms: C_7  and  O_50 
REMARK    7  A    between atoms: C_8  and  O_45 
REMARK    8  A    between atoms: C_9  and  O_40 
REMARK    9  A    between atoms: C_10  and  O_12 
REMARK   10  A    between atoms: O_12  and  C_13 
REMARK   11  A    between atoms: C_14  and  C_34 
REMARK   12  A    between atoms: C_16  and  O_29 
REMARK   13  A    between atoms: C_17  and  O_24 
REMARK   14  A    between atoms: C_18  and  O_19 
REMARK   15  A    between atoms: O_19  and  C_20 
REMARK   16  A    between atoms: C_20  and  C_21 
REMARK   17  A    between atoms: C_21  and  O_23 
REMARK   18  A    between atoms: O_24  and  C_25 
REMARK   19  A    between atoms: C_25  and  C_26 
REMARK   20  A    between atoms: C_26  and  O_28 
REMARK   21  A    between atoms: O_29  and  C_30 
REMARK   22  A    between atoms: C_30  and  C_31 
REMARK   23  A    between atoms: C_31  and  O_33 
REMARK   24  A    between atoms: C_34  and  O_35 
REMARK   25  A    between atoms: O_35  and  C_36 
REMARK   26  A    between atoms: C_36  and  C_37 
REMARK   27  A    between atoms: C_37  and  O_39 
REMARK   28  A    between atoms: O_40  and  C_41 
REMARK   29  A    between atoms: C_41  and  C_42 
REMARK   30  A    between atoms: C_42  and  O_44 
REMARK   31  A    between atoms: O_45  and  C_46 
REMARK   32  A    between atoms: C_46  and  C_47 
REMARK   33  A    between atoms: C_47  and  O_49 
REMARK   34  A    between atoms: O_50  and  C_51 
REMARK   35  A    between atoms: C_51  and  C_52 
REMARK   36  A    between atoms: C_52  and  O_54 
ROOT
HETATM    1  O   UNL     1       3.317  -5.941   4.273  1.00  0.00    -0.348 OA
ENDROOT
BRANCH   1   2
HETATM    2  C   UNL     1       4.237  -4.837   4.284  1.00  0.00     0.292 C 
HETATM    3  C   UNL     1       3.541  -3.447   4.429  1.00  0.00     0.208 C 
HETATM    4  C   UNL     1       4.673  -2.379   4.323  1.00  0.00     0.186 C 
HETATM    5  C   UNL     1       5.231  -2.447   2.891  1.00  0.00     0.184 C 
HETATM    6  C   UNL     1       5.866  -3.836   2.692  1.00  0.00     0.180 C 
HETATM    7  O   UNL     1       5.206  -4.968   3.261  1.00  0.00    -0.348 OA
BRANCH   3   8
HETATM    8  O   UNL     1       2.311  -3.224   3.715  1.00  0.00    -0.376 OA
BRANCH   8   9
HETATM    9  C   UNL     1       2.212  -3.069   2.312  1.00  0.00     0.199 C 
BRANCH   9  10
HETATM   10  C   UNL     1       2.673  -4.265   1.479  1.00  0.00     0.138 C 
HETATM   11  C   UNL     1       1.618  -5.340   1.524  1.00  0.00     0.041 C 
BRANCH  10  12
HETATM   12  O   UNL     1       2.975  -3.845   0.152  1.00  0.00    -0.394 OA
HETATM   13  H   UNL     1       2.269  -4.160  -0.437  1.00  0.00     0.210 HD
ENDBRANCH  10  12
ENDBRANCH   9  10
ENDBRANCH   8   9
ENDBRANCH   3   8
BRANCH   4  14
HETATM   14  O   UNL     1       4.219  -1.100   4.781  1.00  0.00    -0.378 OA
BRANCH  14  15
HETATM   15  C   UNL     1       5.308  -0.196   5.042  1.00  0.00     0.199 C 
BRANCH  15  16
HETATM   16  C   UNL     1       4.918   0.873   6.071  1.00  0.00     0.138 C 
HETATM   17  C   UNL     1       3.602   1.560   5.752  1.00  0.00     0.041 C 
BRANCH  16  18
HETATM   18  O   UNL     1       4.839   0.292   7.375  1.00  0.00    -0.394 OA
HETATM   19  H   UNL     1       4.201  -0.442   7.318  1.00  0.00     0.210 HD
ENDBRANCH  16  18
ENDBRANCH  15  16
ENDBRANCH  14  15
ENDBRANCH   4  14
BRANCH   5  20
HETATM   20  O   UNL     1       6.119  -1.391   2.463  1.00  0.00    -0.378 OA
BRANCH  20  21
HETATM   21  C   UNL     1       6.176  -1.375   1.013  1.00  0.00     0.199 C 
BRANCH  21  22
HETATM   22  C   UNL     1       7.267  -0.443   0.482  1.00  0.00     0.138 C 
HETATM   23  C   UNL     1       7.510  -0.734  -0.996  1.00  0.00     0.041 C 
BRANCH  22  24
HETATM   24  O   UNL     1       6.893   0.928   0.607  1.00  0.00    -0.394 OA
HETATM   25  H   UNL     1       6.005   0.970   1.001  1.00  0.00     0.210 HD
ENDBRANCH  22  24
ENDBRANCH  21  22
ENDBRANCH  20  21
ENDBRANCH   5  20
BRANCH   6  26
HETATM   26  C   UNL     1       7.339  -3.792   3.107  1.00  0.00     0.202 C 
BRANCH  26  27
HETATM   27  O   UNL     1       7.962  -5.031   2.791  1.00  0.00    -0.386 OA
BRANCH  27  28
HETATM   28  C   UNL     1       9.350  -4.981   3.132  1.00  0.00     0.199 C 
BRANCH  28  29
HETATM   29  C   UNL     1       9.979  -6.322   2.772  1.00  0.00     0.138 C 
HETATM   30  C   UNL     1       9.893  -6.612   1.280  1.00  0.00     0.041 C 
BRANCH  29  31
HETATM   31  O   UNL     1       9.286  -7.353   3.479  1.00  0.00    -0.394 OA
HETATM   32  H   UNL     1       8.346  -7.247   3.235  1.00  0.00     0.210 HD
ENDBRANCH  29  31
ENDBRANCH  28  29
ENDBRANCH  27  28
ENDBRANCH  26  27
ENDBRANCH   6  26
ENDBRANCH   1   2
BRANCH   1  33
HETATM   33  C   UNL     1       3.839  -7.261   3.912  1.00  0.00     0.187 C 
HETATM   34  C   UNL     1       5.116  -7.727   4.717  1.00  0.00     0.180 C 
HETATM   35  O   UNL     1       5.278  -9.157   4.820  1.00  0.00    -0.348 OA
HETATM   36  C   UNL     1       4.104  -9.817   5.262  1.00  0.00     0.291 C 
HETATM   37  C   UNL     1       3.096  -9.775   4.094  1.00  0.00     0.208 C 
HETATM   38  C   UNL     1       2.645  -8.292   3.969  1.00  0.00     0.186 C 
BRANCH  34  39
HETATM   39  C   UNL     1       5.465  -7.116   6.097  1.00  0.00     0.202 C 
BRANCH  39  40
HETATM   40  O   UNL     1       4.338  -6.898   6.961  1.00  0.00    -0.386 OA
BRANCH  40  41
HETATM   41  C   UNL     1       4.713  -6.039   8.052  1.00  0.00     0.199 C 
BRANCH  41  42
HETATM   42  C   UNL     1       3.552  -5.690   8.997  1.00  0.00     0.138 C 
HETATM   43  C   UNL     1       3.041  -6.862   9.824  1.00  0.00     0.041 C 
BRANCH  42  44
HETATM   44  O   UNL     1       3.983  -4.658   9.896  1.00  0.00    -0.394 OA
HETATM   45  H   UNL     1       4.450  -5.072  10.642  1.00  0.00     0.210 HD
ENDBRANCH  42  44
ENDBRANCH  41  42
ENDBRANCH  40  41
ENDBRANCH  39  40
ENDBRANCH  34  39
BRANCH  36  46
HETATM   46  O   UNL     1       4.348 -11.180   5.618  1.00  0.00    -0.356 OA
BRANCH  46  47
HETATM   47  C   UNL     1       5.242 -11.337   6.720  1.00  0.00     0.202 C 
BRANCH  47  48
HETATM   48  C   UNL     1       5.513 -12.837   6.936  1.00  0.00     0.138 C 
HETATM   49  C   UNL     1       4.240 -13.661   7.095  1.00  0.00     0.041 C 
BRANCH  48  50
HETATM   50  O   UNL     1       6.247 -13.369   5.833  1.00  0.00    -0.394 OA
HETATM   51  H   UNL     1       5.751 -13.139   5.027  1.00  0.00     0.210 HD
ENDBRANCH  48  50
ENDBRANCH  47  48
ENDBRANCH  46  47
ENDBRANCH  36  46
BRANCH  37  52
HETATM   52  O   UNL     1       3.620 -10.311   2.833  1.00  0.00    -0.376 OA
BRANCH  52  53
HETATM   53  C   UNL     1       3.822 -11.741   2.900  1.00  0.00     0.199 C 
BRANCH  53  54
HETATM   54  C   UNL     1       4.279 -12.388   1.583  1.00  0.00     0.138 C 
HETATM   55  C   UNL     1       3.274 -12.257   0.452  1.00  0.00     0.041 C 
BRANCH  54  56
HETATM   56  O   UNL     1       5.518 -11.825   1.157  1.00  0.00    -0.394 OA
HETATM   57  H   UNL     1       5.440 -10.863   1.297  1.00  0.00     0.210 HD
ENDBRANCH  54  56
ENDBRANCH  53  54
ENDBRANCH  52  53
ENDBRANCH  37  52
BRANCH  38  58
HETATM   58  O   UNL     1       1.690  -8.123   2.863  1.00  0.00    -0.378 OA
BRANCH  58  59
HETATM   59  C   UNL     1       0.387  -8.646   3.194  1.00  0.00     0.199 C 
BRANCH  59  60
HETATM   60  C   UNL     1      -0.705  -8.508   2.108  1.00  0.00     0.138 C 
HETATM   61  C   UNL     1      -1.116  -7.093   1.746  1.00  0.00     0.041 C 
BRANCH  60  62
HETATM   62  O   UNL     1      -0.352  -9.210   0.918  1.00  0.00    -0.394 OA
HETATM   63  H   UNL     1       0.620  -9.292   0.906  1.00  0.00     0.210 HD
ENDBRANCH  60  62
ENDBRANCH  59  60
ENDBRANCH  58  59
ENDBRANCH  38  58
ENDBRANCH   1  33
TORSDOF 36
