REMARK  27 active torsions:
REMARK  status: ('A' for Active; 'I' for Inactive)
REMARK    1  A    between atoms: C_2  and  C_3 
REMARK    2  A    between atoms: C_3  and  O_4 
REMARK    3  A    between atoms: C_3  and  O_5 
REMARK    4  A    between atoms: O_5  and  C_6 
REMARK    5  A    between atoms: C_7  and  O_70 
REMARK    6  A    between atoms: C_10  and  C_68 
REMARK    7  A    between atoms: C_14  and  O_67 
REMARK    8  A    between atoms: C_15  and  O_66 
REMARK    9  A    between atoms: C_17  and  C_19 
REMARK   10  A    between atoms: C_19  and  O_20 
REMARK   11  A    between atoms: C_23  and  O_65 
REMARK   12  A    between atoms: C_24  and  O_64 
REMARK   13  A    between atoms: C_26  and  C_28 
REMARK   14  A    between atoms: C_28  and  O_29 
REMARK   15  A    between atoms: C_32  and  O_63 
REMARK   16  A    between atoms: C_33  and  O_62 
REMARK   17  A    between atoms: C_35  and  C_37 
REMARK   18  A    between atoms: C_37  and  O_38 
REMARK   19  A    between atoms: C_41  and  O_61 
REMARK   20  A    between atoms: C_42  and  O_60 
REMARK   21  A    between atoms: C_44  and  C_46 
REMARK   22  A    between atoms: C_46  and  O_47 
REMARK   23  A    between atoms: C_50  and  O_59 
REMARK   24  A    between atoms: C_51  and  O_58 
REMARK   25  A    between atoms: C_54  and  C_56 
REMARK   26  A    between atoms: C_56  and  O_57 
REMARK   27  A    between atoms: C_68  and  O_69 
ROOT
HETATM    1  C   UNL     1       4.717  -2.446   1.086  1.00  0.00     0.189 C 
HETATM    2  C   UNL     1       3.646  -3.530   0.332  1.00  0.00     0.205 C 
HETATM    3  C   UNL     1       4.224  -4.072  -1.076  1.00  0.00     0.292 C 
HETATM    4  O   UNL     1       5.671  -4.754  -0.473  1.00  0.00    -0.348 OA
HETATM    5  C   UNL     1       6.181  -4.234   1.021  1.00  0.00     0.180 C 
HETATM    6  C   UNL     1       6.359  -2.798   0.704  1.00  0.00     0.187 C 
HETATM    7  O   UNL     1       7.623  -2.006   0.702  1.00  0.00    -0.348 OA
HETATM    8  C   UNL     1       8.736  -2.016  -0.532  1.00  0.00     0.292 C 
HETATM    9  C   UNL     1       8.538  -1.071  -1.774  1.00  0.00     0.204 C 
HETATM   10  C   UNL     1       8.264  -1.976  -3.003  1.00  0.00     0.183 C 
HETATM   11  C   UNL     1       8.194  -3.367  -3.620  1.00  0.00     0.187 C 
HETATM   12  C   UNL     1       8.932  -4.089  -2.333  1.00  0.00     0.180 C 
HETATM   13  O   UNL     1       9.372  -3.273  -1.037  1.00  0.00    -0.348 OA
HETATM   14  O   UNL     1       8.011  -3.403  -5.237  1.00  0.00    -0.348 OA
HETATM   15  C   UNL     1       6.561  -3.837  -6.110  1.00  0.00     0.292 C 
HETATM   16  C   UNL     1       5.114  -2.650  -7.077  1.00  0.00     0.204 C 
HETATM   17  C   UNL     1       3.208  -2.888  -6.473  1.00  0.00     0.183 C 
HETATM   18  C   UNL     1       2.778  -4.231  -5.144  1.00  0.00     0.187 C 
HETATM   19  C   UNL     1       4.231  -5.351  -4.513  1.00  0.00     0.180 C 
HETATM   20  O   UNL     1       5.900  -5.226  -5.184  1.00  0.00    -0.348 OA
HETATM   21  O   UNL     1       1.349  -4.515  -4.935  1.00  0.00    -0.348 OA
HETATM   22  C   UNL     1       0.403  -3.678  -4.067  1.00  0.00     0.292 C 
HETATM   23  C   UNL     1       0.279  -2.126  -4.142  1.00  0.00     0.204 C 
HETATM   24  C   UNL     1       1.084  -1.458  -3.044  1.00  0.00     0.183 C 
HETATM   25  C   UNL     1       0.904  -1.677  -1.573  1.00  0.00     0.187 C 
HETATM   26  C   UNL     1       0.828  -3.343  -1.564  1.00  0.00     0.180 C 
HETATM   27  O   UNL     1       0.207  -4.062  -2.685  1.00  0.00    -0.348 OA
HETATM   28  O   UNL     1       2.088  -1.067  -0.830  1.00  0.00    -0.348 OA
HETATM   29  C   UNL     1       2.782   0.257  -0.595  1.00  0.00     0.292 C 
HETATM   30  C   UNL     1       3.153   1.655  -1.346  1.00  0.00     0.204 C 
HETATM   31  C   UNL     1       3.892   1.562  -2.711  1.00  0.00     0.183 C 
HETATM   32  C   UNL     1       4.871   0.388  -2.772  1.00  0.00     0.187 C 
HETATM   33  C   UNL     1       4.585  -0.629  -1.752  1.00  0.00     0.180 C 
HETATM   34  O   UNL     1       4.209  -0.082  -0.515  1.00  0.00    -0.348 OA
HETATM   35  O   UNL     1       6.059   0.341  -3.550  1.00  0.00    -0.348 OA
HETATM   36  C   UNL     1       6.072  -0.333  -4.953  1.00  0.00     0.292 C 
HETATM   37  C   UNL     1       5.032   0.355  -5.654  1.00  0.00     0.204 C 
HETATM   38  C   UNL     1       3.845  -0.555  -5.195  1.00  0.00     0.183 C 
HETATM   39  C   UNL     1       4.147  -2.206  -4.119  1.00  0.00     0.187 C 
HETATM   40  O   UNL     1       3.740  -3.037  -2.519  1.00  0.00    -0.348 OA
HETATM   41  C   UNL     1       4.914  -3.108  -5.041  1.00  0.00     0.180 C 
HETATM   42  O   UNL     1       5.996  -1.842  -5.309  1.00  0.00    -0.348 OA
ENDROOT
BRANCH   1  43
HETATM   43  O   UNL     1       4.348  -1.667   2.224  1.00  0.00    -0.351 OA
BRANCH  43  44
HETATM   44  C   UNL     1       3.521  -2.174   3.244  1.00  0.00     0.257 C 
BRANCH  44  45
HETATM   45  C   UNL     1       2.803  -1.024   3.972  1.00  0.00     0.056 C 
HETATM   46  C   UNL     1       2.209  -1.554   5.272  1.00  0.00     0.010 C 
ENDBRANCH  44  45
BRANCH  44  47
HETATM   47  O   UNL     1       2.529  -3.078   2.833  1.00  0.00    -0.371 OA
HETATM   48  H   UNL     1       1.735  -2.593   2.569  1.00  0.00     0.212 HD
ENDBRANCH  44  47
ENDBRANCH  43  44
ENDBRANCH   1  43
BRANCH   2  49
HETATM   49  O   UNL     1       3.363  -4.715   1.121  1.00  0.00    -0.388 OA
HETATM   50  H   UNL     1       3.933  -5.458   0.845  1.00  0.00     0.210 HD
ENDBRANCH   2  49
BRANCH   5  51
HETATM   51  C   UNL     1       7.328  -4.510   2.036  1.00  0.00     0.198 C 
BRANCH  51  52
HETATM   52  O   UNL     1       7.118  -5.682   2.820  1.00  0.00    -0.398 OA
HETATM   53  H   UNL     1       6.479  -5.460   3.528  1.00  0.00     0.209 HD
ENDBRANCH  51  52
ENDBRANCH   5  51
BRANCH   9  54
HETATM   54  O   UNL     1       9.444  -0.037  -2.187  1.00  0.00    -0.388 OA
HETATM   55  H   UNL     1       8.909   0.578  -2.745  1.00  0.00     0.210 HD
ENDBRANCH   9  54
BRANCH  38  56
HETATM   56  O   UNL     1       3.019  -0.422  -6.396  1.00  0.00    -0.390 OA
HETATM   57  H   UNL     1       3.542   0.112  -7.054  1.00  0.00     0.210 HD
ENDBRANCH  38  56
BRANCH  41  58
HETATM   58  C   UNL     1       4.467  -4.610  -6.514  1.00  0.00     0.198 C 
BRANCH  58  59
HETATM   59  O   UNL     1       5.402  -5.090  -7.614  1.00  0.00    -0.398 OA
HETATM   60  H   UNL     1       5.240  -4.549  -8.438  1.00  0.00     0.209 HD
ENDBRANCH  58  59
ENDBRANCH  41  58
BRANCH  10  61
HETATM   61  O   UNL     1       7.466  -1.238  -3.748  1.00  0.00    -0.390 OA
HETATM   62  H   UNL     1       6.828  -0.832  -3.122  1.00  0.00     0.210 HD
ENDBRANCH  10  61
BRANCH  12  63
HETATM   63  C   UNL     1      10.026  -5.072  -2.673  1.00  0.00     0.198 C 
BRANCH  63  64
HETATM   64  O   UNL     1      10.738  -5.415  -1.483  1.00  0.00    -0.398 OA
HETATM   65  H   UNL     1      10.748  -4.598  -0.939  1.00  0.00     0.209 HD
ENDBRANCH  63  64
ENDBRANCH  12  63
BRANCH  37  66
HETATM   66  O   UNL     1       5.258   0.448  -7.073  1.00  0.00    -0.388 OA
HETATM   67  H   UNL     1       6.226   0.341  -7.255  1.00  0.00     0.210 HD
ENDBRANCH  37  66
BRANCH  16  68
HETATM   68  O   UNL     1       4.959  -2.895  -8.541  1.00  0.00    -0.388 OA
HETATM   69  H   UNL     1       4.087  -2.481  -8.763  1.00  0.00     0.210 HD
ENDBRANCH  16  68
BRANCH  31  70
HETATM   70  O   UNL     1       4.479   2.729  -3.252  1.00  0.00    -0.390 OA
HETATM   71  H   UNL     1       4.107   2.851  -4.148  1.00  0.00     0.210 HD
ENDBRANCH  31  70
BRANCH  33  72
HETATM   72  C   UNL     1       5.558  -1.688  -1.584  1.00  0.00     0.198 C 
BRANCH  72  73
HETATM   73  O   UNL     1       5.914  -2.704  -2.450  1.00  0.00    -0.398 OA
HETATM   74  H   UNL     1       5.253  -3.407  -2.570  1.00  0.00     0.209 HD
ENDBRANCH  72  73
ENDBRANCH  33  72
BRANCH  17  75
HETATM   75  O   UNL     1       2.284  -2.666  -7.557  1.00  0.00    -0.390 OA
HETATM   76  H   UNL     1       2.000  -1.724  -7.436  1.00  0.00     0.210 HD
ENDBRANCH  17  75
BRANCH  19  77
HETATM   77  C   UNL     1       3.856  -6.839  -4.591  1.00  0.00     0.198 C 
BRANCH  77  78
HETATM   78  O   UNL     1       3.126  -7.170  -3.421  1.00  0.00    -0.398 OA
HETATM   79  H   UNL     1       3.780  -7.380  -2.733  1.00  0.00     0.209 HD
ENDBRANCH  77  78
ENDBRANCH  19  77
BRANCH  30  80
HETATM   80  O   UNL     1       4.133   2.362  -0.502  1.00  0.00    -0.388 OA
HETATM   81  H   UNL     1       4.930   1.786  -0.440  1.00  0.00     0.210 HD
ENDBRANCH  30  80
BRANCH  23  82
HETATM   82  O   UNL     1      -1.060  -1.642  -3.915  1.00  0.00    -0.388 OA
HETATM   83  H   UNL     1      -0.979  -0.670  -3.808  1.00  0.00     0.210 HD
ENDBRANCH  23  82
BRANCH  24  84
HETATM   84  O   UNL     1       1.198  -0.085  -3.306  1.00  0.00    -0.390 OA
HETATM   85  H   UNL     1       2.153  -0.023  -3.264  1.00  0.00     0.210 HD
ENDBRANCH  24  84
BRANCH  26  86
HETATM   86  C   UNL     1       0.131  -3.916  -0.311  1.00  0.00     0.198 C 
BRANCH  86  87
HETATM   87  O   UNL     1       0.168  -5.350  -0.317  1.00  0.00    -0.398 OA
HETATM   88  H   UNL     1      -0.408  -5.646  -1.050  1.00  0.00     0.209 HD
ENDBRANCH  86  87
ENDBRANCH  26  86
TORSDOF 27
