REMARK WARNING: 32 MAX_TORS EXCEEDED!!!
REMARK  41 active torsions:
REMARK  status: ('A' for Active; 'I' for Inactive)
REMARK    1  A    between atoms: C_2  and  C_3 
REMARK    2  A    between atoms: C_3  and  C_4 
REMARK    3  A    between atoms: C_4  and  C_5 
REMARK    4  A    between atoms: C_5  and  C_6 
REMARK    5  A    between atoms: C_6  and  C_7 
REMARK    6  A    between atoms: C_7  and  C_8 
REMARK    7  A    between atoms: C_8  and  C_9 
REMARK    8  A    between atoms: C_9  and  C_10 
REMARK    9  A    between atoms: C_10  and  C_11 
REMARK   10  A    between atoms: C_11  and  C_12 
REMARK   11  A    between atoms: C_12  and  C_13 
REMARK   12  A    between atoms: C_13  and  C_14 
REMARK   13  A    between atoms: C_14  and  C_15 
REMARK   14  A    between atoms: C_15  and  C_16 
REMARK   15  A    between atoms: C_16  and  O_17 
REMARK   16  A    between atoms: C_16  and  N_19 
REMARK   17  A    between atoms: N_19  and  C_20 
REMARK   18  A    between atoms: N_19  and  C_23 
REMARK   19  A    between atoms: C_20  and  C_21 
REMARK   20  A    between atoms: C_21  and  O_22 
REMARK   21  A    between atoms: C_23  and  C_24 
REMARK   22  A    between atoms: C_24  and  C_25 
REMARK   23  A    between atoms: C_24  and  O_47 
REMARK   24  A    between atoms: C_25  and  N_26 
REMARK   25  A    between atoms: N_26  and  C_27 
REMARK       I    between atoms: N_26  and  C_30 
REMARK   26  A    between atoms: C_27  and  C_28 
REMARK   27  A    between atoms: C_28  and  O_29 
REMARK   28  A    between atoms: C_30  and  C_32 
REMARK   29  A    between atoms: C_32  and  C_33 
REMARK   30  A    between atoms: C_33  and  C_34 
REMARK   31  A    between atoms: C_34  and  C_35 
REMARK   32  A    between atoms: C_35  and  C_36 
REMARK   33  A    between atoms: C_36  and  C_37 
REMARK   34  A    between atoms: C_37  and  C_38 
REMARK   35  A    between atoms: C_38  and  C_39 
REMARK   36  A    between atoms: C_39  and  C_40 
REMARK   37  A    between atoms: C_40  and  C_41 
REMARK   38  A    between atoms: C_41  and  C_42 
REMARK   39  A    between atoms: C_42  and  C_43 
REMARK   40  A    between atoms: C_43  and  C_44 
REMARK   41  A    between atoms: C_44  and  C_45 
ROOT
HETATM    1  C   UNL     1      19.654  -7.732 -10.020  1.00  0.00     0.154 C 
ENDROOT
BRANCH   1   2
HETATM    2  C   UNL     1      18.853  -6.866  -8.918  1.00  0.00     0.158 C 
BRANCH   2   3
HETATM    3  N   UNL     1      18.754  -5.283  -8.703  1.00  0.00    -0.361 N 
BRANCH   3   4
HETATM    4  C   UNL     1      17.961  -4.812  -7.690  1.00  0.00     0.113 C 
BRANCH   4   5
HETATM    5  C   UNL     1      17.280  -5.856  -6.903  1.00  0.00     0.084 C 
BRANCH   5   6
HETATM    6  C   UNL     1      16.506  -5.509  -5.686  1.00  0.00     0.008 C 
BRANCH   6   7
HETATM    7  C   UNL     1      15.985  -6.831  -5.147  1.00  0.00     0.000 C 
BRANCH   7   8
HETATM    8  C   UNL     1      15.224  -6.448  -3.923  1.00  0.00     0.000 C 
BRANCH   8   9
HETATM    9  C   UNL     1      14.626  -7.649  -3.257  1.00  0.00     0.000 C 
BRANCH   9  10
HETATM   10  C   UNL     1      13.891  -7.119  -2.050  1.00  0.00     0.000 C 
BRANCH  10  11
HETATM   11  C   UNL     1      13.258  -8.266  -1.315  1.00  0.00     0.000 C 
BRANCH  11  12
HETATM   12  C   UNL     1      12.525  -7.725  -0.111  1.00  0.00     0.000 C 
BRANCH  12  13
HETATM   13  C   UNL     1      11.891  -8.882   0.624  1.00  0.00     0.000 C 
BRANCH  13  14
HETATM   14  C   UNL     1      11.155  -8.354   1.835  1.00  0.00     0.000 C 
BRANCH  14  15
HETATM   15  C   UNL     1      10.514  -9.506   2.580  1.00  0.00     0.000 C 
BRANCH  15  16
HETATM   16  C   UNL     1       9.777  -8.977   3.795  1.00  0.00     0.000 C 
BRANCH  16  17
HETATM   17  C   UNL     1       9.132 -10.128   4.547  1.00  0.00    -0.000 C 
BRANCH  17  18
HETATM   18  C   UNL     1       8.387  -9.614   5.769  1.00  0.00    -0.005 C 
HETATM   19  C   UNL     1       7.742 -10.764   6.517  1.00  0.00     0.005 C 
ENDBRANCH  17  18
ENDBRANCH  16  17
ENDBRANCH  15  16
ENDBRANCH  14  15
ENDBRANCH  13  14
ENDBRANCH  12  13
ENDBRANCH  11  12
ENDBRANCH  10  11
ENDBRANCH   9  10
ENDBRANCH   8   9
ENDBRANCH   7   8
ENDBRANCH   6   7
ENDBRANCH   5   6
ENDBRANCH   4   5
BRANCH   4  20
HETATM   20  O   UNL     1      17.875  -3.535  -7.366  1.00  0.00    -0.349 OA
ATOM     21  HO  UNL     1      18.314  -2.862  -7.873  1.00  0.00     0.219 HD
ENDBRANCH   4  20
ENDBRANCH   3   4
BRANCH   3  22
HETATM   22  C   UNL     1      19.395  -4.291  -9.585  1.00  0.00     0.150 C 
BRANCH  22  23
HETATM   23  C   UNL     1      19.694  -2.720  -9.521  1.00  0.00     0.183 C 
BRANCH  23  24
HETATM   24  O   UNL     1      20.293  -2.192  -8.358  1.00  0.00    -0.399 OA
HETATM   25  H   UNL     1      19.572  -2.113  -7.711  1.00  0.00     0.209 HD
ENDBRANCH  23  24
ENDBRANCH  22  23
ENDBRANCH   3  22
ENDBRANCH   2   3
ENDBRANCH   1   2
BRANCH   1  26
HETATM   26  C   UNL     1      19.121  -7.619 -11.437  1.00  0.00     0.159 C 
BRANCH  26  27
HETATM   27  N   UNL     1      19.832  -8.466 -12.427  1.00  0.00    -0.348 N 
HETATM   28  C   UNL     1      20.584  -7.684 -13.378  1.00  0.00     0.219 C 
HETATM   29  O   UNL     1      20.573  -6.452 -13.383  1.00  0.00    -0.273 OA
BRANCH  27  30
HETATM   30  C   UNL     1      19.906 -10.003 -12.228  1.00  0.00     0.151 C 
BRANCH  30  31
HETATM   31  C   UNL     1      18.594 -11.024 -12.234  1.00  0.00     0.183 C 
BRANCH  31  32
HETATM   32  O   UNL     1      17.556 -10.864 -11.255  1.00  0.00    -0.399 OA
HETATM   33  H   UNL     1      17.633 -11.607 -10.628  1.00  0.00     0.209 HD
ENDBRANCH  31  32
ENDBRANCH  30  31
ENDBRANCH  27  30
BRANCH  28  34
HETATM   34  C   UNL     1      21.358  -8.393 -14.492  1.00  0.00     0.103 C 
BRANCH  34  35
HETATM   35  C   UNL     1      22.102  -7.484 -15.495  1.00  0.00     0.009 C 
BRANCH  35  36
HETATM   36  C   UNL     1      23.202  -6.632 -14.860  1.00  0.00     0.000 C 
BRANCH  36  37
HETATM   37  C   UNL     1      23.891  -5.794 -15.931  1.00  0.00     0.000 C 
BRANCH  37  38
HETATM   38  C   UNL     1      24.992  -4.907 -15.364  1.00  0.00     0.000 C 
BRANCH  38  39
HETATM   39  C   UNL     1      25.633  -4.105 -16.491  1.00  0.00     0.000 C 
BRANCH  39  40
HETATM   40  C   UNL     1      26.736  -3.210 -15.953  1.00  0.00     0.000 C 
BRANCH  40  41
HETATM   41  C   UNL     1      27.366  -2.415 -17.086  1.00  0.00     0.000 C 
BRANCH  41  42
HETATM   42  C   UNL     1      28.468  -1.522 -16.544  1.00  0.00     0.000 C 
BRANCH  42  43
HETATM   43  C   UNL     1      29.097  -0.726 -17.674  1.00  0.00     0.000 C 
BRANCH  43  44
HETATM   44  C   UNL     1      30.199   0.168 -17.132  1.00  0.00     0.000 C 
BRANCH  44  45
HETATM   45  C   UNL     1      30.831   0.966 -18.261  1.00  0.00     0.000 C 
BRANCH  45  46
HETATM   46  C   UNL     1      31.934   1.863 -17.719  1.00  0.00    -0.000 C 
BRANCH  46  47
HETATM   47  C   UNL     1      32.572   2.668 -18.843  1.00  0.00    -0.005 C 
HETATM   48  C   UNL     1      33.672   3.562 -18.301  1.00  0.00     0.005 C 
ENDBRANCH  46  47
ENDBRANCH  45  46
ENDBRANCH  44  45
ENDBRANCH  43  44
ENDBRANCH  42  43
ENDBRANCH  41  42
ENDBRANCH  40  41
ENDBRANCH  39  40
ENDBRANCH  38  39
ENDBRANCH  37  38
ENDBRANCH  36  37
ENDBRANCH  35  36
ENDBRANCH  34  35
ENDBRANCH  28  34
ENDBRANCH  26  27
ENDBRANCH   1  26
BRANCH   1  49
HETATM   49  O   UNL     1      21.075  -7.606  -9.995  1.00  0.00    -0.392 OA
HETATM   50  H   UNL     1      21.273  -6.721  -9.656  1.00  0.00     0.210 HD
ENDBRANCH   1  49
TORSDOF 41
