REMARK  9 active torsions:
REMARK  status: ('A' for Active; 'I' for Inactive)
REMARK    1  A    between atoms: C_7  and  C_10 
REMARK    2  A    between atoms: C_10  and  C_11 
REMARK       I    between atoms: C_11  and  N_14 
REMARK    3  A    between atoms: N_14  and  CA_15 
REMARK    4  A    between atoms: CA_15  and  CB_16 
REMARK    5  A    between atoms: CA_15  and  C_21 
REMARK    6  A    between atoms: CB_16  and  CG_17 
REMARK    7  A    between atoms: CG_17  and  CD_18 
REMARK    8  A    between atoms: CD_18  and  OE2_20 
REMARK    9  A    between atoms: C_21  and  OXT_23 
ROOT
HETATM    1  C   UNK A   0      -0.943  -3.727  -0.572  1.00  0.00     0.222 C 
HETATM    2  O   UNK A   0      -0.032  -3.503  -1.364  1.00  0.00    -0.273 OA
ATOM      3  N   GLU A   1      -1.062  -4.926   0.089  1.00  0.00    -0.346 N 
ATOM      4  H   GLU A   1      -1.872  -5.106   0.677  1.00  0.00     0.163 HD
ENDROOT
BRANCH   1   5
HETATM    5  C   UNK A   0      -1.971  -2.672  -0.197  1.00  0.00     0.143 C 
BRANCH   5   6
HETATM    6  C   UNK A   0      -3.257  -2.758  -0.957  1.00  0.00    -0.022 A 
HETATM    7  C   UNK A   0      -3.465  -2.603  -2.373  1.00  0.00    -0.001 A 
HETATM    8  C   UNK A   0      -4.840  -2.688  -2.603  1.00  0.00     0.042 A 
HETATM    9  C   UNK A   0      -2.620  -2.377  -3.477  1.00  0.00     0.014 A 
HETATM   10  C   UNK A   0      -5.409  -2.574  -3.878  1.00  0.00     0.030 A 
HETATM   11  N   UNK A   0      -5.447  -2.879  -1.385  1.00  0.00    -0.365 N 
HETATM   12  C   UNK A   0      -4.547  -2.364  -4.956  1.00  0.00     0.002 A 
HETATM   13  C   UNK A   0      -3.172  -2.264  -4.761  1.00  0.00     0.001 A 
HETATM   14  C   UNK A   0      -4.509  -2.924  -0.390  1.00  0.00     0.097 A 
HETATM   15  H   UNK A   0      -6.446  -2.953  -1.252  1.00  0.00     0.165 HD
ENDBRANCH   5   6
ENDBRANCH   1   5
BRANCH   3  16
ATOM     16  CA  GLU A   1      -0.100  -6.010  -0.109  1.00  0.00     0.182 C 
BRANCH  16  17
ATOM     17  CB  GLU A   1       1.085  -5.863   0.865  1.00  0.00     0.046 C 
BRANCH  17  18
ATOM     18  CG  GLU A   1       2.144  -6.958   0.747  1.00  0.00     0.112 C 
BRANCH  18  19
ATOM     19  CD  GLU A   1       2.700  -7.017  -0.650  1.00  0.00     0.139 C 
ATOM     20  OE1 GLU A   1       2.120  -7.590  -1.562  1.00  0.00    -0.650 OA
BRANCH  19  21
ATOM     21  OE2 GLU A   1       3.838  -6.314  -0.820  1.00  0.00    -0.776 OA
ATOM     22  HE2 GLU A   1       4.158  -5.850  -0.022  1.00  0.00     0.167 HD
ENDBRANCH  19  21
ENDBRANCH  18  19
ENDBRANCH  17  18
ENDBRANCH  16  17
BRANCH  16  23
ATOM     23  C   GLU A   1      -0.828  -7.335   0.119  1.00  0.00     0.163 C 
ATOM     24  O   GLU A   1      -1.481  -7.578   1.127  1.00  0.00    -0.648 OA
BRANCH  23  25
ATOM     25  OXT GLU A   1      -0.696  -8.223  -0.891  1.00  0.00    -0.775 OA
ATOM     26  HXT GLU A   1      -0.106  -7.932  -1.622  1.00  0.00     0.167 HD
ENDBRANCH  23  25
ENDBRANCH  16  23
ENDBRANCH   3  16
TORSDOF 9
