REMARK  10 active torsions:
REMARK  status: ('A' for Active; 'I' for Inactive)
REMARK    1  A    between atoms: C_2  and  C_4 
REMARK    2  A    between atoms: C_4  and  C_5 
REMARK    3  A    between atoms: C_5  and  C_6 
REMARK    4  A    between atoms: C_6  and  C_7 
REMARK    5  A    between atoms: C_7  and  C_8 
REMARK    6  A    between atoms: C_8  and  C_9 
REMARK    7  A    between atoms: C_9  and  C_10 
REMARK    8  A    between atoms: C_10  and  O_11 
REMARK    9  A    between atoms: O_11  and  C_12 
REMARK   10  A    between atoms: C_12  and  C_14 
ROOT
HETATM    1  C   UNL     1       8.738  -4.371  -0.046  1.00  0.00     0.027 C 
ENDROOT
BRANCH   1   2
HETATM    2  C   UNL     1       7.214  -4.323  -0.069  1.00  0.00     0.002 C 
BRANCH   2   3
HETATM    3  C   UNL     1       6.678  -2.892  -0.039  1.00  0.00     0.000 C 
BRANCH   3   4
HETATM    4  C   UNL     1       7.127  -2.068  -1.248  1.00  0.00     0.000 C 
BRANCH   4   5
HETATM    5  C   UNL     1       6.560  -0.656  -1.184  1.00  0.00     0.000 C 
BRANCH   5   6
HETATM    6  C   UNL     1       7.014   0.171  -2.388  1.00  0.00     0.004 C 
BRANCH   6   7
HETATM    7  C   UNL     1       6.487   1.615  -2.352  1.00  0.00    -0.023 C 
HETATM    8  C   UNL     1       6.996   2.383  -3.571  1.00  0.00     0.009 C 
HETATM    9  C   UNL     1       4.959   1.674  -2.302  1.00  0.00     0.009 C 
ENDBRANCH   6   7
ENDBRANCH   5   6
ENDBRANCH   4   5
ENDBRANCH   3   4
ENDBRANCH   2   3
ENDBRANCH   1   2
BRANCH   1  10
HETATM   10  C   UNL     1       9.266  -5.798  -0.106  1.00  0.00     0.178 C 
BRANCH  10  11
HETATM   11  O   UNL     1      10.699  -5.775  -0.141  1.00  0.00    -0.321 OA
BRANCH  11  12
HETATM   12  C   UNL     1      11.251  -5.524  -1.366  1.00  0.00     0.266 C 
HETATM   13  O   UNL     1      10.603  -5.359  -2.395  1.00  0.00    -0.264 OA
BRANCH  12  14
HETATM   14  C   UNL     1      12.775  -5.469  -1.284  1.00  0.00     0.037 C 
HETATM   15  C   UNL     1      13.301  -6.838  -0.833  1.00  0.00     0.025 C 
HETATM   16  C   UNL     1      13.341  -5.139  -2.675  1.00  0.00     0.025 C 
HETATM   17  C   UNL     1      13.214  -4.379  -0.297  1.00  0.00     0.025 C 
ENDBRANCH  12  14
ENDBRANCH  11  12
ENDBRANCH  10  11
ENDBRANCH   1  10
TORSDOF 10
