REMARK  8 active torsions:
REMARK  status: ('A' for Active; 'I' for Inactive)
REMARK    1  A    between atoms: C_2  and  C_3 
REMARK    2  A    between atoms: C_3  and  C_4 
REMARK    3  A    between atoms: C_4  and  C_5 
REMARK    4  A    between atoms: C_5  and  C_6 
REMARK    5  A    between atoms: C_6  and  C_7 
REMARK    6  A    between atoms: C_7  and  C_8 
REMARK    7  A    between atoms: C_8  and  C_9 
REMARK    8  A    between atoms: C_9  and  C_10 
ROOT
HETATM    1  C   UNL     1       6.508  -2.112   1.814  1.00  0.00     0.000 C 
ENDROOT
BRANCH   1   2
HETATM    2  C   UNL     1       4.982  -2.084   1.809  1.00  0.00     0.000 C 
BRANCH   2   3
HETATM    3  C   UNL     1       4.459  -0.997   0.870  1.00  0.00     0.000 C 
BRANCH   3   4
HETATM    4  C   UNL     1       2.933  -0.969   0.864  1.00  0.00    -0.000 C 
BRANCH   4   5
HETATM    5  C   UNL     1       2.401   0.112  -0.075  1.00  0.00    -0.005 C 
HETATM    6  C   UNL     1       0.882   0.137  -0.077  1.00  0.00     0.005 C 
ENDBRANCH   4   5
ENDBRANCH   3   4
ENDBRANCH   2   3
ENDBRANCH   1   2
BRANCH   1   7
HETATM    7  C   UNL     1       7.042  -3.195   2.751  1.00  0.00     0.000 C 
BRANCH   7   8
HETATM    8  C   UNL     1       8.570  -3.191   2.752  1.00  0.00     0.000 C 
BRANCH   8   9
HETATM    9  C   UNL     1       9.137  -4.255   3.693  1.00  0.00     0.004 C 
BRANCH   9  10
HETATM   10  C   UNL     1      10.675  -4.298   3.700  1.00  0.00    -0.023 C 
HETATM   11  C   UNL     1      11.294  -2.979   4.166  1.00  0.00     0.009 C 
HETATM   12  C   UNL     1      11.156  -5.440   4.598  1.00  0.00     0.009 C 
ENDBRANCH   9  10
ENDBRANCH   8   9
ENDBRANCH   7   8
ENDBRANCH   1   7
TORSDOF 8
