REMARK  16 active torsions:
REMARK  status: ('A' for Active; 'I' for Inactive)
REMARK    1  A    between atoms: C_2  and  C_3 
REMARK    2  A    between atoms: C_3  and  C_4 
REMARK    3  A    between atoms: C_4  and  C_5 
REMARK    4  A    between atoms: C_5  and  C_6 
REMARK    5  A    between atoms: C_6  and  C_7 
REMARK    6  A    between atoms: C_7  and  C_8 
REMARK    7  A    between atoms: C_8  and  C_9 
REMARK    8  A    between atoms: C_9  and  C_10 
REMARK    9  A    between atoms: C_10  and  C_11 
REMARK   10  A    between atoms: C_11  and  C_12 
REMARK   11  A    between atoms: C_12  and  C_13 
REMARK   12  A    between atoms: C_13  and  C_14 
REMARK   13  A    between atoms: C_14  and  C_15 
REMARK   14  A    between atoms: C_15  and  C_16 
REMARK   15  A    between atoms: C_16  and  C_17 
REMARK   16  A    between atoms: C_17  and  C_18 
ROOT
HETATM    1  C   UNL     1      10.547  -4.662   3.363  1.00  0.00     0.000 C 
ENDROOT
BRANCH   1   2
HETATM    2  C   UNL     1       9.028  -4.655   3.357  1.00  0.00     0.000 C 
BRANCH   2   3
HETATM    3  C   UNL     1       8.515  -3.507   2.506  1.00  0.00     0.000 C 
BRANCH   3   4
HETATM    4  C   UNL     1       6.996  -3.500   2.497  1.00  0.00     0.000 C 
BRANCH   4   5
HETATM    5  C   UNL     1       6.480  -2.351   1.646  1.00  0.00     0.000 C 
BRANCH   5   6
HETATM    6  C   UNL     1       4.961  -2.343   1.640  1.00  0.00     0.000 C 
BRANCH   6   7
HETATM    7  C   UNL     1       4.440  -1.191   0.787  1.00  0.00     0.000 C 
BRANCH   7   8
HETATM    8  C   UNL     1       2.916  -1.181   0.778  1.00  0.00    -0.000 C 
BRANCH   8   9
HETATM    9  C   UNL     1       2.384  -0.035  -0.072  1.00  0.00    -0.005 C 
HETATM   10  C   UNL     1       0.865  -0.031  -0.077  1.00  0.00     0.005 C 
ENDBRANCH   8   9
ENDBRANCH   7   8
ENDBRANCH   6   7
ENDBRANCH   5   6
ENDBRANCH   4   5
ENDBRANCH   3   4
ENDBRANCH   2   3
ENDBRANCH   1   2
BRANCH   1  11
HETATM   11  C   UNL     1      11.057  -5.812   4.212  1.00  0.00     0.000 C 
BRANCH  11  12
HETATM   12  C   UNL     1      12.575  -5.823   4.221  1.00  0.00     0.000 C 
BRANCH  12  13
HETATM   13  C   UNL     1      13.080  -6.979   5.067  1.00  0.00     0.000 C 
BRANCH  13  14
HETATM   14  C   UNL     1      14.598  -6.995   5.074  1.00  0.00     0.000 C 
BRANCH  14  15
HETATM   15  C   UNL     1      15.113  -8.149   5.920  1.00  0.00     0.000 C 
BRANCH  15  16
HETATM   16  C   UNL     1      16.634  -8.135   5.928  1.00  0.00     0.000 C 
BRANCH  16  17
HETATM   17  C   UNL     1      17.191  -9.266   6.786  1.00  0.00     0.004 C 
BRANCH  17  18
HETATM   18  C   UNL     1      18.727  -9.287   6.799  1.00  0.00    -0.023 C 
HETATM   19  C   UNL     1      19.320  -7.999   7.373  1.00  0.00     0.009 C 
HETATM   20  C   UNL     1      19.215 -10.490   7.606  1.00  0.00     0.009 C 
ENDBRANCH  17  18
ENDBRANCH  16  17
ENDBRANCH  15  16
ENDBRANCH  14  15
ENDBRANCH  13  14
ENDBRANCH  12  13
ENDBRANCH  11  12
ENDBRANCH   1  11
TORSDOF 16
