REMARK  12 active torsions:
REMARK  status: ('A' for Active; 'I' for Inactive)
REMARK    1  A    between atoms: C_2  and  C_3 
REMARK    2  A    between atoms: C_3  and  C_4 
REMARK    3  A    between atoms: C_4  and  C_5 
REMARK    4  A    between atoms: C_5  and  C_6 
REMARK    5  A    between atoms: C_6  and  C_7 
REMARK    6  A    between atoms: C_7  and  C_8 
REMARK    7  A    between atoms: C_8  and  C_9 
REMARK    8  A    between atoms: C_9  and  C_10 
REMARK    9  A    between atoms: C_10  and  C_11 
REMARK   10  A    between atoms: C_11  and  C_12 
REMARK   11  A    between atoms: C_12  and  C_13 
REMARK   12  A    between atoms: C_13  and  C_14 
ROOT
HETATM    1  C   UNL     1       8.583  -4.332  -0.469  1.00  0.00     0.000 C 
ENDROOT
BRANCH   1   2
HETATM    2  C   UNL     1       7.060  -4.306  -0.462  1.00  0.00     0.000 C 
BRANCH   2   3
HETATM    3  C   UNL     1       6.544  -2.884  -0.275  1.00  0.00     0.000 C 
BRANCH   3   4
HETATM    4  C   UNL     1       5.020  -2.864  -0.270  1.00  0.00     0.000 C 
BRANCH   4   5
HETATM    5  C   UNL     1       4.494  -1.444  -0.084  1.00  0.00     0.000 C 
BRANCH   5   6
HETATM    6  C   UNL     1       2.969  -1.430  -0.082  1.00  0.00    -0.000 C 
BRANCH   6   7
HETATM    7  C   UNL     1       2.433  -0.013   0.105  1.00  0.00    -0.005 C 
HETATM    8  C   UNL     1       0.914   0.001   0.108  1.00  0.00     0.005 C 
ENDBRANCH   6   7
ENDBRANCH   5   6
ENDBRANCH   4   5
ENDBRANCH   3   4
ENDBRANCH   2   3
ENDBRANCH   1   2
BRANCH   1   9
HETATM    9  C   UNL     1       9.096  -5.755  -0.656  1.00  0.00     0.000 C 
BRANCH   9  10
HETATM   10  C   UNL     1      10.619  -5.775  -0.667  1.00  0.00     0.000 C 
BRANCH  10  11
HETATM   11  C   UNL     1      11.148  -7.193  -0.856  1.00  0.00     0.000 C 
BRANCH  11  12
HETATM   12  C   UNL     1      12.673  -7.189  -0.838  1.00  0.00     0.000 C 
BRANCH  12  13
HETATM   13  C   UNL     1      13.235  -8.599  -1.004  1.00  0.00     0.004 C 
BRANCH  13  14
HETATM   14  C   UNL     1      14.773  -8.632  -1.023  1.00  0.00    -0.023 C 
HETATM   15  C   UNL     1      15.383  -8.106   0.278  1.00  0.00     0.009 C 
HETATM   16  C   UNL     1      15.253 -10.061  -1.281  1.00  0.00     0.009 C 
ENDBRANCH  13  14
ENDBRANCH  12  13
ENDBRANCH  11  12
ENDBRANCH  10  11
ENDBRANCH   9  10
ENDBRANCH   1   9
TORSDOF 12
