REMARK  14 active torsions:
REMARK  status: ('A' for Active; 'I' for Inactive)
REMARK    1  A    between atoms: C_2  and  C_3 
REMARK    2  A    between atoms: C_3  and  C_4 
REMARK    3  A    between atoms: C_4  and  C_5 
REMARK    4  A    between atoms: C_5  and  C_6 
REMARK    5  A    between atoms: C_6  and  C_7 
REMARK    6  A    between atoms: C_7  and  C_8 
REMARK    7  A    between atoms: C_8  and  C_9 
REMARK    8  A    between atoms: C_9  and  C_10 
REMARK    9  A    between atoms: C_10  and  C_11 
REMARK   10  A    between atoms: C_11  and  C_12 
REMARK   11  A    between atoms: C_12  and  C_13 
REMARK   12  A    between atoms: C_13  and  C_14 
REMARK   13  A    between atoms: C_14  and  O_16 
REMARK   14  A    between atoms: O_16  and  C_17 
ROOT
HETATM    1  C   UNL     1      10.561  -2.549   5.163  1.00  0.00     0.000 C 
ENDROOT
BRANCH   1   2
HETATM    2  C   UNL     1       9.039  -2.538   5.138  1.00  0.00     0.000 C 
BRANCH   2   3
HETATM    3  C   UNL     1       8.528  -1.916   3.844  1.00  0.00     0.000 C 
BRANCH   3   4
HETATM    4  C   UNL     1       7.005  -1.904   3.823  1.00  0.00     0.000 C 
BRANCH   4   5
HETATM    5  C   UNL     1       6.490  -1.279   2.532  1.00  0.00     0.000 C 
BRANCH   5   6
HETATM    6  C   UNL     1       4.966  -1.272   2.516  1.00  0.00     0.000 C 
BRANCH   6   7
HETATM    7  C   UNL     1       4.445  -0.651   1.225  1.00  0.00     0.000 C 
BRANCH   7   8
HETATM    8  C   UNL     1       2.920  -0.642   1.213  1.00  0.00    -0.000 C 
BRANCH   8   9
HETATM    9  C   UNL     1       2.386  -0.025  -0.074  1.00  0.00    -0.005 C 
HETATM   10  C   UNL     1       0.868  -0.016  -0.082  1.00  0.00     0.005 C 
ENDBRANCH   8   9
ENDBRANCH   7   8
ENDBRANCH   6   7
ENDBRANCH   5   6
ENDBRANCH   4   5
ENDBRANCH   3   4
ENDBRANCH   2   3
ENDBRANCH   1   2
BRANCH   1  11
HETATM   11  C   UNL     1      11.084  -3.172   6.456  1.00  0.00     0.000 C 
BRANCH  11  12
HETATM   12  C   UNL     1      12.607  -3.171   6.452  1.00  0.00     0.010 C 
BRANCH  12  13
HETATM   13  C   UNL     1      13.200  -3.782   7.719  1.00  0.00     0.111 C 
BRANCH  13  14
HETATM   14  C   UNL     1      14.708  -3.757   7.639  1.00  0.00     0.259 C 
HETATM   15  O   UNL     1      15.348  -3.315   6.691  1.00  0.00    -0.265 OA
BRANCH  14  16
HETATM   16  O   UNL     1      15.259  -4.299   8.761  1.00  0.00    -0.317 OA
BRANCH  16  17
HETATM   17  C   UNL     1      16.699  -4.338   8.766  1.00  0.00     0.123 C 
HETATM   18  C   UNL     1      17.256  -2.975   9.166  1.00  0.00     0.040 C 
HETATM   19  C   UNL     1      17.137  -5.402   9.765  1.00  0.00     0.040 C 
ENDBRANCH  16  17
ENDBRANCH  14  16
ENDBRANCH  13  14
ENDBRANCH  12  13
ENDBRANCH  11  12
ENDBRANCH   1  11
TORSDOF 14
