REMARK  32 active torsions:
REMARK  status: ('A' for Active; 'I' for Inactive)
REMARK    1  A    between atoms: C_2  and  C_4 
REMARK    2  A    between atoms: C_4  and  C_5 
REMARK    3  A    between atoms: C_5  and  C_6 
REMARK    4  A    between atoms: C_6  and  C_7 
REMARK    5  A    between atoms: C_7  and  C_8 
REMARK    6  A    between atoms: C_8  and  C_9 
REMARK    7  A    between atoms: C_9  and  C_10 
REMARK    8  A    between atoms: C_10  and  C_11 
REMARK    9  A    between atoms: C_11  and  C_12 
REMARK   10  A    between atoms: C_12  and  C_13 
REMARK   11  A    between atoms: C_13  and  C_14 
REMARK   12  A    between atoms: C_14  and  C_15 
REMARK   13  A    between atoms: C_15  and  C_16 
REMARK   14  A    between atoms: C_16  and  C_17 
REMARK   15  A    between atoms: C_17  and  C_18 
REMARK   16  A    between atoms: C_18  and  O_19 
REMARK   17  A    between atoms: O_19  and  C_20 
REMARK   18  A    between atoms: C_20  and  C_22 
REMARK   19  A    between atoms: C_22  and  C_23 
REMARK   20  A    between atoms: C_23  and  C_24 
REMARK   21  A    between atoms: C_24  and  C_25 
REMARK   22  A    between atoms: C_25  and  C_26 
REMARK   23  A    between atoms: C_26  and  C_27 
REMARK   24  A    between atoms: C_27  and  C_28 
REMARK   25  A    between atoms: C_28  and  C_29 
REMARK   26  A    between atoms: C_29  and  C_30 
REMARK   27  A    between atoms: C_30  and  C_31 
REMARK   28  A    between atoms: C_31  and  C_32 
REMARK   29  A    between atoms: C_32  and  C_33 
REMARK   30  A    between atoms: C_33  and  C_34 
REMARK   31  A    between atoms: C_34  and  C_35 
REMARK   32  A    between atoms: C_35  and  C_36 
ROOT
HETATM    1  O   UNL     1      18.772   8.635   7.656  1.00  0.00    -0.321 OA
ENDROOT
BRANCH   1   2
HETATM    2  C   UNL     1      17.345   8.719   7.597  1.00  0.00     0.178 C 
BRANCH   2   3
HETATM    3  C   UNL     1      16.831   8.985   6.188  1.00  0.00     0.027 C 
BRANCH   3   4
HETATM    4  C   UNL     1      15.302   8.990   6.169  1.00  0.00     0.002 C 
BRANCH   4   5
HETATM    5  C   UNL     1      14.775   9.272   4.768  1.00  0.00     0.000 C 
BRANCH   5   6
HETATM    6  C   UNL     1      13.253   9.281   4.757  1.00  0.00     0.000 C 
BRANCH   6   7
HETATM    7  C   UNL     1      12.740   9.564   3.353  1.00  0.00     0.000 C 
BRANCH   7   8
HETATM    8  C   UNL     1      11.221   9.575   3.344  1.00  0.00     0.000 C 
BRANCH   8   9
HETATM    9  C   UNL     1      10.714   9.860   1.942  1.00  0.00     0.000 C 
BRANCH   9  10
HETATM   10  C   UNL     1       9.197   9.873   1.935  1.00  0.00     0.000 C 
BRANCH  10  11
HETATM   11  C   UNL     1       8.691  10.155   0.534  1.00  0.00     0.000 C 
BRANCH  11  12
HETATM   12  C   UNL     1       7.175  10.167   0.532  1.00  0.00     0.000 C 
BRANCH  12  13
HETATM   13  C   UNL     1       6.664  10.447  -0.866  1.00  0.00     0.000 C 
BRANCH  13  14
HETATM   14  C   UNL     1       5.146  10.457  -0.861  1.00  0.00     0.000 C 
BRANCH  14  15
HETATM   15  C   UNL     1       4.647  10.746  -2.260  1.00  0.00     0.000 C 
BRANCH  15  16
HETATM   16  C   UNL     1       3.126  10.778  -2.297  1.00  0.00     0.004 C 
BRANCH  16  17
HETATM   17  C   UNL     1       2.605  11.073  -3.708  1.00  0.00    -0.023 C 
HETATM   18  C   UNL     1       1.080  11.071  -3.701  1.00  0.00     0.009 C 
HETATM   19  C   UNL     1       3.118  12.420  -4.224  1.00  0.00     0.009 C 
ENDBRANCH  16  17
ENDBRANCH  15  16
ENDBRANCH  14  15
ENDBRANCH  13  14
ENDBRANCH  12  13
ENDBRANCH  11  12
ENDBRANCH  10  11
ENDBRANCH   9  10
ENDBRANCH   8   9
ENDBRANCH   7   8
ENDBRANCH   6   7
ENDBRANCH   5   6
ENDBRANCH   4   5
ENDBRANCH   3   4
ENDBRANCH   2   3
ENDBRANCH   1   2
BRANCH   1  20
HETATM   20  C   UNL     1      19.342   9.633   8.396  1.00  0.00     0.258 C 
HETATM   21  O   UNL     1      19.099  10.814   8.264  1.00  0.00    -0.265 OA
BRANCH  20  22
HETATM   22  C   UNL     1      20.238   9.028   9.459  1.00  0.00     0.111 C 
BRANCH  22  23
HETATM   23  C   UNL     1      20.224   9.904  10.707  1.00  0.00     0.010 C 
BRANCH  23  24
HETATM   24  C   UNL     1      21.091   9.329  11.820  1.00  0.00     0.000 C 
BRANCH  24  25
HETATM   25  C   UNL     1      21.054  10.240  13.043  1.00  0.00     0.000 C 
BRANCH  25  26
HETATM   26  C   UNL     1      21.925   9.673  14.153  1.00  0.00     0.000 C 
BRANCH  26  27
HETATM   27  C   UNL     1      21.885  10.583  15.368  1.00  0.00     0.000 C 
BRANCH  27  28
HETATM   28  C   UNL     1      22.756  10.010  16.472  1.00  0.00     0.000 C 
BRANCH  28  29
HETATM   29  C   UNL     1      22.716  10.919  17.686  1.00  0.00     0.000 C 
BRANCH  29  30
HETATM   30  C   UNL     1      23.587  10.345  18.788  1.00  0.00     0.000 C 
BRANCH  30  31
HETATM   31  C   UNL     1      23.543  11.256  19.999  1.00  0.00     0.000 C 
BRANCH  31  32
HETATM   32  C   UNL     1      24.411  10.687  21.102  1.00  0.00     0.000 C 
BRANCH  32  33
HETATM   33  C   UNL     1      24.361  11.601  22.313  1.00  0.00     0.000 C 
BRANCH  33  34
HETATM   34  C   UNL     1      25.238  11.028  23.406  1.00  0.00     0.000 C 
BRANCH  34  35
HETATM   35  C   UNL     1      25.225  11.924  24.636  1.00  0.00     0.004 C 
BRANCH  35  36
HETATM   36  C   UNL     1      26.110  11.357  25.751  1.00  0.00    -0.023 C 
HETATM   37  C   UNL     1      27.564  11.220  25.297  1.00  0.00     0.009 C 
HETATM   38  C   UNL     1      26.035  12.264  26.975  1.00  0.00     0.009 C 
ENDBRANCH  35  36
ENDBRANCH  34  35
ENDBRANCH  33  34
ENDBRANCH  32  33
ENDBRANCH  31  32
ENDBRANCH  30  31
ENDBRANCH  29  30
ENDBRANCH  28  29
ENDBRANCH  27  28
ENDBRANCH  26  27
ENDBRANCH  25  26
ENDBRANCH  24  25
ENDBRANCH  23  24
ENDBRANCH  22  23
ENDBRANCH  20  22
ENDBRANCH   1  20
TORSDOF 32
