REMARK  18 active torsions:
REMARK  status: ('A' for Active; 'I' for Inactive)
REMARK    1  A    between atoms: C_2  and  C_4 
REMARK    2  A    between atoms: C_4  and  C_5 
REMARK    3  A    between atoms: C_5  and  C_6 
REMARK    4  A    between atoms: C_6  and  C_7 
REMARK    5  A    between atoms: C_7  and  C_8 
REMARK    6  A    between atoms: C_8  and  C_9 
REMARK    7  A    between atoms: C_9  and  C_10 
REMARK    8  A    between atoms: C_10  and  C_11 
REMARK    9  A    between atoms: C_11  and  C_12 
REMARK   10  A    between atoms: C_12  and  C_13 
REMARK   11  A    between atoms: C_13  and  C_14 
REMARK   12  A    between atoms: C_14  and  C_15 
REMARK   13  A    between atoms: C_15  and  C_16 
REMARK   14  A    between atoms: C_16  and  C_17 
REMARK   15  A    between atoms: C_17  and  C_18 
REMARK   16  A    between atoms: C_18  and  O_19 
REMARK   17  A    between atoms: O_19  and  C_20 
REMARK   18  A    between atoms: C_20  and  C_22 
ROOT
HETATM    1  C   UNL     1      12.620  -2.814   6.686  1.00  0.00     0.000 C 
ENDROOT
BRANCH   1   2
HETATM    2  C   UNL     1      11.102  -2.813   6.682  1.00  0.00     0.000 C 
BRANCH   2   3
HETATM    3  C   UNL     1      10.591  -2.266   5.363  1.00  0.00     0.000 C 
BRANCH   3   4
HETATM    4  C   UNL     1       9.074  -2.264   5.358  1.00  0.00     0.000 C 
BRANCH   4   5
HETATM    5  C   UNL     1       8.564  -1.719   4.038  1.00  0.00     0.000 C 
BRANCH   5   6
HETATM    6  C   UNL     1       7.048  -1.721   4.037  1.00  0.00     0.000 C 
BRANCH   6   7
HETATM    7  C   UNL     1       6.534  -1.179   2.720  1.00  0.00     0.000 C 
BRANCH   7   8
HETATM    8  C   UNL     1       5.017  -1.182   2.727  1.00  0.00     0.000 C 
BRANCH   8   9
HETATM    9  C   UNL     1       4.514  -0.636   1.408  1.00  0.00     0.000 C 
BRANCH   9  10
HETATM   10  C   UNL     1       2.993  -0.619   1.375  1.00  0.00     0.004 C 
BRANCH  10  11
HETATM   11  C   UNL     1       2.469  -0.070   0.043  1.00  0.00    -0.023 C 
HETATM   12  C   UNL     1       0.943  -0.076   0.052  1.00  0.00     0.009 C 
HETATM   13  C   UNL     1       2.978   1.349  -0.214  1.00  0.00     0.009 C 
ENDBRANCH  10  11
ENDBRANCH   9  10
ENDBRANCH   8   9
ENDBRANCH   7   8
ENDBRANCH   6   7
ENDBRANCH   5   6
ENDBRANCH   4   5
ENDBRANCH   3   4
ENDBRANCH   2   3
ENDBRANCH   1   2
BRANCH   1  14
HETATM   14  C   UNL     1      13.134  -3.356   8.003  1.00  0.00     0.000 C 
BRANCH  14  15
HETATM   15  C   UNL     1      14.657  -3.367   8.018  1.00  0.00     0.000 C 
BRANCH  15  16
HETATM   16  C   UNL     1      15.181  -3.917   9.337  1.00  0.00     0.002 C 
BRANCH  16  17
HETATM   17  C   UNL     1      14.700  -5.349   9.568  1.00  0.00     0.027 C 
BRANCH  17  18
HETATM   18  C   UNL     1      15.229  -5.898  10.880  1.00  0.00     0.178 C 
BRANCH  18  19
HETATM   19  O   UNL     1      16.668  -5.903  10.883  1.00  0.00    -0.321 OA
BRANCH  19  20
HETATM   20  C   UNL     1      17.229  -6.943  10.206  1.00  0.00     0.266 C 
HETATM   21  O   UNL     1      16.568  -7.829   9.645  1.00  0.00    -0.264 OA
BRANCH  20  22
HETATM   22  C   UNL     1      18.756  -6.888  10.207  1.00  0.00     0.037 C 
HETATM   23  C   UNL     1      19.293  -6.950  11.642  1.00  0.00     0.025 C 
HETATM   24  C   UNL     1      19.337  -8.066   9.400  1.00  0.00     0.025 C 
HETATM   25  C   UNL     1      19.222  -5.582   9.556  1.00  0.00     0.025 C 
ENDBRANCH  20  22
ENDBRANCH  19  20
ENDBRANCH  18  19
ENDBRANCH  17  18
ENDBRANCH  16  17
ENDBRANCH  15  16
ENDBRANCH  14  15
ENDBRANCH   1  14
TORSDOF 18
