REMARK  3 active torsions:
REMARK  status: ('A' for Active; 'I' for Inactive)
REMARK    1  A    between atoms: C_2  and  C_3 
REMARK    2  A    between atoms: C_2  and  O_6 
REMARK    3  A    between atoms: C_3  and  O_5 
ROOT
HETATM    1  C   UNL     1       1.066   0.035  -0.039  1.00  0.00     0.050 C 
HETATM    2  C   UNL     1       2.581   0.070   0.039  1.00  0.00     0.211 C 
ENDROOT
BRANCH   2   3
HETATM    3  C   UNL     1       3.104  -0.406   1.396  1.00  0.00     0.169 C 
HETATM    4  O   UNL     1       2.560  -0.229   2.474  1.00  0.00    -0.648 OA
BRANCH   3   5
HETATM    5  O   UNL     1       4.289  -1.059   1.258  1.00  0.00    -0.775 OA
HETATM    6  H   UNL     1       4.520  -1.078   0.300  1.00  0.00     0.167 HD
ENDBRANCH   3   5
ENDBRANCH   2   3
BRANCH   2   7
HETATM    7  O   UNL     1       3.152  -0.769  -0.978  1.00  0.00    -0.385 OA
HETATM    8  H   UNL     1       2.625  -1.591  -1.002  1.00  0.00     0.210 HD
ENDBRANCH   2   7
TORSDOF 3
