REMARK  12 active torsions:
REMARK  status: ('A' for Active; 'I' for Inactive)
REMARK    1  A    between atoms: C_1  and  C_2 
REMARK    2  A    between atoms: C_1  and  O_23 
REMARK    3  A    between atoms: C_3  and  O_22 
REMARK    4  A    between atoms: C_4  and  O_21 
REMARK    5  A    between atoms: C_5  and  O_20 
REMARK    6  A    between atoms: C_6  and  O_8 
REMARK    7  A    between atoms: O_8  and  C_9 
REMARK    8  A    between atoms: C_10  and  C_18 
REMARK    9  A    between atoms: C_12  and  O_17 
REMARK   10  A    between atoms: C_13  and  O_16 
REMARK   11  A    between atoms: C_14  and  O_15 
REMARK   12  A    between atoms: C_18  and  O_19 
ROOT
HETATM    1  O   UNL     1      -1.040   3.327   1.352  1.00  0.00    -0.348 OA
ENDROOT
BRANCH   1   2
HETATM    2  C   UNL     1      -0.092   2.781   0.410  1.00  0.00     0.292 C 
HETATM    3  C   UNL     1      -0.840   2.331  -0.856  1.00  0.00     0.204 C 
HETATM    4  C   UNL     1       0.195   1.766  -1.838  1.00  0.00     0.183 C 
HETATM    5  C   UNL     1       0.969   0.592  -1.205  1.00  0.00     0.180 C 
HETATM    6  C   UNL     1       1.547   0.995   0.168  1.00  0.00     0.179 C 
HETATM    7  O   UNL     1       0.562   1.656   0.984  1.00  0.00    -0.348 OA
BRANCH   3   8
HETATM    8  O   UNL     1      -1.799   1.298  -0.534  1.00  0.00    -0.388 OA
HETATM    9  H   UNL     1      -2.166   1.542   0.340  1.00  0.00     0.210 HD
ENDBRANCH   3   8
BRANCH   4  10
HETATM   10  O   UNL     1      -0.449   1.351  -3.044  1.00  0.00    -0.390 OA
HETATM   11  H   UNL     1      -1.099   0.670  -2.776  1.00  0.00     0.210 HD
ENDBRANCH   4  10
BRANCH   5  12
HETATM   12  O   UNL     1       0.092  -0.539  -1.043  1.00  0.00    -0.390 OA
HETATM   13  H   UNL     1      -0.714  -0.199  -0.603  1.00  0.00     0.210 HD
ENDBRANCH   5  12
BRANCH   6  14
HETATM   14  C   UNL     1       2.825   1.842   0.041  1.00  0.00     0.198 C 
BRANCH  14  15
HETATM   15  O   UNL     1       3.306   2.239   1.326  1.00  0.00    -0.398 OA
HETATM   16  H   UNL     1       2.682   2.896   1.686  1.00  0.00     0.209 HD
ENDBRANCH  14  15
ENDBRANCH   6  14
ENDBRANCH   1   2
BRANCH   1  17
HETATM   17  C   UNL     1      -0.372   3.996   2.459  1.00  0.00     0.187 C 
HETATM   18  C   UNL     1       0.071   3.002   3.555  1.00  0.00     0.180 C 
HETATM   19  O   UNL     1      -1.051   2.392   4.192  1.00  0.00    -0.349 OA
HETATM   20  C   UNL     1      -1.977   3.269   4.797  1.00  0.00     0.288 C 
HETATM   21  C   UNL     1      -2.483   4.387   3.858  1.00  0.00     0.204 C 
HETATM   22  C   UNL     1      -1.333   5.031   3.068  1.00  0.00     0.183 C 
BRANCH  18  23
HETATM   23  C   UNL     1       1.092   3.623   4.517  1.00  0.00     0.198 C 
BRANCH  23  24
HETATM   24  O   UNL     1       2.258   3.999   3.781  1.00  0.00    -0.398 OA
HETATM   25  H   UNL     1       2.923   3.297   3.922  1.00  0.00     0.209 HD
ENDBRANCH  23  24
ENDBRANCH  18  23
BRANCH  20  26
HETATM   26  O   UNL     1      -1.444   3.803   5.999  1.00  0.00    -0.369 OA
HETATM   27  H   UNL     1      -1.536   4.776   5.948  1.00  0.00     0.212 HD
ENDBRANCH  20  26
BRANCH  21  28
HETATM   28  O   UNL     1      -3.125   5.402   4.657  1.00  0.00    -0.388 OA
HETATM   29  H   UNL     1      -3.749   4.961   5.264  1.00  0.00     0.210 HD
ENDBRANCH  21  28
BRANCH  22  30
HETATM   30  O   UNL     1      -1.839   5.879   2.022  1.00  0.00    -0.390 OA
HETATM   31  H   UNL     1      -2.207   5.291   1.338  1.00  0.00     0.210 HD
ENDBRANCH  22  30
ENDBRANCH   1  17
TORSDOF 12
