REMARK  32 active torsions:
REMARK  status: ('A' for Active; 'I' for Inactive)
REMARK    1  A    between atoms: C_2  and  C_3 
REMARK    2  A    between atoms: C_3  and  C_4 
REMARK    3  A    between atoms: C_4  and  C_5 
REMARK    4  A    between atoms: C_5  and  C_6 
REMARK    5  A    between atoms: C_6  and  C_7 
REMARK    6  A    between atoms: C_7  and  C_8 
REMARK    7  A    between atoms: C_8  and  C_9 
REMARK    8  A    between atoms: C_9  and  C_10 
REMARK    9  A    between atoms: C_10  and  C_11 
REMARK   10  A    between atoms: C_11  and  C_12 
REMARK   11  A    between atoms: C_12  and  C_13 
REMARK   12  A    between atoms: C_13  and  C_14 
REMARK   13  A    between atoms: C_14  and  C_15 
REMARK   14  A    between atoms: C_15  and  C_16 
REMARK   15  A    between atoms: C_16  and  C_17 
REMARK   16  A    between atoms: C_17  and  C_18 
REMARK   17  A    between atoms: C_18  and  O_19 
REMARK   18  A    between atoms: O_19  and  C_20 
REMARK   19  A    between atoms: C_20  and  C_22 
REMARK   20  A    between atoms: C_22  and  C_23 
REMARK   21  A    between atoms: C_23  and  C_24 
REMARK   22  A    between atoms: C_24  and  C_25 
REMARK   23  A    between atoms: C_25  and  C_26 
REMARK   24  A    between atoms: C_26  and  C_27 
REMARK   25  A    between atoms: C_27  and  C_28 
REMARK   26  A    between atoms: C_28  and  C_29 
REMARK   27  A    between atoms: C_29  and  C_30 
REMARK   28  A    between atoms: C_30  and  C_31 
REMARK   29  A    between atoms: C_31  and  C_32 
REMARK   30  A    between atoms: C_32  and  C_33 
REMARK   31  A    between atoms: C_33  and  C_34 
REMARK   32  A    between atoms: C_34  and  C_35 
ROOT
HETATM    1  C   UNL     1      18.765  -8.701   7.388  1.00  0.00     0.178 C 
ENDROOT
BRANCH   1   2
HETATM    2  C   UNL     1      17.243  -8.685   7.383  1.00  0.00     0.027 C 
BRANCH   2   3
HETATM    3  C   UNL     1      16.719  -7.598   6.456  1.00  0.00     0.002 C 
BRANCH   3   4
HETATM    4  C   UNL     1      15.196  -7.583   6.443  1.00  0.00     0.000 C 
BRANCH   4   5
HETATM    5  C   UNL     1      14.679  -6.492   5.515  1.00  0.00     0.000 C 
BRANCH   5   6
HETATM    6  C   UNL     1      13.158  -6.482   5.507  1.00  0.00     0.000 C 
BRANCH   6   7
HETATM    7  C   UNL     1      12.644  -5.392   4.580  1.00  0.00     0.000 C 
BRANCH   7   8
HETATM    8  C   UNL     1      11.125  -5.387   4.574  1.00  0.00     0.000 C 
BRANCH   8   9
HETATM    9  C   UNL     1      10.611  -4.297   3.650  1.00  0.00     0.000 C 
BRANCH   9  10
HETATM   10  C   UNL     1       9.093  -4.292   3.646  1.00  0.00     0.000 C 
BRANCH  10  11
HETATM   11  C   UNL     1       8.580  -3.204   2.721  1.00  0.00     0.000 C 
BRANCH  11  12
HETATM   12  C   UNL     1       7.062  -3.198   2.718  1.00  0.00     0.000 C 
BRANCH  12  13
HETATM   13  C   UNL     1       6.549  -2.108   1.793  1.00  0.00     0.000 C 
BRANCH  13  14
HETATM   14  C   UNL     1       5.030  -2.101   1.786  1.00  0.00     0.000 C 
BRANCH  14  15
HETATM   15  C   UNL     1       4.515  -1.009   0.861  1.00  0.00     0.000 C 
BRANCH  15  16
HETATM   16  C   UNL     1       2.994  -1.000   0.854  1.00  0.00    -0.000 C 
BRANCH  16  17
HETATM   17  C   UNL     1       2.466   0.090  -0.070  1.00  0.00    -0.005 C 
HETATM   18  C   UNL     1       0.949   0.097  -0.073  1.00  0.00     0.005 C 
ENDBRANCH  16  17
ENDBRANCH  15  16
ENDBRANCH  14  15
ENDBRANCH  13  14
ENDBRANCH  12  13
ENDBRANCH  11  12
ENDBRANCH  10  11
ENDBRANCH   9  10
ENDBRANCH   8   9
ENDBRANCH   7   8
ENDBRANCH   6   7
ENDBRANCH   5   6
ENDBRANCH   4   5
ENDBRANCH   3   4
ENDBRANCH   2   3
ENDBRANCH   1   2
BRANCH   1  19
HETATM   19  O   UNL     1      19.241  -9.730   8.259  1.00  0.00    -0.321 OA
BRANCH  19  20
HETATM   20  C   UNL     1      19.205 -10.973   7.701  1.00  0.00     0.258 C 
HETATM   21  O   UNL     1      18.825 -11.215   6.551  1.00  0.00    -0.265 OA
BRANCH  20  22
HETATM   22  C   UNL     1      19.694 -12.021   8.661  1.00  0.00     0.111 C 
BRANCH  22  23
HETATM   23  C   UNL     1      18.817 -12.042   9.904  1.00  0.00     0.010 C 
BRANCH  23  24
HETATM   24  C   UNL     1      19.271 -13.088  10.914  1.00  0.00     0.000 C 
BRANCH  24  25
HETATM   25  C   UNL     1      18.362 -13.058  12.138  1.00  0.00     0.000 C 
BRANCH  25  26
HETATM   26  C   UNL     1      18.798 -14.097  13.160  1.00  0.00     0.000 C 
BRANCH  26  27
HETATM   27  C   UNL     1      17.886 -14.061  14.377  1.00  0.00     0.000 C 
BRANCH  27  28
HETATM   28  C   UNL     1      18.328 -15.101  15.394  1.00  0.00     0.000 C 
BRANCH  28  29
HETATM   29  C   UNL     1      17.418 -15.066  16.610  1.00  0.00     0.000 C 
BRANCH  29  30
HETATM   30  C   UNL     1      17.863 -16.107  17.623  1.00  0.00     0.000 C 
BRANCH  30  31
HETATM   31  C   UNL     1      16.955 -16.072  18.840  1.00  0.00     0.000 C 
BRANCH  31  32
HETATM   32  C   UNL     1      17.400 -17.113  19.853  1.00  0.00     0.000 C 
BRANCH  32  33
HETATM   33  C   UNL     1      16.492 -17.078  21.072  1.00  0.00     0.000 C 
BRANCH  33  34
HETATM   34  C   UNL     1      16.934 -18.121  22.088  1.00  0.00    -0.000 C 
BRANCH  34  35
HETATM   35  C   UNL     1      16.032 -18.094  23.315  1.00  0.00    -0.005 C 
HETATM   36  C   UNL     1      16.475 -19.135  24.325  1.00  0.00     0.005 C 
ENDBRANCH  34  35
ENDBRANCH  33  34
ENDBRANCH  32  33
ENDBRANCH  31  32
ENDBRANCH  30  31
ENDBRANCH  29  30
ENDBRANCH  28  29
ENDBRANCH  27  28
ENDBRANCH  26  27
ENDBRANCH  25  26
ENDBRANCH  24  25
ENDBRANCH  23  24
ENDBRANCH  22  23
ENDBRANCH  20  22
ENDBRANCH  19  20
ENDBRANCH   1  19
TORSDOF 32
