REMARK  17 active torsions:
REMARK  status: ('A' for Active; 'I' for Inactive)
REMARK    1  A    between atoms: C_2  and  C_3 
REMARK    2  A    between atoms: C_3  and  C_4 
REMARK    3  A    between atoms: C_4  and  C_5 
REMARK    4  A    between atoms: C_5  and  C_6 
REMARK    5  A    between atoms: C_6  and  C_7 
REMARK    6  A    between atoms: C_7  and  C_8 
REMARK    7  A    between atoms: C_8  and  C_9 
REMARK    8  A    between atoms: C_9  and  C_10 
REMARK    9  A    between atoms: C_10  and  C_11 
REMARK   10  A    between atoms: C_11  and  C_12 
REMARK   11  A    between atoms: C_12  and  O_13 
REMARK   12  A    between atoms: O_13  and  C_14 
REMARK   13  A    between atoms: C_14  and  C_15 
REMARK   14  A    between atoms: C_15  and  O_16 
REMARK   15  A    between atoms: O_16  and  C_17 
REMARK   16  A    between atoms: C_17  and  C_18 
REMARK   17  A    between atoms: C_18  and  O_19 
ROOT
HETATM    1  C   UNL     1      10.685   5.257  -2.134  1.00  0.00     0.002 C 
ENDROOT
BRANCH   1   2
HETATM    2  C   UNL     1       9.162   5.254  -2.132  1.00  0.00     0.000 C 
BRANCH   2   3
HETATM    3  C   UNL     1       8.636   3.931  -1.583  1.00  0.00     0.000 C 
BRANCH   3   4
HETATM    4  C   UNL     1       7.113   3.910  -1.574  1.00  0.00     0.000 C 
BRANCH   4   5
HETATM    5  C   UNL     1       6.594   2.585  -1.024  1.00  0.00     0.000 C 
BRANCH   5   6
HETATM    6  C   UNL     1       5.070   2.564  -1.017  1.00  0.00     0.000 C 
BRANCH   6   7
HETATM    7  C   UNL     1       4.544   1.242  -0.466  1.00  0.00     0.000 C 
BRANCH   7   8
HETATM    8  C   UNL     1       3.018   1.229  -0.461  1.00  0.00    -0.000 C 
BRANCH   8   9
HETATM    9  C   UNL     1       2.480  -0.090   0.088  1.00  0.00    -0.005 C 
HETATM   10  C   UNL     1       0.961  -0.100   0.094  1.00  0.00     0.005 C 
ENDBRANCH   8   9
ENDBRANCH   7   8
ENDBRANCH   6   7
ENDBRANCH   5   6
ENDBRANCH   4   5
ENDBRANCH   3   4
ENDBRANCH   2   3
ENDBRANCH   1   2
BRANCH   1  11
HETATM   11  C   UNL     1      11.239   6.567  -2.680  1.00  0.00     0.026 C 
BRANCH  11  12
HETATM   12  C   UNL     1      12.760   6.543  -2.672  1.00  0.00     0.167 C 
BRANCH  12  13
HETATM   13  O   UNL     1      13.239   7.780  -3.190  1.00  0.00    -0.389 OA
BRANCH  13  14
HETATM   14  C   UNL     1      14.665   7.812  -3.205  1.00  0.00     0.193 C 
BRANCH  14  15
HETATM   15  C   UNL     1      15.124   9.153  -3.756  1.00  0.00     0.193 C 
BRANCH  15  16
HETATM   16  O   UNL     1      16.548   9.193  -3.758  1.00  0.00    -0.387 OA
BRANCH  16  17
HETATM   17  C   UNL     1      17.025  10.435  -4.290  1.00  0.00     0.193 C 
BRANCH  17  18
HETATM   18  C   UNL     1      18.545  10.395  -4.252  1.00  0.00     0.190 C 
BRANCH  18  19
HETATM   19  O   UNL     1      19.012   9.286  -5.019  1.00  0.00    -0.399 OA
HETATM   20  H   UNL     1      18.467   8.530  -4.720  1.00  0.00     0.209 HD
ENDBRANCH  18  19
ENDBRANCH  17  18
ENDBRANCH  16  17
ENDBRANCH  15  16
ENDBRANCH  14  15
ENDBRANCH  13  14
ENDBRANCH  12  13
ENDBRANCH  11  12
ENDBRANCH   1  11
TORSDOF 17
