REMARK  19 active torsions:
REMARK  status: ('A' for Active; 'I' for Inactive)
REMARK    1  A    between atoms: C_2  and  C_3 
REMARK    2  A    between atoms: C_3  and  C_4 
REMARK    3  A    between atoms: C_4  and  C_5 
REMARK    4  A    between atoms: C_5  and  C_6 
REMARK    5  A    between atoms: C_6  and  C_7 
REMARK    6  A    between atoms: C_7  and  C_8 
REMARK    7  A    between atoms: C_8  and  C_9 
REMARK    8  A    between atoms: C_9  and  C_10 
REMARK    9  A    between atoms: C_10  and  C_11 
REMARK   10  A    between atoms: C_11  and  C_12 
REMARK   11  A    between atoms: C_12  and  O_13 
REMARK   12  A    between atoms: O_13  and  C_14 
REMARK   13  A    between atoms: C_14  and  C_15 
REMARK   14  A    between atoms: C_15  and  O_16 
REMARK   15  A    between atoms: O_16  and  C_17 
REMARK   16  A    between atoms: C_17  and  C_18 
REMARK   17  A    between atoms: C_18  and  O_19 
REMARK   18  A    between atoms: O_19  and  C_20 
REMARK   19  A    between atoms: C_20  and  C_22 
ROOT
HETATM    1  C   UNL     1      14.657   7.569  -3.788  1.00  0.00     0.193 C 
ENDROOT
BRANCH   1   2
HETATM    2  O   UNL     1      13.234   7.557  -3.779  1.00  0.00    -0.389 OA
BRANCH   2   3
HETATM    3  C   UNL     1      12.755   6.356  -3.187  1.00  0.00     0.167 C 
BRANCH   3   4
HETATM    4  C   UNL     1      11.236   6.369  -3.194  1.00  0.00     0.026 C 
BRANCH   4   5
HETATM    5  C   UNL     1      10.711   5.090  -2.561  1.00  0.00     0.002 C 
BRANCH   5   6
HETATM    6  C   UNL     1       9.191   5.080  -2.558  1.00  0.00     0.000 C 
BRANCH   6   7
HETATM    7  C   UNL     1       8.679   3.797  -1.925  1.00  0.00     0.000 C 
BRANCH   7   8
HETATM    8  C   UNL     1       7.161   3.787  -1.924  1.00  0.00     0.000 C 
BRANCH   8   9
HETATM    9  C   UNL     1       6.649   2.505  -1.290  1.00  0.00     0.000 C 
BRANCH   9  10
HETATM   10  C   UNL     1       5.130   2.495  -1.289  1.00  0.00     0.000 C 
BRANCH  10  11
HETATM   11  C   UNL     1       4.617   1.214  -0.655  1.00  0.00     0.000 C 
BRANCH  11  12
HETATM   12  C   UNL     1       3.094   1.201  -0.652  1.00  0.00    -0.000 C 
BRANCH  12  13
HETATM   13  C   UNL     1       2.573  -0.077  -0.017  1.00  0.00    -0.005 C 
HETATM   14  C   UNL     1       1.054  -0.088  -0.016  1.00  0.00     0.005 C 
ENDBRANCH  12  13
ENDBRANCH  11  12
ENDBRANCH  10  11
ENDBRANCH   9  10
ENDBRANCH   8   9
ENDBRANCH   7   8
ENDBRANCH   6   7
ENDBRANCH   5   6
ENDBRANCH   4   5
ENDBRANCH   3   4
ENDBRANCH   2   3
ENDBRANCH   1   2
BRANCH   1  15
HETATM   15  C   UNL     1      15.133   8.861  -4.427  1.00  0.00     0.193 C 
BRANCH  15  16
HETATM   16  O   UNL     1      16.560   8.876  -4.450  1.00  0.00    -0.387 OA
BRANCH  16  17
HETATM   17  C   UNL     1      17.054  10.091  -5.026  1.00  0.00     0.194 C 
BRANCH  17  18
HETATM   18  C   UNL     1      18.581  10.098  -5.022  1.00  0.00     0.205 C 
BRANCH  18  19
HETATM   19  O   UNL     1      19.110  10.021  -3.685  1.00  0.00    -0.315 OA
BRANCH  19  20
HETATM   20  C   UNL     1      19.095  11.183  -2.988  1.00  0.00     0.293 C 
HETATM   21  O   UNL     1      18.705  12.261  -3.408  1.00  0.00    -0.259 OA
BRANCH  20  22
HETATM   22  C   UNL     1      19.606  10.966  -1.606  1.00  0.00     0.039 A 
HETATM   23  C   UNL     1      19.713  12.068  -0.744  1.00  0.00     0.017 A 
HETATM   24  C   UNL     1      20.148  11.891   0.571  1.00  0.00     0.001 A 
HETATM   25  C   UNL     1      20.452  10.614   1.035  1.00  0.00     0.000 A 
HETATM   26  C   UNL     1      20.337   9.510   0.187  1.00  0.00     0.001 A 
HETATM   27  C   UNL     1      19.939   9.687  -1.135  1.00  0.00     0.017 A 
ENDBRANCH  20  22
ENDBRANCH  19  20
ENDBRANCH  18  19
ENDBRANCH  17  18
ENDBRANCH  16  17
ENDBRANCH  15  16
ENDBRANCH   1  15
TORSDOF 19
