REMARK  13 active torsions:
REMARK  status: ('A' for Active; 'I' for Inactive)
REMARK    1  A    between atoms: C_2  and  C_3 
REMARK    2  A    between atoms: C_3  and  C_4 
REMARK    3  A    between atoms: C_4  and  C_5 
REMARK    4  A    between atoms: C_5  and  C_6 
REMARK    5  A    between atoms: C_6  and  C_7 
REMARK    6  A    between atoms: C_7  and  C_8 
REMARK    7  A    between atoms: C_8  and  C_9 
REMARK    8  A    between atoms: C_9  and  C_10 
REMARK    9  A    between atoms: C_10  and  C_11 
REMARK   10  A    between atoms: C_11  and  C_12 
REMARK       I    between atoms: C_12  and  N_14 
REMARK   11  A    between atoms: N_14  and  C_15 
REMARK   12  A    between atoms: C_15  and  C_16 
REMARK   13  A    between atoms: C_16  and  O_18 
ROOT
HETATM    1  C   UNL     1      10.708   5.698  -1.310  1.00  0.00     0.009 C 
ENDROOT
BRANCH   1   2
HETATM    2  C   UNL     1       9.186   5.700  -1.315  1.00  0.00     0.000 C 
BRANCH   2   3
HETATM    3  C   UNL     1       8.662   4.299  -1.004  1.00  0.00     0.000 C 
BRANCH   3   4
HETATM    4  C   UNL     1       7.139   4.272  -0.998  1.00  0.00     0.000 C 
BRANCH   4   5
HETATM    5  C   UNL     1       6.625   2.871  -0.684  1.00  0.00     0.000 C 
BRANCH   5   6
HETATM    6  C   UNL     1       5.101   2.848  -0.681  1.00  0.00     0.000 C 
BRANCH   6   7
HETATM    7  C   UNL     1       4.578   1.450  -0.366  1.00  0.00     0.000 C 
BRANCH   7   8
HETATM    8  C   UNL     1       3.053   1.434  -0.366  1.00  0.00    -0.000 C 
BRANCH   8   9
HETATM    9  C   UNL     1       2.518   0.041  -0.050  1.00  0.00    -0.005 C 
HETATM   10  C   UNL     1       1.000   0.029  -0.049  1.00  0.00     0.005 C 
ENDBRANCH   8   9
ENDBRANCH   7   8
ENDBRANCH   6   7
ENDBRANCH   5   6
ENDBRANCH   4   5
ENDBRANCH   3   4
ENDBRANCH   2   3
ENDBRANCH   1   2
BRANCH   1  11
HETATM   11  C   UNL     1      11.299   7.073  -1.607  1.00  0.00     0.103 C 
BRANCH  11  12
HETATM   12  C   UNL     1      12.814   7.000  -1.594  1.00  0.00     0.217 C 
HETATM   13  O   UNL     1      13.436   5.966  -1.384  1.00  0.00    -0.274 OA
HETATM   14  N   UNL     1      13.431   8.199  -1.857  1.00  0.00    -0.359 N 
HETATM   15  H   UNL     1      12.885   9.051  -1.934  1.00  0.00     0.162 HD
BRANCH  14  16
HETATM   16  C   UNL     1      14.878   8.306  -1.908  1.00  0.00     0.153 C 
BRANCH  16  17
HETATM   17  C   UNL     1      15.412   9.275  -0.848  1.00  0.00     0.132 C 
HETATM   18  C   UNL     1      16.934   9.319  -0.876  1.00  0.00     0.041 C 
BRANCH  17  19
HETATM   19  O   UNL     1      14.897  10.589  -1.094  1.00  0.00    -0.394 OA
HETATM   20  H   UNL     1      15.266  10.899  -1.939  1.00  0.00     0.210 HD
ENDBRANCH  17  19
ENDBRANCH  16  17
ENDBRANCH  14  16
ENDBRANCH  11  12
ENDBRANCH   1  11
TORSDOF 13
