REMARK WARNING: 32 MAX_TORS EXCEEDED!!!
REMARK  80 active torsions:
REMARK  status: ('A' for Active; 'I' for Inactive)
REMARK    1  A    between atoms: C_2  and  C_3 
REMARK    2  A    between atoms: C_3  and  C_4 
REMARK    3  A    between atoms: C_4  and  C_5 
REMARK    4  A    between atoms: C_5  and  C_6 
REMARK    5  A    between atoms: C_6  and  C_7 
REMARK    6  A    between atoms: C_7  and  C_8 
REMARK    7  A    between atoms: C_8  and  C_9 
REMARK    8  A    between atoms: C_9  and  C_10 
REMARK    9  A    between atoms: C_10  and  C_11 
REMARK   10  A    between atoms: C_11  and  C_12 
REMARK   11  A    between atoms: C_12  and  O_13 
REMARK   12  A    between atoms: O_13  and  C_14 
REMARK   13  A    between atoms: C_14  and  C_15 
REMARK   14  A    between atoms: C_15  and  O_16 
REMARK   15  A    between atoms: O_16  and  C_17 
REMARK   16  A    between atoms: C_17  and  C_18 
REMARK   17  A    between atoms: C_18  and  O_19 
REMARK   18  A    between atoms: O_19  and  C_20 
REMARK   19  A    between atoms: C_20  and  C_21 
REMARK   20  A    between atoms: C_21  and  O_22 
REMARK   21  A    between atoms: O_22  and  C_23 
REMARK   22  A    between atoms: C_23  and  C_24 
REMARK   23  A    between atoms: C_24  and  O_25 
REMARK   24  A    between atoms: O_25  and  C_26 
REMARK   25  A    between atoms: C_26  and  C_27 
REMARK   26  A    between atoms: C_27  and  O_28 
REMARK   27  A    between atoms: O_28  and  C_29 
REMARK   28  A    between atoms: C_29  and  C_30 
REMARK   29  A    between atoms: C_30  and  O_31 
REMARK   30  A    between atoms: O_31  and  C_32 
REMARK   31  A    between atoms: C_32  and  C_33 
REMARK   32  A    between atoms: C_33  and  O_34 
REMARK   33  A    between atoms: O_34  and  C_35 
REMARK   34  A    between atoms: C_35  and  C_36 
REMARK   35  A    between atoms: C_36  and  O_37 
REMARK   36  A    between atoms: O_37  and  C_38 
REMARK   37  A    between atoms: C_38  and  C_39 
REMARK   38  A    between atoms: C_39  and  O_40 
REMARK   39  A    between atoms: O_40  and  C_41 
REMARK   40  A    between atoms: C_41  and  C_42 
REMARK   41  A    between atoms: C_42  and  O_43 
REMARK   42  A    between atoms: O_43  and  C_44 
REMARK   43  A    between atoms: C_44  and  C_45 
REMARK   44  A    between atoms: C_45  and  O_46 
REMARK   45  A    between atoms: O_46  and  C_47 
REMARK   46  A    between atoms: C_47  and  C_48 
REMARK   47  A    between atoms: C_48  and  O_49 
REMARK   48  A    between atoms: O_49  and  C_50 
REMARK   49  A    between atoms: C_50  and  C_51 
REMARK   50  A    between atoms: C_51  and  O_52 
REMARK   51  A    between atoms: O_52  and  C_53 
REMARK   52  A    between atoms: C_53  and  C_54 
REMARK   53  A    between atoms: C_54  and  O_55 
REMARK   54  A    between atoms: O_55  and  C_56 
REMARK   55  A    between atoms: C_56  and  C_57 
REMARK   56  A    between atoms: C_57  and  O_58 
REMARK   57  A    between atoms: O_58  and  C_59 
REMARK   58  A    between atoms: C_59  and  C_60 
REMARK   59  A    between atoms: C_60  and  O_61 
REMARK   60  A    between atoms: O_61  and  C_62 
REMARK   61  A    between atoms: C_62  and  C_63 
REMARK   62  A    between atoms: C_63  and  O_64 
REMARK   63  A    between atoms: O_64  and  C_65 
REMARK   64  A    between atoms: C_65  and  C_66 
REMARK   65  A    between atoms: C_66  and  O_67 
REMARK   66  A    between atoms: O_67  and  C_68 
REMARK   67  A    between atoms: C_68  and  C_69 
REMARK   68  A    between atoms: C_69  and  O_70 
REMARK   69  A    between atoms: O_70  and  C_71 
REMARK   70  A    between atoms: C_71  and  C_72 
REMARK   71  A    between atoms: C_72  and  O_73 
REMARK   72  A    between atoms: O_73  and  C_74 
REMARK   73  A    between atoms: C_74  and  C_75 
REMARK   74  A    between atoms: C_75  and  O_76 
REMARK   75  A    between atoms: O_76  and  C_77 
REMARK   76  A    between atoms: C_77  and  C_78 
REMARK   77  A    between atoms: C_78  and  O_79 
REMARK   78  A    between atoms: O_79  and  C_80 
REMARK   79  A    between atoms: C_80  and  C_81 
REMARK   80  A    between atoms: C_81  and  O_82 
ROOT
HETATM    1  C   UNL     1      41.655  22.192  16.684  1.00  0.00     0.193 C 
ENDROOT
BRANCH   1   2
HETATM    2  C   UNL     1      40.136  22.233  16.694  1.00  0.00     0.193 C 
BRANCH   2   3
HETATM    3  O   UNL     1      39.647  21.150  15.904  1.00  0.00    -0.387 OA
BRANCH   3   4
HETATM    4  C   UNL     1      38.227  21.138  15.872  1.00  0.00     0.193 C 
BRANCH   4   5
HETATM    5  C   UNL     1      37.764  19.983  15.005  1.00  0.00     0.193 C 
BRANCH   5   6
HETATM    6  O   UNL     1      36.343  19.968  14.995  1.00  0.00    -0.387 OA
BRANCH   6   7
HETATM    7  C   UNL     1      35.839  18.898  14.199  1.00  0.00     0.193 C 
BRANCH   7   8
HETATM    8  C   UNL     1      34.326  18.934  14.227  1.00  0.00     0.193 C 
BRANCH   8   9
HETATM    9  O   UNL     1      33.841  17.866  13.429  1.00  0.00    -0.387 OA
BRANCH   9  10
HETATM   10  C   UNL     1      32.415  17.842  13.413  1.00  0.00     0.193 C 
BRANCH  10  11
HETATM   11  C   UNL     1      31.945  16.687  12.547  1.00  0.00     0.193 C 
BRANCH  11  12
HETATM   12  O   UNL     1      30.519  16.667  12.534  1.00  0.00    -0.387 OA
BRANCH  12  13
HETATM   13  C   UNL     1      30.021  15.599  11.735  1.00  0.00     0.193 C 
BRANCH  13  14
HETATM   14  C   UNL     1      28.504  15.633  11.762  1.00  0.00     0.193 C 
BRANCH  14  15
HETATM   15  O   UNL     1      28.013  14.566  10.963  1.00  0.00    -0.387 OA
BRANCH  15  16
HETATM   16  C   UNL     1      26.590  14.544  10.949  1.00  0.00     0.193 C 
BRANCH  16  17
HETATM   17  C   UNL     1      26.129  13.388  10.083  1.00  0.00     0.193 C 
BRANCH  17  18
HETATM   18  O   UNL     1      24.711  13.377  10.076  1.00  0.00    -0.387 OA
BRANCH  18  19
HETATM   19  C   UNL     1      24.213  12.311   9.277  1.00  0.00     0.193 C 
BRANCH  19  20
HETATM   20  C   UNL     1      22.700  12.351   9.308  1.00  0.00     0.193 C 
BRANCH  20  21
HETATM   21  O   UNL     1      22.223  11.283   8.508  1.00  0.00    -0.387 OA
BRANCH  21  22
HETATM   22  C   UNL     1      20.795  11.256   8.490  1.00  0.00     0.193 C 
BRANCH  22  23
HETATM   23  C   UNL     1      20.321  10.101   7.626  1.00  0.00     0.193 C 
BRANCH  23  24
HETATM   24  O   UNL     1      18.898  10.086   7.620  1.00  0.00    -0.387 OA
BRANCH  24  25
HETATM   25  C   UNL     1      18.405   9.017   6.819  1.00  0.00     0.193 C 
BRANCH  25  26
HETATM   26  C   UNL     1      16.889   9.048   6.845  1.00  0.00     0.193 C 
BRANCH  26  27
HETATM   27  O   UNL     1      16.387   7.982   6.044  1.00  0.00    -0.387 OA
BRANCH  27  28
HETATM   28  C   UNL     1      14.969   7.976   6.040  1.00  0.00     0.193 C 
BRANCH  28  29
HETATM   29  C   UNL     1      14.511   6.822   5.175  1.00  0.00     0.193 C 
BRANCH  29  30
HETATM   30  O   UNL     1      13.090   6.805   5.160  1.00  0.00    -0.389 OA
BRANCH  30  31
HETATM   31  C   UNL     1      12.615   5.733   4.357  1.00  0.00     0.167 C 
BRANCH  31  32
HETATM   32  C   UNL     1      11.098   5.750   4.369  1.00  0.00     0.026 C 
BRANCH  32  33
HETATM   33  C   UNL     1      10.566   4.610   3.517  1.00  0.00     0.002 C 
BRANCH  33  34
HETATM   34  C   UNL     1       9.047   4.604   3.510  1.00  0.00     0.000 C 
BRANCH  34  35
HETATM   35  C   UNL     1       8.535   3.458   2.652  1.00  0.00     0.000 C 
BRANCH  35  36
HETATM   36  C   UNL     1       7.016   3.448   2.644  1.00  0.00     0.000 C 
BRANCH  36  37
HETATM   37  C   UNL     1       6.503   2.302   1.786  1.00  0.00     0.000 C 
BRANCH  37  38
HETATM   38  C   UNL     1       4.983   2.294   1.777  1.00  0.00     0.000 C 
BRANCH  38  39
HETATM   39  C   UNL     1       4.467   1.150   0.918  1.00  0.00     0.000 C 
BRANCH  39  40
HETATM   40  C   UNL     1       2.945   1.142   0.908  1.00  0.00    -0.000 C 
BRANCH  40  41
HETATM   41  C   UNL     1       2.416  -0.001   0.050  1.00  0.00    -0.005 C 
HETATM   42  C   UNL     1       0.899  -0.005   0.042  1.00  0.00     0.005 C 
ENDBRANCH  40  41
ENDBRANCH  39  40
ENDBRANCH  38  39
ENDBRANCH  37  38
ENDBRANCH  36  37
ENDBRANCH  35  36
ENDBRANCH  34  35
ENDBRANCH  33  34
ENDBRANCH  32  33
ENDBRANCH  31  32
ENDBRANCH  30  31
ENDBRANCH  29  30
ENDBRANCH  28  29
ENDBRANCH  27  28
ENDBRANCH  26  27
ENDBRANCH  25  26
ENDBRANCH  24  25
ENDBRANCH  23  24
ENDBRANCH  22  23
ENDBRANCH  21  22
ENDBRANCH  20  21
ENDBRANCH  19  20
ENDBRANCH  18  19
ENDBRANCH  17  18
ENDBRANCH  16  17
ENDBRANCH  15  16
ENDBRANCH  14  15
ENDBRANCH  13  14
ENDBRANCH  12  13
ENDBRANCH  11  12
ENDBRANCH  10  11
ENDBRANCH   9  10
ENDBRANCH   8   9
ENDBRANCH   7   8
ENDBRANCH   6   7
ENDBRANCH   5   6
ENDBRANCH   4   5
ENDBRANCH   3   4
ENDBRANCH   2   3
ENDBRANCH   1   2
BRANCH   1  43
HETATM   43  O   UNL     1      42.106  22.362  15.341  1.00  0.00    -0.387 OA
BRANCH  43  44
HETATM   44  C   UNL     1      43.530  22.341  15.269  1.00  0.00     0.193 C 
BRANCH  44  45
HETATM   45  C   UNL     1      43.954  22.507  13.822  1.00  0.00     0.193 C 
BRANCH  45  46
HETATM   46  O   UNL     1      45.375  22.494  13.765  1.00  0.00    -0.387 OA
BRANCH  46  47
HETATM   47  C   UNL     1      45.841  22.649  12.427  1.00  0.00     0.193 C 
BRANCH  47  48
HETATM   48  C   UNL     1      47.360  22.630  12.423  1.00  0.00     0.193 C 
BRANCH  48  49
HETATM   49  O   UNL     1      47.823  22.784  11.083  1.00  0.00    -0.387 OA
BRANCH  49  50
HETATM   50  C   UNL     1      49.243  22.770  11.032  1.00  0.00     0.193 C 
BRANCH  50  51
HETATM   51  C   UNL     1      49.668  22.939   9.586  1.00  0.00     0.193 C 
BRANCH  51  52
HETATM   52  O   UNL     1      51.089  22.925   9.524  1.00  0.00    -0.387 OA
BRANCH  52  53
HETATM   53  C   UNL     1      51.551  23.082   8.190  1.00  0.00     0.193 C 
BRANCH  53  54
HETATM   54  C   UNL     1      53.067  23.057   8.195  1.00  0.00     0.193 C 
BRANCH  54  55
HETATM   55  O   UNL     1      53.522  23.216   6.860  1.00  0.00    -0.387 OA
BRANCH  55  56
HETATM   56  C   UNL     1      54.943  23.202   6.795  1.00  0.00     0.193 C 
BRANCH  56  57
HETATM   57  C   UNL     1      55.366  23.372   5.349  1.00  0.00     0.193 C 
BRANCH  57  58
HETATM   58  O   UNL     1      56.787  23.359   5.295  1.00  0.00    -0.387 OA
BRANCH  58  59
HETATM   59  C   UNL     1      57.254  23.514   3.957  1.00  0.00     0.193 C 
BRANCH  59  60
HETATM   60  C   UNL     1      58.773  23.494   3.954  1.00  0.00     0.193 C 
BRANCH  60  61
HETATM   61  O   UNL     1      59.232  23.648   2.616  1.00  0.00    -0.387 OA
BRANCH  61  62
HETATM   62  C   UNL     1      60.652  23.635   2.561  1.00  0.00     0.193 C 
BRANCH  62  63
HETATM   63  C   UNL     1      61.076  23.802   1.115  1.00  0.00     0.193 C 
BRANCH  63  64
HETATM   64  O   UNL     1      62.497  23.790   1.054  1.00  0.00    -0.387 OA
BRANCH  64  65
HETATM   65  C   UNL     1      62.958  23.943  -0.282  1.00  0.00     0.193 C 
BRANCH  65  66
HETATM   66  C   UNL     1      64.473  23.922  -0.275  1.00  0.00     0.193 C 
BRANCH  66  67
HETATM   67  O   UNL     1      64.930  24.074  -1.614  1.00  0.00    -0.387 OA
BRANCH  67  68
HETATM   68  C   UNL     1      66.353  24.063  -1.678  1.00  0.00     0.193 C 
BRANCH  68  69
HETATM   69  C   UNL     1      66.787  24.229  -3.126  1.00  0.00     0.193 C 
BRANCH  69  70
HETATM   70  O   UNL     1      68.212  24.218  -3.188  1.00  0.00    -0.387 OA
BRANCH  70  71
HETATM   71  C   UNL     1      68.673  24.372  -4.525  1.00  0.00     0.193 C 
BRANCH  71  72
HETATM   72  C   UNL     1      70.188  24.351  -4.521  1.00  0.00     0.193 C 
BRANCH  72  73
HETATM   73  O   UNL     1      70.651  24.505  -5.854  1.00  0.00    -0.387 OA
BRANCH  73  74
HETATM   74  C   UNL     1      72.071  24.492  -5.917  1.00  0.00     0.193 C 
BRANCH  74  75
HETATM   75  C   UNL     1      72.495  24.662  -7.364  1.00  0.00     0.193 C 
BRANCH  75  76
HETATM   76  O   UNL     1      73.913  24.651  -7.428  1.00  0.00    -0.387 OA
BRANCH  76  77
HETATM   77  C   UNL     1      74.372  24.808  -8.767  1.00  0.00     0.193 C 
BRANCH  77  78
HETATM   78  C   UNL     1      75.889  24.788  -8.767  1.00  0.00     0.193 C 
BRANCH  78  79
HETATM   79  O   UNL     1      76.353  24.938 -10.107  1.00  0.00    -0.387 OA
BRANCH  79  80
HETATM   80  C   UNL     1      77.785  24.939 -10.154  1.00  0.00     0.193 C 
BRANCH  80  81
HETATM   81  C   UNL     1      78.238  25.095 -11.602  1.00  0.00     0.190 C 
BRANCH  81  82
HETATM   82  O   UNL     1      77.763  26.326 -12.144  1.00  0.00    -0.399 OA
HETATM   83  H   UNL     1      76.795  26.306 -12.018  1.00  0.00     0.209 HD
ENDBRANCH  81  82
ENDBRANCH  80  81
ENDBRANCH  79  80
ENDBRANCH  78  79
ENDBRANCH  77  78
ENDBRANCH  76  77
ENDBRANCH  75  76
ENDBRANCH  74  75
ENDBRANCH  73  74
ENDBRANCH  72  73
ENDBRANCH  71  72
ENDBRANCH  70  71
ENDBRANCH  69  70
ENDBRANCH  68  69
ENDBRANCH  67  68
ENDBRANCH  66  67
ENDBRANCH  65  66
ENDBRANCH  64  65
ENDBRANCH  63  64
ENDBRANCH  62  63
ENDBRANCH  61  62
ENDBRANCH  60  61
ENDBRANCH  59  60
ENDBRANCH  58  59
ENDBRANCH  57  58
ENDBRANCH  56  57
ENDBRANCH  55  56
ENDBRANCH  54  55
ENDBRANCH  53  54
ENDBRANCH  52  53
ENDBRANCH  51  52
ENDBRANCH  50  51
ENDBRANCH  49  50
ENDBRANCH  48  49
ENDBRANCH  47  48
ENDBRANCH  46  47
ENDBRANCH  45  46
ENDBRANCH  44  45
ENDBRANCH  43  44
ENDBRANCH   1  43
TORSDOF 80
