REMARK  16 active torsions:
REMARK  status: ('A' for Active; 'I' for Inactive)
REMARK    1  A    between atoms: C_2  and  C_3 
REMARK    2  A    between atoms: C_3  and  C_4 
REMARK    3  A    between atoms: C_4  and  C_5 
REMARK    4  A    between atoms: C_5  and  C_6 
REMARK    5  A    between atoms: C_6  and  C_7 
REMARK    6  A    between atoms: C_7  and  C_8 
REMARK    7  A    between atoms: C_8  and  C_9 
REMARK    8  A    between atoms: C_9  and  C_10 
REMARK    9  A    between atoms: C_10  and  C_11 
REMARK   10  A    between atoms: C_11  and  C_12 
REMARK       I    between atoms: C_12  and  N_14 
REMARK   11  A    between atoms: N_14  and  C_15 
REMARK   12  A    between atoms: N_14  and  C_18 
REMARK   13  A    between atoms: C_15  and  C_16 
REMARK   14  A    between atoms: C_16  and  O_17 
REMARK   15  A    between atoms: C_18  and  C_19 
REMARK   16  A    between atoms: C_19  and  O_20 
ROOT
HETATM    1  C   UNL     1      11.287   6.377   2.651  1.00  0.00     0.103 C 
ENDROOT
BRANCH   1   2
HETATM    2  C   UNL     1      10.771   5.049   2.114  1.00  0.00     0.009 C 
BRANCH   2   3
HETATM    3  C   UNL     1       9.239   5.097   2.138  1.00  0.00     0.000 C 
BRANCH   3   4
HETATM    4  C   UNL     1       8.643   3.805   1.610  1.00  0.00     0.000 C 
BRANCH   4   5
HETATM    5  C   UNL     1       7.119   3.855   1.632  1.00  0.00     0.000 C 
BRANCH   5   6
HETATM    6  C   UNL     1       6.564   2.541   1.098  1.00  0.00     0.000 C 
BRANCH   6   7
HETATM    7  C   UNL     1       5.043   2.540   1.098  1.00  0.00     0.000 C 
BRANCH   7   8
HETATM    8  C   UNL     1       4.521   1.212   0.560  1.00  0.00     0.000 C 
BRANCH   8   9
HETATM    9  C   UNL     1       2.998   1.194   0.555  1.00  0.00    -0.000 C 
BRANCH   9  10
HETATM   10  C   UNL     1       2.469  -0.133   0.020  1.00  0.00    -0.005 C 
HETATM   11  C   UNL     1       0.951  -0.148   0.016  1.00  0.00     0.005 C 
ENDBRANCH   9  10
ENDBRANCH   8   9
ENDBRANCH   7   8
ENDBRANCH   6   7
ENDBRANCH   5   6
ENDBRANCH   4   5
ENDBRANCH   3   4
ENDBRANCH   2   3
ENDBRANCH   1   2
BRANCH   1  12
HETATM   12  C   UNL     1      12.790   6.524   2.684  1.00  0.00     0.219 C 
HETATM   13  O   UNL     1      13.445   5.739   3.403  1.00  0.00    -0.273 OA
HETATM   14  N   UNL     1      13.399   7.521   1.933  1.00  0.00    -0.348 N 
BRANCH  14  15
HETATM   15  C   UNL     1      12.717   8.604   1.155  1.00  0.00     0.151 C 
BRANCH  15  16
HETATM   16  C   UNL     1      12.492   8.382  -0.353  1.00  0.00     0.183 C 
BRANCH  16  17
HETATM   17  O   UNL     1      11.644   7.268  -0.596  1.00  0.00    -0.399 OA
HETATM   18  H   UNL     1      12.225   6.482  -0.645  1.00  0.00     0.209 HD
ENDBRANCH  16  17
ENDBRANCH  15  16
ENDBRANCH  14  15
BRANCH  14  19
HETATM   19  C   UNL     1      14.860   7.622   2.079  1.00  0.00     0.151 C 
BRANCH  19  20
HETATM   20  C   UNL     1      15.623   6.383   1.583  1.00  0.00     0.183 C 
BRANCH  20  21
HETATM   21  O   UNL     1      15.376   6.156   0.194  1.00  0.00    -0.399 OA
HETATM   22  H   UNL     1      14.440   5.907   0.130  1.00  0.00     0.209 HD
ENDBRANCH  20  21
ENDBRANCH  19  20
ENDBRANCH  14  19
ENDBRANCH   1  12
TORSDOF 16
