REMARK WARNING: 32 MAX_TORS EXCEEDED!!!
REMARK  40 active torsions:
REMARK  status: ('A' for Active; 'I' for Inactive)
REMARK    1  A    between atoms: C_2  and  C_3 
REMARK    2  A    between atoms: C_3  and  C_4 
REMARK    3  A    between atoms: C_4  and  C_5 
REMARK    4  A    between atoms: C_5  and  C_6 
REMARK    5  A    between atoms: C_6  and  C_7 
REMARK    6  A    between atoms: C_7  and  C_8 
REMARK    7  A    between atoms: C_8  and  C_9 
REMARK    8  A    between atoms: C_9  and  C_10 
REMARK    9  A    between atoms: C_10  and  C_11 
REMARK   10  A    between atoms: C_11  and  C_12 
REMARK   11  A    between atoms: C_12  and  C_13 
REMARK   12  A    between atoms: C_13  and  C_14 
REMARK   13  A    between atoms: C_14  and  C_15 
REMARK   14  A    between atoms: C_15  and  C_16 
REMARK   15  A    between atoms: C_16  and  O_18 
REMARK   16  A    between atoms: O_18  and  C_19 
REMARK   17  A    between atoms: C_19  and  C_20 
REMARK   18  A    between atoms: C_20  and  C_21 
REMARK   19  A    between atoms: C_20  and  O_33 
REMARK   20  A    between atoms: C_21  and  O_22 
REMARK   21  A    between atoms: O_22  and  P_23 
REMARK   22  A    between atoms: P_23  and  O_26 
REMARK   23  A    between atoms: O_26  and  C_27 
REMARK   24  A    between atoms: C_27  and  C_28 
REMARK   25  A    between atoms: C_28  and  N_29 
REMARK   26  A    between atoms: O_33  and  C_34 
REMARK   27  A    between atoms: C_34  and  C_36 
REMARK   28  A    between atoms: C_36  and  C_37 
REMARK   29  A    between atoms: C_37  and  C_38 
REMARK   30  A    between atoms: C_38  and  C_39 
REMARK   31  A    between atoms: C_39  and  C_40 
REMARK   32  A    between atoms: C_40  and  C_41 
REMARK   33  A    between atoms: C_41  and  C_42 
REMARK   34  A    between atoms: C_42  and  C_43 
REMARK   35  A    between atoms: C_44  and  C_45 
REMARK   36  A    between atoms: C_45  and  C_46 
REMARK   37  A    between atoms: C_47  and  C_48 
REMARK   38  A    between atoms: C_48  and  C_49 
REMARK   39  A    between atoms: C_49  and  C_50 
REMARK   40  A    between atoms: C_50  and  C_51 
ROOT
HETATM    1  C   UNL     1      19.407   6.232 -11.144  1.00  0.00     0.180 C 
ENDROOT
BRANCH   1   2
HETATM    2  C   UNL     1      18.850   5.556  -9.887  1.00  0.00     0.213 C 
BRANCH   2   3
HETATM    3  O   UNL     1      19.305   4.187  -9.800  1.00  0.00    -0.319 OA
BRANCH   3   4
HETATM    4  C   UNL     1      18.608   3.307 -10.585  1.00  0.00     0.258 C 
HETATM    5  O   UNL     1      17.669   3.609 -11.295  1.00  0.00    -0.265 OA
BRANCH   4   6
HETATM    6  C   UNL     1      19.137   1.884 -10.453  1.00  0.00     0.111 C 
BRANCH   6   7
HETATM    7  C   UNL     1      18.916   1.134 -11.770  1.00  0.00     0.010 C 
BRANCH   7   8
HETATM    8  C   UNL     1      19.412  -0.307 -11.709  1.00  0.00     0.000 C 
BRANCH   8   9
HETATM    9  C   UNL     1      19.165  -1.006 -13.042  1.00  0.00     0.000 C 
BRANCH   9  10
HETATM   10  C   UNL     1      19.663  -2.441 -12.987  1.00  0.00     0.000 C 
BRANCH  10  11
HETATM   11  C   UNL     1      19.417  -3.135 -14.317  1.00  0.00     0.000 C 
BRANCH  11  12
HETATM   12  C   UNL     1      19.917  -4.567 -14.255  1.00  0.00     0.000 C 
BRANCH  12  13
HETATM   13  C   UNL     1      19.670  -5.261 -15.582  1.00  0.00     0.000 C 
BRANCH  13  14
HETATM   14  C   UNL     1      20.169  -6.693 -15.518  1.00  0.00     0.000 C 
BRANCH  14  15
HETATM   15  C   UNL     1      19.921  -7.386 -16.845  1.00  0.00     0.000 C 
BRANCH  15  16
HETATM   16  C   UNL     1      20.420  -8.818 -16.783  1.00  0.00     0.000 C 
BRANCH  16  17
HETATM   17  C   UNL     1      20.170  -9.513 -18.110  1.00  0.00     0.000 C 
BRANCH  17  18
HETATM   18  C   UNL     1      20.668 -10.948 -18.050  1.00  0.00    -0.000 C 
BRANCH  18  19
HETATM   19  C   UNL     1      20.422 -11.652 -19.376  1.00  0.00    -0.005 C 
HETATM   20  C   UNL     1      20.922 -13.082 -19.314  1.00  0.00     0.005 C 
ENDBRANCH  18  19
ENDBRANCH  17  18
ENDBRANCH  16  17
ENDBRANCH  15  16
ENDBRANCH  14  15
ENDBRANCH  13  14
ENDBRANCH  12  13
ENDBRANCH  11  12
ENDBRANCH  10  11
ENDBRANCH   9  10
ENDBRANCH   8   9
ENDBRANCH   7   8
ENDBRANCH   6   7
ENDBRANCH   4   6
ENDBRANCH   3   4
ENDBRANCH   2   3
ENDBRANCH   1   2
BRANCH   1  21
HETATM   21  C   UNL     1      18.885   7.692 -11.163  1.00  0.00     0.216 C 
BRANCH  21  22
HETATM   22  O   UNL     1      19.248   8.644 -12.342  1.00  0.00    -0.287 OA
BRANCH  22  23
HETATM   23  P   UNL     1      18.441  10.020 -11.885  1.00  0.00     0.408 P 
HETATM   24  O   UNL     1      17.039   9.563 -12.124  1.00  0.00    -0.624 OA
HETATM   25  O   UNL     1      19.398  10.479 -10.821  1.00  0.00    -0.624 OA
BRANCH  23  26
HETATM   26  O   UNL     1      18.190  11.577 -12.481  1.00  0.00    -0.288 OA
BRANCH  26  27
HETATM   27  C   UNL     1      19.089  12.575 -12.632  1.00  0.00     0.209 C 
BRANCH  27  28
HETATM   28  C   UNL     1      18.524  14.003 -12.567  1.00  0.00     0.262 C 
BRANCH  28  29
HETATM   29  N   UNL     1      18.095  14.414 -11.142  1.00  0.00    -0.077 N 
HETATM   30  C   UNL     1      17.001  13.467 -10.648  1.00  0.00     0.271 C 
HETATM   31  C   UNL     1      19.295  14.316 -10.201  1.00  0.00     0.271 C 
HETATM   32  C   UNL     1      17.571  15.820 -11.155  1.00  0.00     0.271 C 
ENDBRANCH  28  29
ENDBRANCH  27  28
ENDBRANCH  26  27
ENDBRANCH  23  26
ENDBRANCH  22  23
ENDBRANCH  21  22
ENDBRANCH   1  21
BRANCH   1  33
HETATM   33  O   UNL     1      20.851   6.231 -11.103  1.00  0.00    -0.312 OA
BRANCH  33  34
HETATM   34  C   UNL     1      21.493   5.691 -12.203  1.00  0.00     0.259 C 
HETATM   35  O   UNL     1      21.038   5.531 -13.260  1.00  0.00    -0.265 OA
BRANCH  34  36
HETATM   36  C   UNL     1      22.818   5.132 -11.798  1.00  0.00     0.111 C 
BRANCH  36  37
HETATM   37  C   UNL     1      23.938   5.753 -12.629  1.00  0.00     0.010 C 
BRANCH  37  38
HETATM   38  C   UNL     1      24.018   7.263 -12.422  1.00  0.00     0.000 C 
BRANCH  38  39
HETATM   39  C   UNL     1      25.129   7.859 -13.276  1.00  0.00     0.000 C 
BRANCH  39  40
HETATM   40  C   UNL     1      25.202   9.366 -13.065  1.00  0.00     0.000 C 
BRANCH  40  41
HETATM   41  C   UNL     1      26.315   9.965 -13.918  1.00  0.00     0.004 C 
BRANCH  41  42
HETATM   42  C   UNL     1      26.389  11.471 -13.698  1.00  0.00     0.027 C 
BRANCH  42  43
HETATM   43  C   UNL     1      27.477  12.074 -14.555  1.00  0.00    -0.030 C 
HETATM   44  C   UNL     1      28.509  12.748 -13.977  1.00  0.00    -0.027 C 
BRANCH  44  45
HETATM   45  C   UNL     1      29.616  13.330 -14.812  1.00  0.00     0.053 C 
BRANCH  45  46
HETATM   46  C   UNL     1      29.739  14.818 -14.606  1.00  0.00    -0.027 C 
HETATM   47  C   UNL     1      30.780  15.421 -14.160  1.00  0.00    -0.030 C 
BRANCH  47  48
HETATM   48  C   UNL     1      30.879  16.891 -13.983  1.00  0.00     0.027 C 
BRANCH  48  49
HETATM   49  C   UNL     1      31.999  17.485 -14.831  1.00  0.00     0.004 C 
BRANCH  49  50
HETATM   50  C   UNL     1      32.070  18.994 -14.644  1.00  0.00    -0.000 C 
BRANCH  50  51
HETATM   51  C   UNL     1      33.185  19.585 -15.498  1.00  0.00    -0.005 C 
HETATM   52  C   UNL     1      33.256  21.088 -15.310  1.00  0.00     0.005 C 
ENDBRANCH  50  51
ENDBRANCH  49  50
ENDBRANCH  48  49
ENDBRANCH  47  48
ENDBRANCH  45  46
ENDBRANCH  44  45
ENDBRANCH  42  43
ENDBRANCH  41  42
ENDBRANCH  40  41
ENDBRANCH  39  40
ENDBRANCH  38  39
ENDBRANCH  37  38
ENDBRANCH  36  37
ENDBRANCH  34  36
ENDBRANCH  33  34
ENDBRANCH   1  33
TORSDOF 40
