REMARK  5 active torsions:
REMARK  status: ('A' for Active; 'I' for Inactive)
REMARK    1  A    between atoms: CG_2  and  CB_4 
REMARK    2  A    between atoms: CB_4  and  CA_5 
REMARK    3  A    between atoms: CA_5  and  C_6 
REMARK    4  A    between atoms: CA_5  and  N_9 
REMARK    5  A    between atoms: C_6  and  OXT_8 
ROOT
ATOM      1  CA  LEU A   1       4.675   1.252  -0.665  1.00  0.00     0.314 C 
ENDROOT
BRANCH   1   2
ATOM      2  CB  LEU A   1       3.148   1.113  -0.812  1.00  0.00     0.050 C 
BRANCH   2   3
ATOM      3  CG  LEU A   1       2.531  -0.108  -0.095  1.00  0.00    -0.020 C 
ATOM      4  CD1 LEU A   1       2.790  -0.102   1.411  1.00  0.00     0.009 C 
ATOM      5  CD2 LEU A   1       1.019  -0.161  -0.343  1.00  0.00     0.009 C 
ENDBRANCH   2   3
ENDBRANCH   1   2
BRANCH   1   6
ATOM      6  C   LEU A   1       5.438   0.034  -1.218  1.00  0.00     0.173 C 
ATOM      7  O   LEU A   1       5.083  -0.645  -2.170  1.00  0.00    -0.648 OA
BRANCH   6   8
ATOM      8  OXT LEU A   1       6.631  -0.160  -0.600  1.00  0.00    -0.775 OA
ATOM      9  HXT LEU A   1       6.808   0.480   0.116  1.00  0.00     0.167 HD
ENDBRANCH   6   8
ENDBRANCH   1   6
BRANCH   1  10
ATOM     10  N   LEU A   1       5.136   2.463  -1.378  1.00  0.00     0.093 N 
ATOM     11  H1  LEU A   1       4.848   2.385  -2.358  1.00  0.00     0.314 HD
ATOM     12  H2  LEU A   1       6.155   2.491  -1.407  1.00  0.00     0.314 HD
ENDBRANCH   1  10
TORSDOF 5
