REMARK  4 active torsions:
REMARK  status: ('A' for Active; 'I' for Inactive)
REMARK    1  A    between atoms: C_2  and  C_4 
REMARK    2  A    between atoms: C_4  and  C_5 
REMARK    3  A    between atoms: C_5  and  C_6 
REMARK    4  A    between atoms: C_6  and  O_8 
ROOT
HETATM    1  C   UNL     1       4.734   0.805   0.841  1.00  0.00     0.117 C 
ENDROOT
BRANCH   1   2
HETATM    2  C   UNL     1       3.221   0.937   0.976  1.00  0.00     0.088 C 
BRANCH   2   3
HETATM    3  C   UNL     1       2.490   0.010   0.030  1.00  0.00     0.123 C 
HETATM    4  C   UNL     1       0.984   0.055   0.078  1.00  0.00     0.091 C 
HETATM    5  O   UNL     1       3.084  -0.743  -0.741  1.00  0.00    -0.298 OA
ENDBRANCH   2   3
ENDBRANCH   1   2
BRANCH   1   6
HETATM    6  C   UNL     1       5.445   1.736   1.788  1.00  0.00     0.139 C 
HETATM    7  O   UNL     1       4.892   2.497   2.566  1.00  0.00    -0.650 OA
BRANCH   6   8
HETATM    8  O   UNL     1       6.790   1.646   1.693  1.00  0.00    -0.776 OA
HETATM    9  H   UNL     1       7.097   0.996   1.031  1.00  0.00     0.167 HD
ENDBRANCH   6   8
ENDBRANCH   1   6
TORSDOF 4
