REMARK  6 active torsions:
REMARK  status: ('A' for Active; 'I' for Inactive)
REMARK    1  A    between atoms: C_19  and  C_20 
REMARK    2  A    between atoms: C_19  and  O_34 
REMARK    3  A    between atoms: C_20  and  O_33 
REMARK    4  A    between atoms: C_23  and  O_27 
REMARK    5  A    between atoms: O_27  and  P_28 
REMARK    6  A    between atoms: P_28  and  O_30 
ROOT
HETATM    1 MG   UNL     4       4.226   1.723   0.976  1.00  0.00     0.000 Mg
ENDROOT
TORSDOF 6
