REMARK  6 active torsions:
REMARK  status: ('A' for Active; 'I' for Inactive)
REMARK    1  A    between atoms: C_1  and  C_2 
REMARK    2  A    between atoms: C_1  and  C_7 
REMARK    3  A    between atoms: C_2  and  C_3 
REMARK    4  A    between atoms: C_2  and  O_6 
REMARK    5  A    between atoms: C_3  and  O_5 
REMARK    6  A    between atoms: C_7  and  O_9 
ROOT
HETATM    1  C   UNL     1       0.633  -1.310   0.087  1.00  0.00     0.225 C 
ENDROOT
BRANCH   1   2
HETATM    2  C   UNL     1       1.135   0.124  -0.022  1.00  0.00     0.152 C 
BRANCH   2   3
HETATM    3  C   UNL     1       2.634   0.172  -0.038  1.00  0.00     0.142 C 
HETATM    4  O   UNL     1       3.345  -0.821   0.032  1.00  0.00    -0.650 OA
BRANCH   3   5
HETATM    5  O   UNL     1       3.128   1.424  -0.099  1.00  0.00    -0.776 OA
HETATM    6  H   UNL     1       2.451   2.128  -0.131  1.00  0.00     0.167 HD
ENDBRANCH   3   5
ENDBRANCH   2   3
ENDBRANCH   1   2
BRANCH   1   7
HETATM    7  C   UNL     1       0.866  -1.907   1.479  1.00  0.00     0.170 C 
HETATM    8  O   UNL     1      -0.061  -2.088   2.264  1.00  0.00    -0.648 OA
BRANCH   7   9
HETATM    9  O   UNL     1       2.139  -2.228   1.782  1.00  0.00    -0.775 OA
HETATM   10  H   UNL     1       2.807  -2.006   1.085  1.00  0.00     0.167 HD
ENDBRANCH   7   9
ENDBRANCH   1   7
BRANCH   1  11
HETATM   11  O   UNL     1      -0.778  -1.268  -0.184  1.00  0.00    -0.384 OA
HETATM   12  H   UNL     1      -1.231  -1.470   0.663  1.00  0.00     0.210 HD
ENDBRANCH   1  11
TORSDOF 6
