REMARK  12 active torsions:
REMARK  status: ('A' for Active; 'I' for Inactive)
REMARK    1  A    between atoms: C_1  and  C_2 
REMARK    2  A    between atoms: C_1  and  O_23 
REMARK    3  A    between atoms: C_3  and  O_22 
REMARK    4  A    between atoms: C_4  and  O_21 
REMARK    5  A    between atoms: C_5  and  O_20 
REMARK    6  A    between atoms: C_6  and  O_8 
REMARK    7  A    between atoms: O_8  and  C_9 
REMARK    8  A    between atoms: C_10  and  C_18 
REMARK    9  A    between atoms: C_12  and  O_17 
REMARK   10  A    between atoms: C_13  and  O_16 
REMARK   11  A    between atoms: C_14  and  O_15 
REMARK   12  A    between atoms: C_18  and  O_19 
ROOT
HETATM    1  O   UNL     1       0.534   3.803  -2.473  1.00  0.00    -0.348 OA
ENDROOT
BRANCH   1   2
HETATM    2  C   UNL     1       0.594   2.468  -1.920  1.00  0.00     0.292 C 
HETATM    3  C   UNL     1      -0.239   1.477  -2.759  1.00  0.00     0.204 C 
HETATM    4  C   UNL     1      -0.216   0.095  -2.104  1.00  0.00     0.183 C 
HETATM    5  C   UNL     1      -0.732   0.161  -0.662  1.00  0.00     0.180 C 
HETATM    6  C   UNL     1       0.048   1.241   0.120  1.00  0.00     0.179 C 
HETATM    7  O   UNL     1       0.068   2.509  -0.583  1.00  0.00    -0.348 OA
BRANCH   3   8
HETATM    8  O   UNL     1      -1.602   1.940  -2.859  1.00  0.00    -0.388 OA
HETATM    9  H   UNL     1      -1.589   2.903  -2.677  1.00  0.00     0.210 HD
ENDBRANCH   3   8
BRANCH   4  10
HETATM   10  O   UNL     1      -0.987  -0.812  -2.893  1.00  0.00    -0.390 OA
HETATM   11  H   UNL     1      -1.885  -0.424  -2.921  1.00  0.00     0.210 HD
ENDBRANCH   4  10
BRANCH   5  12
HETATM   12  O   UNL     1      -2.136   0.473  -0.640  1.00  0.00    -0.390 OA
HETATM   13  H   UNL     1      -2.240   1.376  -0.998  1.00  0.00     0.210 HD
ENDBRANCH   5  12
BRANCH   6  14
HETATM   14  C   UNL     1       1.460   0.772   0.517  1.00  0.00     0.198 C 
BRANCH  14  15
HETATM   15  O   UNL     1       1.393  -0.435   1.263  1.00  0.00    -0.398 OA
HETATM   16  H   UNL     1       2.283  -0.628   1.607  1.00  0.00     0.209 HD
ENDBRANCH  14  15
ENDBRANCH   6  14
ENDBRANCH   1   2
BRANCH   1  17
HETATM   17  C   UNL     1       1.014   3.958  -3.838  1.00  0.00     0.187 C 
HETATM   18  C   UNL     1       2.536   3.723  -3.949  1.00  0.00     0.180 C 
HETATM   19  O   UNL     1       3.299   4.769  -3.334  1.00  0.00    -0.349 OA
HETATM   20  C   UNL     1       2.977   6.103  -3.695  1.00  0.00     0.288 C 
HETATM   21  C   UNL     1       1.476   6.445  -3.639  1.00  0.00     0.204 C 
HETATM   22  C   UNL     1       0.641   5.368  -4.339  1.00  0.00     0.183 C 
BRANCH  18  23
HETATM   23  C   UNL     1       2.990   3.401  -5.385  1.00  0.00     0.198 C 
BRANCH  23  24
HETATM   24  O   UNL     1       2.635   4.430  -6.303  1.00  0.00    -0.398 OA
HETATM   25  H   UNL     1       2.055   4.036  -6.984  1.00  0.00     0.209 HD
ENDBRANCH  23  24
ENDBRANCH  18  23
BRANCH  20  26
HETATM   26  O   UNL     1       3.555   6.470  -4.942  1.00  0.00    -0.369 OA
HETATM   27  H   UNL     1       3.199   5.858  -5.618  1.00  0.00     0.212 HD
ENDBRANCH  20  26
BRANCH  21  28
HETATM   28  O   UNL     1       1.235   7.733  -4.229  1.00  0.00    -0.388 OA
HETATM   29  H   UNL     1       1.954   7.877  -4.878  1.00  0.00     0.210 HD
ENDBRANCH  21  28
BRANCH  22  30
HETATM   30  O   UNL     1      -0.765   5.565  -4.161  1.00  0.00    -0.390 OA
HETATM   31  H   UNL     1      -0.915   5.760  -3.211  1.00  0.00     0.210 HD
ENDBRANCH  22  30
ENDBRANCH   1  17
TORSDOF 12
