REMARK  4 active torsions:
REMARK  status: ('A' for Active; 'I' for Inactive)
REMARK    1  A    between atoms: C_4  and  C_7 
REMARK    2  A    between atoms: C_7  and  C_8 
REMARK    3  A    between atoms: C_7  and  O_11 
REMARK    4  A    between atoms: C_8  and  O_10 
ROOT
HETATM    1  C   UNL     1      -2.797   0.519  -0.210  1.00  0.00     0.248 C 
ENDROOT
BRANCH   1   2
HETATM    2  C   UNL     1      -1.310   0.249  -0.058  1.00  0.00    -0.019 A 
HETATM    3  C   UNL     1      -0.811  -1.066  -0.084  1.00  0.00     0.010 A 
HETATM    4  C   UNL     1       0.564  -1.314  -0.019  1.00  0.00     0.001 A 
HETATM    5  C   UNL     1       1.463  -0.255   0.069  1.00  0.00     0.000 A 
HETATM    6  C   UNL     1       0.989   1.052   0.117  1.00  0.00     0.001 A 
HETATM    7  C   UNL     1      -0.384   1.300   0.059  1.00  0.00     0.010 A 
ENDBRANCH   1   2
BRANCH   1   8
HETATM    8  C   UNL     1      -3.654  -0.140   0.881  1.00  0.00     0.174 C 
HETATM    9  O   UNL     1      -3.960   0.428   1.922  1.00  0.00    -0.648 OA
BRANCH   8  10
HETATM   10  O   UNL     1      -4.087  -1.390   0.590  1.00  0.00    -0.774 OA
HETATM   11  H   UNL     1      -3.846  -1.703  -0.302  1.00  0.00     0.167 HD
ENDBRANCH   8  10
ENDBRANCH   1   8
BRANCH   1  12
HETATM   12  O   UNL     1      -3.067   1.926  -0.213  1.00  0.00    -0.380 OA
HETATM   13  H   UNL     1      -3.240   2.162   0.721  1.00  0.00     0.211 HD
ENDBRANCH   1  12
TORSDOF 4
