REMARK  11 active torsions:
REMARK  status: ('A' for Active; 'I' for Inactive)
REMARK    1  A    between atoms: C_1  and  C_2 
REMARK    2  A    between atoms: C_1  and  O_12 
REMARK    3  A    between atoms: C_2  and  C_3 
REMARK    4  A    between atoms: C_2  and  O_11 
REMARK    5  A    between atoms: C_3  and  C_4 
REMARK    6  A    between atoms: C_3  and  O_10 
REMARK    7  A    between atoms: C_4  and  C_5 
REMARK    8  A    between atoms: C_4  and  O_9 
REMARK    9  A    between atoms: C_5  and  C_6 
REMARK   10  A    between atoms: C_5  and  O_8 
REMARK   11  A    between atoms: C_6  and  O_7 
ROOT
HETATM    1  C   UNL     1       0.960   2.533  -0.229  1.00  0.00     0.180 C 
ENDROOT
BRANCH   1   2
HETATM    2  C   UNL     1       0.470   1.266   0.535  1.00  0.00     0.173 C 
BRANCH   2   3
HETATM    3  C   UNL     1       1.021  -0.035  -0.082  1.00  0.00     0.198 C 
BRANCH   3   4
HETATM    4  O   UNL     1       2.440  -0.106  -0.047  1.00  0.00    -0.398 OA
HETATM    5  H   UNL     1       2.774   0.693  -0.508  1.00  0.00     0.209 HD
ENDBRANCH   3   4
ENDBRANCH   2   3
BRANCH   2   6
HETATM    6  O   UNL     1      -0.951   1.169   0.590  1.00  0.00    -0.391 OA
HETATM    7  H   UNL     1      -1.305   1.204  -0.314  1.00  0.00     0.210 HD
ENDBRANCH   2   6
ENDBRANCH   1   2
BRANCH   1   8
HETATM    8  C   UNL     1       0.446   3.876   0.368  1.00  0.00     0.180 C 
BRANCH   8   9
HETATM    9  C   UNL     1       0.945   5.137  -0.387  1.00  0.00     0.173 C 
BRANCH   9  10
HETATM   10  C   UNL     1       0.377   6.428   0.228  1.00  0.00     0.198 C 
BRANCH  10  11
HETATM   11  O   UNL     1       0.857   7.561  -0.500  1.00  0.00    -0.398 OA
HETATM   12  H   UNL     1       1.793   7.374  -0.705  1.00  0.00     0.209 HD
ENDBRANCH  10  11
ENDBRANCH   9  10
BRANCH   9  13
HETATM   13  O   UNL     1       2.372   5.267  -0.396  1.00  0.00    -0.391 OA
HETATM   14  H   UNL     1       2.690   5.246   0.521  1.00  0.00     0.210 HD
ENDBRANCH   9  13
ENDBRANCH   8   9
BRANCH   8  15
HETATM   15  O   UNL     1      -0.981   3.912   0.409  1.00  0.00    -0.390 OA
HETATM   16  H   UNL     1      -1.324   3.875  -0.501  1.00  0.00     0.210 HD
ENDBRANCH   8  15
ENDBRANCH   1   8
BRANCH   1  17
HETATM   17  O   UNL     1       2.393   2.506  -0.282  1.00  0.00    -0.390 OA
HETATM   18  H   UNL     1       2.729   2.607   0.626  1.00  0.00     0.210 HD
ENDBRANCH   1  17
TORSDOF 11
