REMARK  24 active torsions:
REMARK  status: ('A' for Active; 'I' for Inactive)
REMARK    1  A    between atoms: C_1  and  C_2 
REMARK    2  A    between atoms: C_1  and  O_45 
REMARK    3  A    between atoms: C_3  and  O_44 
REMARK    4  A    between atoms: C_4  and  O_43 
REMARK    5  A    between atoms: C_5  and  O_42 
REMARK    6  A    between atoms: C_6  and  O_8 
REMARK    7  A    between atoms: O_8  and  C_9 
REMARK    8  A    between atoms: C_10  and  C_40 
REMARK    9  A    between atoms: C_12  and  O_17 
REMARK   10  A    between atoms: C_13  and  O_16 
REMARK   11  A    between atoms: C_14  and  O_15 
REMARK   12  A    between atoms: O_17  and  C_18 
REMARK   13  A    between atoms: C_19  and  C_38 
REMARK   14  A    between atoms: C_21  and  O_26 
REMARK   15  A    between atoms: C_22  and  O_25 
REMARK   16  A    between atoms: C_23  and  O_24 
REMARK   17  A    between atoms: O_26  and  C_27 
REMARK   18  A    between atoms: C_28  and  C_36 
REMARK   19  A    between atoms: C_30  and  O_35 
REMARK   20  A    between atoms: C_31  and  O_34 
REMARK   21  A    between atoms: C_32  and  O_33 
REMARK   22  A    between atoms: C_36  and  O_37 
REMARK   23  A    between atoms: C_38  and  O_39 
REMARK   24  A    between atoms: C_40  and  O_41 
ROOT
HETATM    1  O   UNL     1       3.207   4.397   3.346  1.00  0.00    -0.348 OA
ENDROOT
BRANCH   1   2
HETATM    2  C   UNL     1       2.313   3.733   2.410  1.00  0.00     0.292 C 
HETATM    3  O   UNL     1       1.608   4.645   1.565  1.00  0.00    -0.348 OA
HETATM    4  C   UNL     1       0.332   5.130   2.020  1.00  0.00     0.180 C 
HETATM    5  C   UNL     1      -0.634   4.006   2.475  1.00  0.00     0.187 C 
HETATM    6  C   UNL     1       0.073   3.216   3.583  1.00  0.00     0.183 C 
HETATM    7  C   UNL     1       1.398   2.647   3.052  1.00  0.00     0.204 C 
BRANCH   4   8
HETATM    8  C   UNL     1       0.477   6.220   3.102  1.00  0.00     0.198 C 
BRANCH   8   9
HETATM    9  O   UNL     1      -0.777   6.782   3.440  1.00  0.00    -0.398 OA
HETATM   10  H   UNL     1      -0.926   7.563   2.878  1.00  0.00     0.209 HD
ENDBRANCH   8   9
ENDBRANCH   4   8
BRANCH   5  11
HETATM   11  O   UNL     1      -0.997   3.183   1.342  1.00  0.00    -0.348 OA
BRANCH  11  12
HETATM   12  C   UNL     1      -2.109   2.263   1.437  1.00  0.00     0.292 C 
HETATM   13  C   UNL     1      -3.411   2.821   2.072  1.00  0.00     0.204 C 
HETATM   14  C   UNL     1      -4.509   1.749   1.999  1.00  0.00     0.183 C 
HETATM   15  C   UNL     1      -4.042   0.457   2.696  1.00  0.00     0.180 C 
HETATM   16  C   UNL     1      -2.716  -0.022   2.073  1.00  0.00     0.179 C 
HETATM   17  O   UNL     1      -1.705   1.021   2.036  1.00  0.00    -0.348 OA
BRANCH  13  18
HETATM   18  O   UNL     1      -3.290   3.182   3.465  1.00  0.00    -0.388 OA
HETATM   19  H   UNL     1      -2.454   2.786   3.811  1.00  0.00     0.210 HD
ENDBRANCH  13  18
BRANCH  14  20
HETATM   20  O   UNL     1      -5.726   2.228   2.589  1.00  0.00    -0.390 OA
HETATM   21  H   UNL     1      -5.526   3.074   3.035  1.00  0.00     0.210 HD
ENDBRANCH  14  20
BRANCH  15  22
HETATM   22  O   UNL     1      -3.814   0.642   4.101  1.00  0.00    -0.390 OA
HETATM   23  H   UNL     1      -3.939   1.591   4.308  1.00  0.00     0.210 HD
ENDBRANCH  15  22
BRANCH  16  24
HETATM   24  C   UNL     1      -2.917  -0.691   0.700  1.00  0.00     0.198 C 
BRANCH  24  25
HETATM   25  O   UNL     1      -3.811  -1.792   0.771  1.00  0.00    -0.398 OA
HETATM   26  H   UNL     1      -3.372  -2.513   1.260  1.00  0.00     0.209 HD
ENDBRANCH  24  25
ENDBRANCH  16  24
ENDBRANCH  11  12
ENDBRANCH   5  11
BRANCH   6  27
HETATM   27  O   UNL     1      -0.794   2.202   4.102  1.00  0.00    -0.390 OA
HETATM   28  H   UNL     1      -0.745   1.436   3.487  1.00  0.00     0.210 HD
ENDBRANCH   6  27
BRANCH   7  29
HETATM   29  O   UNL     1       2.082   1.898   4.060  1.00  0.00    -0.388 OA
HETATM   30  H   UNL     1       2.211   2.489   4.825  1.00  0.00     0.210 HD
ENDBRANCH   7  29
ENDBRANCH   1   2
BRANCH   1  31
HETATM   31  C   UNL     1       4.162   5.314   2.705  1.00  0.00     0.187 C 
HETATM   32  C   UNL     1       5.104   4.661   1.675  1.00  0.00     0.180 C 
HETATM   33  O   UNL     1       6.110   3.839   2.288  1.00  0.00    -0.348 OA
HETATM   34  C   UNL     1       7.021   4.481   3.193  1.00  0.00     0.292 C 
HETATM   35  C   UNL     1       6.250   5.301   4.274  1.00  0.00     0.204 C 
HETATM   36  C   UNL     1       5.013   6.067   3.765  1.00  0.00     0.183 C 
BRANCH  32  37
HETATM   37  C   UNL     1       5.661   5.667   0.643  1.00  0.00     0.198 C 
BRANCH  37  38
HETATM   38  O   UNL     1       6.326   6.780   1.226  1.00  0.00    -0.398 OA
HETATM   39  H   UNL     1       5.708   7.536   1.226  1.00  0.00     0.209 HD
ENDBRANCH  37  38
ENDBRANCH  32  37
BRANCH  34  40
HETATM   40  O   UNL     1       8.108   5.170   2.506  1.00  0.00    -0.348 OA
BRANCH  40  41
HETATM   41  C   UNL     1       8.805   4.289   1.570  1.00  0.00     0.187 C 
HETATM   42  C   UNL     1       9.707   3.237   2.256  1.00  0.00     0.180 C 
HETATM   43  O   UNL     1      10.901   3.831   2.796  1.00  0.00    -0.349 OA
HETATM   44  C   UNL     1      11.748   4.485   1.878  1.00  0.00     0.288 C 
HETATM   45  C   UNL     1      11.023   5.569   1.056  1.00  0.00     0.204 C 
HETATM   46  C   UNL     1       9.651   5.097   0.548  1.00  0.00     0.183 C 
BRANCH  42  47
HETATM   47  C   UNL     1       9.997   2.044   1.319  1.00  0.00     0.198 C 
BRANCH  47  48
HETATM   48  O   UNL     1      10.877   1.118   1.944  1.00  0.00    -0.398 OA
HETATM   49  H   UNL     1      11.703   1.618   2.111  1.00  0.00     0.209 HD
ENDBRANCH  47  48
ENDBRANCH  42  47
BRANCH  44  50
HETATM   50  O   UNL     1      12.414   3.548   1.039  1.00  0.00    -0.369 OA
HETATM   51  H   UNL     1      12.309   3.863   0.121  1.00  0.00     0.212 HD
ENDBRANCH  44  50
BRANCH  45  52
HETATM   52  O   UNL     1      11.855   5.899  -0.081  1.00  0.00    -0.388 OA
HETATM   53  H   UNL     1      12.717   6.203   0.256  1.00  0.00     0.210 HD
ENDBRANCH  45  52
BRANCH  46  54
HETATM   54  O   UNL     1       8.906   6.204   0.034  1.00  0.00    -0.390 OA
HETATM   55  H   UNL     1       8.370   6.568   0.771  1.00  0.00     0.210 HD
ENDBRANCH  46  54
ENDBRANCH  40  41
ENDBRANCH  34  40
BRANCH  35  56
HETATM   56  O   UNL     1       7.133   6.168   4.991  1.00  0.00    -0.388 OA
HETATM   57  H   UNL     1       7.583   6.725   4.331  1.00  0.00     0.210 HD
ENDBRANCH  35  56
BRANCH  36  58
HETATM   58  O   UNL     1       4.165   6.482   4.852  1.00  0.00    -0.390 OA
HETATM   59  H   UNL     1       3.839   5.669   5.277  1.00  0.00     0.210 HD
ENDBRANCH  36  58
ENDBRANCH   1  31
TORSDOF 24
