REMARK  6 active torsions:
REMARK  status: ('A' for Active; 'I' for Inactive)
REMARK    1  A    between atoms: C_1  and  C_2 
REMARK    2  A    between atoms: C_1  and  O_12 
REMARK    3  A    between atoms: C_3  and  O_11 
REMARK    4  A    between atoms: C_4  and  O_10 
REMARK    5  A    between atoms: C_5  and  O_9 
REMARK    6  A    between atoms: C_6  and  O_8 
ROOT
HETATM    1  C   UNL     1       0.508   0.194   1.267  1.00  0.00     0.179 C 
HETATM    2  C   UNL     1      -0.914  -0.353   1.453  1.00  0.00     0.180 C 
HETATM    3  C   UNL     1      -1.899   0.404   0.549  1.00  0.00     0.183 C 
HETATM    4  C   UNL     1      -1.823   1.911   0.824  1.00  0.00     0.204 C 
HETATM    5  C   UNL     1      -0.361   2.389   0.717  1.00  0.00     0.288 C 
HETATM    6  O   UNL     1       0.537   1.614   1.512  1.00  0.00    -0.349 OA
ENDROOT
BRANCH   1   7
HETATM    7  C   UNL     1       1.134  -0.148  -0.091  1.00  0.00     0.198 C 
BRANCH   7   8
HETATM    8  O   UNL     1       2.465   0.358  -0.147  1.00  0.00    -0.398 OA
HETATM    9  H   UNL     1       2.448   1.256   0.241  1.00  0.00     0.209 HD
ENDBRANCH   7   8
ENDBRANCH   1   7
BRANCH   2  10
HETATM   10  O   UNL     1      -1.331  -0.138   2.823  1.00  0.00    -0.390 OA
HETATM   11  H   UNL     1      -0.594  -0.409   3.404  1.00  0.00     0.210 HD
ENDBRANCH   2  10
BRANCH   3  12
HETATM   12  O   UNL     1      -3.227  -0.078   0.774  1.00  0.00    -0.390 OA
HETATM   13  H   UNL     1      -3.432   0.131   1.708  1.00  0.00     0.210 HD
ENDBRANCH   3  12
BRANCH   5  14
HETATM   14  O   UNL     1      -0.272   3.735   1.159  1.00  0.00    -0.369 OA
HETATM   15  H   UNL     1      -0.917   3.799   1.892  1.00  0.00     0.212 HD
ENDBRANCH   5  14
BRANCH   4  16
HETATM   16  O   UNL     1      -2.323   2.222   2.148  1.00  0.00    -0.388 OA
HETATM   17  H   UNL     1      -1.933   1.557   2.755  1.00  0.00     0.210 HD
ENDBRANCH   4  16
TORSDOF 6
