REMARK  0 active torsions:
REMARK  status: ('A' for Active; 'I' for Inactive)
ROOT
HETATM    1  C   UNL     1       2.585  -1.610  -0.765  1.00  0.00     0.025 C 
HETATM    2  C   UNL     1       3.695  -0.904  -1.511  1.00  0.00     0.110 C 
HETATM    3  C   UNL     1       4.095  -1.217  -2.762  1.00  0.00     0.032 C 
HETATM    4  C   UNL     1       3.742  -0.370  -3.886  1.00  0.00     0.015 C 
HETATM    5  C   UNL     1       2.841   0.623  -3.863  1.00  0.00     0.043 C 
HETATM    6  C   UNL     1       2.586   1.301  -5.083  1.00  0.00     0.008 A 
HETATM    7  C   UNL     1       1.734   2.276  -5.448  1.00  0.00     0.101 A 
HETATM    8  N   UNL     1       1.968   2.665  -6.754  1.00  0.00    -0.364 N 
HETATM    9  C   UNL     1       3.041   1.994  -7.293  1.00  0.00     0.054 A 
HETATM   10  C   UNL     1       3.715   2.108  -8.434  1.00  0.00     0.020 A 
HETATM   11  C   UNL     1       4.875   1.167  -8.627  1.00  0.00     0.230 A 
HETATM   12  O   UNL     1       5.543   1.216  -9.656  1.00  0.00    -0.283 OA
HETATM   13  C   UNL     1       5.229   0.132  -7.517  1.00  0.00     0.234 A 
HETATM   14  O   UNL     1       6.186  -0.622  -7.643  1.00  0.00    -0.283 OA
HETATM   15  C   UNL     1       4.394   0.132  -6.290  1.00  0.00     0.044 A 
HETATM   16  C   UNL     1       3.417   1.067  -6.266  1.00  0.00     0.019 A 
HETATM   17  C   UNL     1       4.534  -0.688  -5.081  1.00  0.00     0.008 C 
HETATM   18  C   UNL     1       5.318  -1.697  -4.649  1.00  0.00     0.101 C 
HETATM   19  N   UNL     1       4.997  -2.104  -3.328  1.00  0.00    -0.367 N 
HETATM   20  C   UNL     1       3.400   3.106  -9.494  1.00  0.00     0.055 C 
HETATM   21  C   UNL     1       2.393   1.018  -2.528  1.00  0.00     0.230 C 
HETATM   22  O   UNL     1       1.374   1.621  -2.262  1.00  0.00    -0.283 OA
HETATM   23  C   UNL     1       3.385   0.563  -1.456  1.00  0.00     0.209 C 
HETATM   24  O   UNL     1       3.974   1.349  -0.737  1.00  0.00    -0.288 OA
HETATM   25  H   UNL     1       1.592   3.521  -7.139  1.00  0.00     0.165 HD
HETATM   26  H   UNL     1       5.738  -2.494  -2.750  1.00  0.00     0.165 HD
ENDROOT
TORSDOF 0
