REMARK  2 active torsions:
REMARK  status: ('A' for Active; 'I' for Inactive)
REMARK    1  A    between atoms: C_5  and  C_9 
REMARK    2  A    between atoms: C_6  and  O_8 
ROOT
HETATM    1  C   UNL     1       0.996   0.025   0.243  1.00  0.00     0.010 C 
HETATM    2  C   UNL     1       2.517  -0.038   0.060  1.00  0.00    -0.016 C 
HETATM    3  C   UNL     1       2.995   0.997  -0.971  1.00  0.00     0.005 C 
HETATM    4  C   UNL     1       2.708   0.582  -2.418  1.00  0.00     0.008 C 
HETATM    5  C   UNL     1       3.293  -0.808  -2.761  1.00  0.00     0.018 C 
HETATM    6  C   UNL     1       2.662  -1.814  -1.768  1.00  0.00     0.122 C 
HETATM    7  C   UNL     1       2.976  -1.457  -0.311  1.00  0.00     0.036 C 
ENDROOT
BRANCH   5   8
HETATM    8  C   UNL     1       4.860  -0.799  -2.824  1.00  0.00    -0.016 C 
HETATM    9  C   UNL     1       5.471  -2.163  -3.168  1.00  0.00     0.010 C 
HETATM   10  C   UNL     1       5.380   0.217  -3.854  1.00  0.00     0.010 C 
ENDBRANCH   5   8
BRANCH   6  11
HETATM   11  O   UNL     1       3.020  -3.156  -2.067  1.00  0.00    -0.395 OA
HETATM   12  H   UNL     1       3.588  -3.495  -1.355  1.00  0.00     0.210 HD
ENDBRANCH   6  11
TORSDOF 2
