REMARK  0 active torsions:
REMARK  status: ('A' for Active; 'I' for Inactive)
ROOT
HETATM    1  C   UNL     1       0.894   0.101   0.242  1.00  0.00     0.000 C 
HETATM    2 SI   UNL     1       2.744  -0.032   0.094  1.00  0.00     0.000 Si
HETATM    3  C   UNL     1       3.365   1.219  -1.183  1.00  0.00     0.000 C 
HETATM    4  C   UNL     1       3.089   0.733  -2.611  1.00  0.00     0.002 C 
HETATM    5  C   UNL     1       3.600  -0.697  -2.858  1.00  0.00     0.029 C 
HETATM    6  C   UNL     1       2.952  -1.740  -1.932  1.00  0.00     0.210 C 
HETATM    7  O   UNL     1       3.203  -1.516  -0.541  1.00  0.00    -0.241 OA
ENDROOT
TORSDOF 0
