REMARK WARNING: 32 MAX_TORS EXCEEDED!!!
REMARK  61 active torsions:
REMARK  status: ('A' for Active; 'I' for Inactive)
REMARK    1  A    between atoms: C_2  and  C_3 
REMARK    2  A    between atoms: C_3  and  C_4 
REMARK    3  A    between atoms: C_4  and  C_5 
REMARK    4  A    between atoms: C_5  and  C_6 
REMARK    5  A    between atoms: C_6  and  C_7 
REMARK    6  A    between atoms: C_7  and  C_8 
REMARK    7  A    between atoms: C_8  and  C_9 
REMARK    8  A    between atoms: C_9  and  C_10 
REMARK    9  A    between atoms: C_10  and  C_11 
REMARK   10  A    between atoms: C_11  and  C_12 
REMARK   11  A    between atoms: C_12  and  C_13 
REMARK   12  A    between atoms: C_14  and  C_15 
REMARK   13  A    between atoms: C_15  and  C_16 
REMARK   14  A    between atoms: C_16  and  C_17 
REMARK   15  A    between atoms: C_18  and  O_19 
REMARK   16  A    between atoms: C_24  and  C_25 
REMARK   17  A    between atoms: C_25  and  C_26 
REMARK   18  A    between atoms: C_26  and  C_27 
REMARK   19  A    between atoms: C_27  and  C_28 
REMARK   20  A    between atoms: C_28  and  C_29 
REMARK   21  A    between atoms: C_29  and  C_30 
REMARK   22  A    between atoms: C_30  and  C_31 
REMARK   23  A    between atoms: C_31  and  C_32 
REMARK   24  A    between atoms: C_32  and  C_33 
REMARK   25  A    between atoms: C_33  and  C_34 
REMARK   26  A    between atoms: C_34  and  C_35 
REMARK   27  A    between atoms: C_35  and  C_36 
REMARK   28  A    between atoms: C_36  and  C_37 
REMARK   29  A    between atoms: C_37  and  C_38 
REMARK   30  A    between atoms: C_38  and  C_39 
REMARK   31  A    between atoms: C_39  and  C_40 
REMARK   32  A    between atoms: C_40  and  O_42 
REMARK   33  A    between atoms: C_45  and  C_46 
REMARK   34  A    between atoms: C_46  and  C_47 
REMARK   35  A    between atoms: C_47  and  C_48 
REMARK   36  A    between atoms: C_48  and  C_49 
REMARK   37  A    between atoms: C_49  and  C_50 
REMARK   38  A    between atoms: C_50  and  C_51 
REMARK   39  A    between atoms: C_51  and  C_52 
REMARK   40  A    between atoms: C_52  and  C_53 
REMARK   41  A    between atoms: C_53  and  C_54 
REMARK   42  A    between atoms: C_54  and  C_55 
REMARK   43  A    between atoms: C_55  and  C_56 
REMARK   44  A    between atoms: C_56  and  C_57 
REMARK   45  A    between atoms: C_57  and  C_58 
REMARK   46  A    between atoms: C_58  and  C_59 
REMARK   47  A    between atoms: C_59  and  C_60 
REMARK   48  A    between atoms: C_60  and  C_61 
REMARK   49  A    between atoms: C_61  and  O_63 
REMARK   50  A    between atoms: O_66  and  C_67 
REMARK   51  A    between atoms: C_68  and  O_77 
REMARK   52  A    between atoms: C_69  and  O_76 
REMARK   53  A    between atoms: C_70  and  O_75 
REMARK   54  A    between atoms: C_71  and  C_73 
REMARK   55  A    between atoms: C_73  and  O_74 
REMARK   56  A    between atoms: O_83  and  C_84 
REMARK   57  A    between atoms: C_85  and  O_94 
REMARK   58  A    between atoms: C_86  and  O_93 
REMARK   59  A    between atoms: C_87  and  O_92 
REMARK   60  A    between atoms: C_88  and  C_90 
REMARK   61  A    between atoms: C_90  and  O_91 
ROOT
HETATM    1  C   UNL     2      -3.941   4.427  -2.330  1.00  0.00     0.000 C 
ENDROOT
BRANCH   1   2
HETATM    2  C   UNL     2      -2.756   4.332  -3.180  1.00  0.00     0.000 C 
BRANCH   2   3
HETATM    3  C   UNL     2      -2.217   2.978  -2.906  1.00  0.00     0.000 C 
BRANCH   3   4
HETATM    4  C   UNL     2      -1.153   2.886  -3.915  1.00  0.00     0.000 C 
BRANCH   4   5
HETATM    5  C   UNL     2      -0.587   1.507  -3.923  1.00  0.00     0.000 C 
BRANCH   5   6
HETATM    6  C   UNL     2       0.756   1.731  -4.589  1.00  0.00     0.000 C 
BRANCH   6   7
HETATM    7  C   UNL     2       1.617   2.429  -3.650  1.00  0.00     0.000 C 
BRANCH   7   8
HETATM    8  C   UNL     2       1.402   1.737  -2.278  1.00  0.00     0.000 C 
BRANCH   8   9
HETATM    9  C   UNL     2       1.048  -0.115  -1.678  1.00  0.00    -0.000 C 
BRANCH   9  10
HETATM   10  C   UNL     2       0.334  -1.184  -0.174  1.00  0.00    -0.005 C 
HETATM   11  C   UNL     2       0.087  -1.876   1.530  1.00  0.00     0.005 C 
ENDBRANCH   9  10
ENDBRANCH   8   9
ENDBRANCH   7   8
ENDBRANCH   6   7
ENDBRANCH   5   6
ENDBRANCH   4   5
ENDBRANCH   3   4
ENDBRANCH   2   3
ENDBRANCH   1   2
BRANCH   1  12
HETATM   12  C   UNL     2      -4.605   5.670  -2.759  1.00  0.00     0.000 C 
BRANCH  12  13
HETATM   13  C   UNL     2      -5.763   5.658  -1.872  1.00  0.00     0.000 C 
BRANCH  13  14
HETATM   14  C   UNL     2      -6.533   6.848  -2.267  1.00  0.00     0.000 C 
BRANCH  14  15
HETATM   15  C   UNL     2      -7.694   6.789  -1.365  1.00  0.00     0.001 C 
BRANCH  15  16
HETATM   16  C   UNL     2      -8.432   7.977  -1.772  1.00  0.00     0.010 C 
BRANCH  16  17
HETATM   17  C   UNL     2      -9.667   8.011  -0.894  1.00  0.00     0.110 C 
BRANCH  17  18
HETATM   18  C   UNL     2     -10.168   8.821  -1.169  1.00  0.00     0.139 C 
HETATM   19  O   UNL     2      -9.790   9.689  -2.135  1.00  0.00    -0.650 OA
BRANCH  18  20
HETATM   20  O   UNL     2     -11.089   8.654  -0.364  1.00  0.00    -0.776 OA
HETATM   21  H   UNL     2     -12.149   9.276  -0.082  1.00  0.00     0.167 HD
ENDBRANCH  18  20
ENDBRANCH  17  18
ENDBRANCH  16  17
ENDBRANCH  15  16
ENDBRANCH  14  15
ENDBRANCH  13  14
ENDBRANCH  12  13
ENDBRANCH   1  12
TORSDOF 61
