REMARK  9 active torsions:
REMARK  status: ('A' for Active; 'I' for Inactive)
REMARK    1  A    between atoms: C_2  and  C_4 
REMARK    2  A    between atoms: C_4  and  O_6 
REMARK    3  A    between atoms: C_9  and  C_11 
REMARK    4  A    between atoms: C_11  and  O_13 
REMARK    5  A    between atoms: O_13  and  C_14 
REMARK    6  A    between atoms: C_14  and  C_15 
REMARK    7  A    between atoms: C_15  and  O_16 
REMARK    8  A    between atoms: O_16  and  C_17 
REMARK    9  A    between atoms: C_17  and  C_19 
ROOT
HETATM    1  C   UNL     1       4.528  -0.100   0.263  1.00  0.00     0.287 C 
HETATM    2  O   UNL     1       5.750  -0.057   0.301  1.00  0.00    -0.260 OA
ENDROOT
BRANCH   1   3
HETATM    3  C   UNL     1       3.732   0.535  -0.821  1.00  0.00     0.004 C 
HETATM    4  C   UNL     1       2.392   0.022  -1.249  1.00  0.00     0.054 C 
HETATM    5  C   UNL     1       4.306   1.591  -1.423  1.00  0.00     0.024 C 
ENDBRANCH   1   3
BRANCH   1   6
HETATM    6  O   UNL     1       3.746  -0.647   1.231  1.00  0.00    -0.323 OA
HETATM    7  C   UNL     1       4.513  -1.116   2.346  1.00  0.00     0.213 C 
ENDBRANCH   1   6
TORSDOF 9
