REMARK  3 active torsions:
REMARK  status: ('A' for Active; 'I' for Inactive)
REMARK    1  A    between atoms: O_2  and  C_3 
REMARK    2  A    between atoms: C_3  and  C_5 
REMARK    3  A    between atoms: C_8  and  O_11 
ROOT
HETATM    1  C   UNL     1       4.617  -0.807   0.866  1.00  0.00     0.039 A 
HETATM    2  C   UNL     1       5.326   0.403   0.884  1.00  0.00     0.020 A 
HETATM    3  C   UNL     1       6.724   0.398   0.885  1.00  0.00     0.037 A 
HETATM    4  C   UNL     1       7.403  -0.817   0.871  1.00  0.00     0.065 A 
HETATM    5  C   UNL     1       6.712  -2.023   0.845  1.00  0.00     0.037 A 
HETATM    6  C   UNL     1       5.317  -2.021   0.837  1.00  0.00     0.020 A 
ENDROOT
BRANCH   1   7
HETATM    7  C   UNL     1       3.132  -0.852   0.867  1.00  0.00     0.292 C 
HETATM    8  O   UNL     1       2.484  -1.820   0.503  1.00  0.00    -0.259 OA
BRANCH   7   9
HETATM    9  O   UNL     1       2.631   0.302   1.373  1.00  0.00    -0.323 OA
HETATM   10  C   UNL     1       1.205   0.320   1.467  1.00  0.00     0.213 C 
ENDBRANCH   7   9
ENDBRANCH   1   7
BRANCH   4  11
HETATM   11  O   UNL     1       8.766  -0.868   0.879  1.00  0.00    -0.361 OA
HETATM   12  H   UNL     1       9.114   0.038   0.908  1.00  0.00     0.217 HD
ENDBRANCH   4  11
TORSDOF 3
