REMARK  0 active torsions:
REMARK  status: ('A' for Active; 'I' for Inactive)
ROOT
HETATM    1  C   UNL     1       0.882   0.159   0.046  1.00  0.00     0.168 C 
HETATM    2  N   UNL     1       2.320   0.076   0.046  1.00  0.00    -0.288 N 
HETATM    3  C   UNL     1       3.170   1.163   0.043  1.00  0.00     0.255 A 
HETATM    4  O   UNL     1       2.870   2.346   0.042  1.00  0.00    -0.267 OA
HETATM    5  C   UNL     1       4.574   0.706   0.038  1.00  0.00     0.108 A 
HETATM    6  C   UNL     1       4.637  -0.626   0.038  1.00  0.00     0.096 A 
HETATM    7  S   UNL     1       3.109  -1.429   0.043  1.00  0.00     0.003 SA
HETATM    8 CL   UNL     1       6.104  -1.500   0.032  1.00  0.00    -0.075 Cl
ENDROOT
TORSDOF 0
