REMARK  12 active torsions:
REMARK  status: ('A' for Active; 'I' for Inactive)
REMARK    1  A    between atoms: O_2  and  C_3 
REMARK    2  A    between atoms: C_3  and  C_4 
REMARK    3  A    between atoms: C_5  and  O_30 
REMARK    4  A    between atoms: C_6  and  O_28 
REMARK    5  A    between atoms: C_7  and  O_26 
REMARK    6  A    between atoms: C_8  and  O_10 
REMARK    7  A    between atoms: O_10  and  C_11 
REMARK    8  A    between atoms: C_12  and  C_23 
REMARK    9  A    between atoms: C_14  and  O_21 
REMARK   10  A    between atoms: C_15  and  O_19 
REMARK   11  A    between atoms: C_16  and  O_17 
REMARK   12  A    between atoms: C_23  and  O_24 
ROOT
HETATM    1  O   UNL     1       5.138   1.388  -1.737  1.00  0.00    -0.348 OA
ENDROOT
BRANCH   1   2
HETATM    2  C   UNL     1       4.589   0.658  -0.608  1.00  0.00     0.292 C 
HETATM    3  C   UNL     1       4.963   1.317   0.729  1.00  0.00     0.207 C 
HETATM    4  C   UNL     1       4.453   0.545   1.953  1.00  0.00     0.186 C 
HETATM    5  C   UNL     1       4.813  -0.945   1.891  1.00  0.00     0.183 C 
HETATM    6  C   UNL     1       4.688  -1.537   0.456  1.00  0.00     0.180 C 
HETATM    7  O   UNL     1       5.128  -0.672  -0.609  1.00  0.00    -0.348 OA
BRANCH   3   8
HETATM    8  O   UNL     1       6.348   1.707   0.844  1.00  0.00    -0.383 OA
HETATM    9  C   UNL     1       7.367   0.740   0.689  1.00  0.00     0.202 C 
ENDBRANCH   3   8
BRANCH   4  10
HETATM   10  O   UNL     1       5.061   1.219   3.073  1.00  0.00    -0.385 OA
HETATM   11  C   UNL     1       4.523   0.989   4.355  1.00  0.00     0.202 C 
ENDBRANCH   4  10
BRANCH   5  12
HETATM   12  O   UNL     1       3.989  -1.674   2.823  1.00  0.00    -0.385 OA
HETATM   13  C   UNL     1       4.602  -2.878   3.279  1.00  0.00     0.202 C 
ENDBRANCH   5  12
BRANCH   6  14
HETATM   14  C   UNL     1       3.300  -2.157   0.173  1.00  0.00     0.201 C 
BRANCH  14  15
HETATM   15  O   UNL     1       3.210  -2.820  -1.093  1.00  0.00    -0.393 OA
HETATM   16  C   UNL     1       4.107  -3.916  -1.236  1.00  0.00     0.201 C 
ENDBRANCH  14  15
ENDBRANCH   6  14
ENDBRANCH   1   2
BRANCH   1  17
HETATM   17  C   UNL     1       4.375   2.522  -2.213  1.00  0.00     0.187 C 
HETATM   18  C   UNL     1       4.655   3.806  -1.380  1.00  0.00     0.180 C 
HETATM   19  O   UNL     1       3.982   4.942  -1.914  1.00  0.00    -0.348 OA
HETATM   20  C   UNL     1       4.409   5.294  -3.226  1.00  0.00     0.291 C 
HETATM   21  C   UNL     1       4.006   4.158  -4.191  1.00  0.00     0.207 C 
HETATM   22  C   UNL     1       4.684   2.820  -3.727  1.00  0.00     0.186 C 
BRANCH  18  23
HETATM   23  C   UNL     1       6.154   4.126  -1.134  1.00  0.00     0.201 C 
BRANCH  23  24
HETATM   24  O   UNL     1       6.338   5.315  -0.351  1.00  0.00    -0.393 OA
HETATM   25  C   UNL     1       5.914   5.187   1.001  1.00  0.00     0.201 C 
ENDBRANCH  23  24
ENDBRANCH  18  23
BRANCH  20  26
HETATM   26  O   UNL     1       3.846   6.552  -3.575  1.00  0.00    -0.363 OA
HETATM   27  C   UNL     1       4.283   7.573  -2.666  1.00  0.00     0.204 C 
ENDBRANCH  20  26
BRANCH  21  28
HETATM   28  O   UNL     1       2.559   4.067  -4.202  1.00  0.00    -0.383 OA
HETATM   29  C   UNL     1       2.025   3.307  -5.281  1.00  0.00     0.202 C 
ENDBRANCH  21  28
BRANCH  22  30
HETATM   30  O   UNL     1       4.208   1.790  -4.617  1.00  0.00    -0.385 OA
HETATM   31  C   UNL     1       4.933   0.578  -4.652  1.00  0.00     0.202 C 
ENDBRANCH  22  30
ENDBRANCH   1  17
TORSDOF 12
