REMARK  3 active torsions:
REMARK  status: ('A' for Active; 'I' for Inactive)
REMARK    1  A    between atoms: C_2  and  C_4 
REMARK    2  A    between atoms: C_17  and  C_19 
REMARK    3  A    between atoms: C_19  and  O_21 
ROOT
HETATM    1  C   UNL     1       8.772   0.775  -8.222  1.00  0.00    -0.076 C 
HETATM    2  C   UNL     1       7.440   0.710  -7.949  1.00  0.00     0.010 C 
HETATM    3  C   UNL     1       6.922   1.323  -6.706  1.00  0.00    -0.057 C 
HETATM    4  C   UNL     1       5.670   1.226  -6.183  1.00  0.00    -0.019 C 
HETATM    5  C   UNL     1       5.248   1.882  -4.824  1.00  0.00     0.034 C 
HETATM    6  C   UNL     1       6.375   2.744  -4.150  1.00  0.00     0.016 C 
HETATM    7  C   UNL     1       7.765   2.012  -4.430  1.00  0.00    -0.031 C 
HETATM    8  C   UNL     1       7.903   2.240  -5.974  1.00  0.00     0.027 C 
HETATM    9  C   UNL     1       9.315   2.352  -6.552  1.00  0.00     0.014 C 
HETATM   10  C   UNL     1       9.735   1.018  -7.086  1.00  0.00     0.035 C 
HETATM   11  C   UNL     1       8.976   2.602  -3.683  1.00  0.00     0.010 C 
HETATM   12  C   UNL     1       8.662   2.955  -2.251  1.00  0.00     0.002 C 
HETATM   13  C   UNL     1       7.569   4.002  -2.295  1.00  0.00     0.020 C 
HETATM   14  C   UNL     1       6.193   3.400  -2.722  1.00  0.00     0.049 C 
HETATM   15  C   UNL     1       5.681   2.420  -1.654  1.00  0.00     0.026 C 
HETATM   16  C   UNL     1       7.761   0.490  -4.047  1.00  0.00     0.016 C 
ENDROOT
BRANCH  14  17
HETATM   17  C   UNL     1       5.264   4.624  -2.611  1.00  0.00     0.267 C 
HETATM   18  O   UNL     1       4.866   5.062  -1.533  1.00  0.00    -0.264 OA
BRANCH  17  19
HETATM   19  O   UNL     1       5.050   5.275  -3.795  1.00  0.00    -0.326 OA
HETATM   20  C   UNL     1       4.390   6.540  -3.714  1.00  0.00     0.213 C 
ENDBRANCH  17  19
ENDBRANCH  14  17
BRANCH   1  21
HETATM   21  C   UNL     1       9.403   1.145  -9.568  1.00  0.00     0.006 C 
HETATM   22  C   UNL     1      10.477   0.192 -10.091  1.00  0.00     0.014 C 
HETATM   23  C   UNL     1       8.453   1.610 -10.666  1.00  0.00     0.014 C 
ENDBRANCH   1  21
TORSDOF 3
