REMARK  27 active torsions:
REMARK  status: ('A' for Active; 'I' for Inactive)
REMARK    1  A    between atoms: C_2  and  C_3 
REMARK    2  A    between atoms: C_3  and  C_4 
REMARK    3  A    between atoms: C_4  and  C_5 
REMARK    4  A    between atoms: C_5  and  C_6 
REMARK    5  A    between atoms: C_7  and  C_8 
REMARK    6  A    between atoms: C_8  and  C_9 
REMARK    7  A    between atoms: C_10  and  C_11 
REMARK    8  A    between atoms: C_11  and  C_12 
REMARK    9  A    between atoms: C_13  and  C_14 
REMARK   10  A    between atoms: C_14  and  C_15 
REMARK   11  A    between atoms: C_16  and  C_17 
REMARK   12  A    between atoms: C_17  and  C_18 
REMARK   13  A    between atoms: C_18  and  C_19 
REMARK   14  A    between atoms: C_19  and  C_20 
REMARK   15  A    between atoms: C_20  and  C_21 
REMARK   16  A    between atoms: C_21  and  C_22 
REMARK   17  A    between atoms: C_22  and  C_23 
REMARK   18  A    between atoms: C_23  and  C_24 
REMARK   19  A    between atoms: C_24  and  C_25 
REMARK   20  A    between atoms: C_25  and  C_26 
REMARK   21  A    between atoms: C_26  and  C_27 
REMARK   22  A    between atoms: C_27  and  C_28 
REMARK   23  A    between atoms: C_28  and  C_29 
REMARK   24  A    between atoms: C_29  and  C_30 
REMARK   25  A    between atoms: C_30  and  C_31 
REMARK   26  A    between atoms: C_47  and  O_85 
REMARK   27  A    between atoms: C_71  and  N_78 
ROOT
HETATM    1  C   UNL     1      32.000 -14.072  15.479  1.00  0.00     0.484 C 
HETATM    2  C   UNL     1      33.367 -14.539  15.926  1.00  0.00     0.014 C 
HETATM    3  C   UNL     1      33.863 -15.410  17.074  1.00  0.00     0.091 C 
HETATM    4  C   UNL     1      35.236 -14.787  17.193  1.00  0.00     0.186 C 
HETATM    5  O   UNL     1      35.816 -14.580  16.151  1.00  0.00    -0.286 OA
HETATM    6  S   UNL     1      36.068 -15.154  18.740  1.00  0.00    -0.091 SA
HETATM    7  C   UNL     1      36.242 -13.758  19.749  1.00  0.00     0.102 C 
HETATM    8  C   UNL     1      36.920 -13.865  21.089  1.00  0.00     0.133 C 
HETATM    9  N   UNL     1      37.188 -12.557  21.700  1.00  0.00    -0.360 N 
HETATM   10  C   UNL     1      36.556 -11.347  21.381  1.00  0.00     0.219 C 
HETATM   11  O   UNL     1      35.676 -11.262  20.523  1.00  0.00    -0.274 OA
HETATM   12  C   UNL     1      36.994 -10.040  22.053  1.00  0.00     0.122 C 
HETATM   13  C   UNL     1      37.698 -10.408  23.354  1.00  0.00     0.132 C 
HETATM   14  N   UNL     1      38.112  -9.281  24.191  1.00  0.00    -0.358 N 
HETATM   15  C   UNL     1      38.184  -7.980  23.714  1.00  0.00     0.247 C 
HETATM   16  O   UNL     1      38.178  -7.710  22.509  1.00  0.00    -0.271 OA
HETATM   17  C   UNL     1      38.437  -6.895  24.746  1.00  0.00     0.219 C 
HETATM   18  C   UNL     1      37.260  -6.665  25.710  1.00  0.00     0.009 C 
HETATM   19  C   UNL     1      36.928  -7.874  26.605  1.00  0.00     0.020 C 
HETATM   20  C   UNL     1      37.576  -5.478  26.643  1.00  0.00     0.020 C 
HETATM   21  C   UNL     1      36.049  -6.303  24.838  1.00  0.00     0.193 C 
HETATM   22  O   UNL     1      35.762  -7.353  23.941  1.00  0.00    -0.289 OA
HETATM   23  P   UNL     1      34.363  -6.958  23.002  1.00  0.00     0.417 P 
HETATM   24  O   UNL     1      33.558  -6.866  24.292  1.00  0.00    -0.624 OA
HETATM   25  O   UNL     1      35.137  -5.574  22.380  1.00  0.00    -0.624 OA
HETATM   26  O   UNL     1      32.964  -6.564  22.064  1.00  0.00    -0.180 OA
HETATM   27  P   UNL     1      32.843  -7.653  20.725  1.00  0.00     0.417 P 
HETATM   28  O   UNL     1      31.547  -6.948  20.235  1.00  0.00    -0.624 OA
HETATM   29  O   UNL     1      34.149  -7.244  20.020  1.00  0.00    -0.624 OA
HETATM   30  O   UNL     1      32.721  -8.741  19.386  1.00  0.00    -0.287 OA
HETATM   31  C   UNL     1      32.598 -10.059  19.852  1.00  0.00     0.216 C 
HETATM   32  C   UNL     1      32.490 -11.021  18.676  1.00  0.00     0.180 C 
HETATM   33  C   UNL     1      33.752 -10.936  17.770  1.00  0.00     0.198 C 
HETATM   34  C   UNL     1      33.251 -11.111  16.345  1.00  0.00     0.201 C 
HETATM   35  C   UNL     1      31.813 -11.297  16.591  1.00  0.00     0.254 C 
HETATM   36  O   UNL     1      31.354 -10.689  17.763  1.00  0.00    -0.354 OA
HETATM   37  N   UNL     1      31.375 -12.729  16.447  1.00  0.00    -0.333 N 
HETATM   38  C   UNL     1      31.718 -13.728  17.862  1.00  0.00     0.375 C 
HETATM   39  N   UNL     1      31.167 -14.848  16.999  1.00  0.00     0.040 NA
HETATM   40  C   UNL     1      29.850 -14.631  16.126  1.00  0.00     0.313 C 
HETATM   41  C   UNL     1      29.495 -15.417  15.197  1.00  0.00     0.091 C 
HETATM   42  N   UNL     1      28.787 -14.891  14.147  1.00  0.00    -0.345 N 
ATOM     43  HN  UNL     1      28.161 -15.467  13.584  1.00  0.00     0.167 HD
HETATM   44  C   UNL     1      28.954 -13.585  13.893  1.00  0.00     0.179 C 
HETATM   45  N   UNL     1      30.064 -13.221  14.252  1.00  0.00    -0.358 N 
ATOM     46  HN  UNL     1      30.730 -12.879  13.559  1.00  0.00     0.162 HD
HETATM   47  C   UNL     1      30.425 -13.266  15.573  1.00  0.00     0.144 C 
HETATM   48  O   UNL     1      33.871 -12.182  15.641  1.00  0.00    -0.368 OA
HETATM   49  O   UNL     1      34.682 -11.951  18.100  1.00  0.00    -0.279 OA
HETATM   50  P   UNL     1      36.071 -11.830  17.076  1.00  0.00     0.407 P 
HETATM   51  O   UNL     1      36.959 -11.619  18.325  1.00  0.00    -0.624 OA
HETATM   52  O   UNL     1      35.759 -12.709  15.965  1.00  0.00    -0.279 OA
HETATM   53  O   UNL     1      37.460 -11.708  16.052  1.00  0.00    -0.624 OA
HETATM   54  H   UNL     1      37.807 -12.661  22.485  1.00  0.00     0.162 HD
HETATM   55  H   UNL     1      38.234  -9.485  25.173  1.00  0.00     0.162 HD
HETATM   56  H   UNL     1      34.612 -12.660  15.988  1.00  0.00     0.387 HD
ENDROOT
BRANCH   1  57
HETATM   57  C   UNL     1      31.828 -12.348  14.304  1.00  0.00     0.006 C 
BRANCH  57  58
HETATM   58  C   UNL     1      30.185 -11.174  14.596  1.00  0.00     0.000 C 
BRANCH  58  59
HETATM   59  C   UNL     1      29.120 -10.839  13.565  1.00  0.00     0.000 C 
BRANCH  59  60
HETATM   60  C   UNL     1      27.609 -11.256  13.926  1.00  0.00     0.000 C 
BRANCH  60  61
HETATM   61  C   UNL     1      26.894 -10.769  12.723  1.00  0.00     0.000 C 
BRANCH  61  62
HETATM   62  C   UNL     1      25.422 -10.994  12.797  1.00  0.00     0.000 C 
BRANCH  62  63
HETATM   63  C   UNL     1      24.916 -10.113  11.694  1.00  0.00     0.000 C 
BRANCH  63  64
HETATM   64  C   UNL     1      23.429 -10.140  11.716  1.00  0.00     0.000 C 
BRANCH  64  65
HETATM   65  C   UNL     1      22.960  -9.209  10.638  1.00  0.00     0.000 C 
BRANCH  65  66
HETATM   66  C   UNL     1      21.458  -9.223  10.652  1.00  0.00     0.004 C 
BRANCH  66  67
HETATM   67  C   UNL     1      20.986  -8.296   9.575  1.00  0.00     0.027 C 
BRANCH  67  68
HETATM   68  C   UNL     1      19.500  -8.283   9.555  1.00  0.00    -0.030 C 
BRANCH  68  69
HETATM   69  C   UNL     1      18.779  -7.165   9.752  1.00  0.00    -0.027 C 
BRANCH  69  70
HETATM   70  C   UNL     1      17.289  -7.148   9.739  1.00  0.00     0.053 C 
BRANCH  70  71
HETATM   71  C   UNL     1      16.724  -6.234   8.667  1.00  0.00    -0.027 C 
HETATM   72  C   UNL     1      15.959  -5.219   8.917  1.00  0.00    -0.027 C 
BRANCH  72  73
HETATM   73  C   UNL     1      15.394  -4.305   7.846  1.00  0.00     0.053 C 
BRANCH  73  74
HETATM   74  C   UNL     1      13.906  -4.289   7.833  1.00  0.00    -0.027 C 
HETATM   75  C   UNL     1      13.183  -3.171   8.030  1.00  0.00    -0.027 C 
BRANCH  75  76
HETATM   76  C   UNL     1      11.694  -3.156   8.017  1.00  0.00     0.053 C 
BRANCH  76  77
HETATM   77  C   UNL     1      11.128  -2.242   6.945  1.00  0.00    -0.027 C 
HETATM   78  C   UNL     1      10.363  -1.228   7.195  1.00  0.00    -0.027 C 
BRANCH  78  79
HETATM   79  C   UNL     1       9.798  -0.315   6.123  1.00  0.00     0.053 C 
BRANCH  79  80
HETATM   80  C   UNL     1      10.225   1.102   6.293  1.00  0.00    -0.027 C 
HETATM   81  C   UNL     1       9.355   2.113   6.476  1.00  0.00    -0.030 C 
BRANCH  81  82
HETATM   82  C   UNL     1       9.785   3.524   6.650  1.00  0.00     0.027 C 
BRANCH  82  83
HETATM   83  C   UNL     1       9.320   4.073   7.995  1.00  0.00     0.004 C 
BRANCH  83  84
HETATM   84  C   UNL     1       9.768   5.523   8.165  1.00  0.00    -0.000 C 
BRANCH  84  85
HETATM   85  C   UNL     1       9.311   6.084   9.507  1.00  0.00    -0.005 C 
HETATM   86  C   UNL     1       9.757   7.526   9.673  1.00  0.00     0.005 C 
ENDBRANCH  84  85
ENDBRANCH  83  84
ENDBRANCH  82  83
ENDBRANCH  81  82
ENDBRANCH  79  80
ENDBRANCH  78  79
ENDBRANCH  76  77
ENDBRANCH  75  76
ENDBRANCH  73  74
ENDBRANCH  72  73
ENDBRANCH  70  71
ENDBRANCH  69  70
ENDBRANCH  68  69
ENDBRANCH  67  68
ENDBRANCH  66  67
ENDBRANCH  65  66
ENDBRANCH  64  65
ENDBRANCH  63  64
ENDBRANCH  62  63
ENDBRANCH  61  62
ENDBRANCH  60  61
ENDBRANCH  59  60
ENDBRANCH  58  59
ENDBRANCH  57  58
ENDBRANCH   1  57
BRANCH  41  87
HETATM   87  N   UNL     1      29.655 -16.787  15.255  1.00  0.00    -0.290 NA
HETATM   88  H   UNL     1      29.931 -17.101  16.179  1.00  0.00     0.125 HD
HETATM   89  H   UNL     1      28.892 -17.264  14.798  1.00  0.00     0.125 HD
ENDBRANCH  41  87
BRANCH  17  90
HETATM   90  O   UNL     1      39.650  -7.178  25.425  1.00  0.00    -0.385 OA
HETATM   91  H   UNL     1      39.557  -8.092  25.756  1.00  0.00     0.210 HD
ENDBRANCH  17  90
TORSDOF 27
