REMARK  15 active torsions:
REMARK  status: ('A' for Active; 'I' for Inactive)
REMARK    1  A    between atoms: C_2  and  C_3 
REMARK    2  A    between atoms: C_3  and  C_4 
REMARK    3  A    between atoms: C_4  and  C_5 
REMARK    4  A    between atoms: C_5  and  C_6 
REMARK    5  A    between atoms: C_6  and  C_7 
REMARK    6  A    between atoms: C_7  and  C_8 
REMARK    7  A    between atoms: C_8  and  C_9 
REMARK    8  A    between atoms: C_9  and  C_10 
REMARK    9  A    between atoms: C_10  and  C_11 
REMARK   10  A    between atoms: C_11  and  C_12 
REMARK   11  A    between atoms: C_12  and  C_13 
REMARK   12  A    between atoms: C_13  and  C_14 
REMARK   13  A    between atoms: C_14  and  O_15 
REMARK   14  A    between atoms: O_15  and  C_16 
REMARK   15  A    between atoms: C_16  and  C_18 
ROOT
HETATM    1  C   UNL     1      12.733  -6.372   3.138  1.00  0.00     0.002 C 
ENDROOT
BRANCH   1   2
HETATM    2  C   UNL     1      11.207  -6.363   3.121  1.00  0.00     0.000 C 
BRANCH   2   3
HETATM    3  C   UNL     1      10.668  -5.089   2.482  1.00  0.00     0.000 C 
BRANCH   3   4
HETATM    4  C   UNL     1       9.155  -5.082   2.483  1.00  0.00     0.000 C 
BRANCH   4   5
HETATM    5  C   UNL     1       8.652  -3.794   1.855  1.00  0.00     0.000 C 
BRANCH   5   6
HETATM    6  C   UNL     1       7.136  -3.784   1.855  1.00  0.00     0.000 C 
BRANCH   6   7
HETATM    7  C   UNL     1       6.626  -2.501   1.224  1.00  0.00     0.000 C 
BRANCH   7   8
HETATM    8  C   UNL     1       5.110  -2.494   1.226  1.00  0.00     0.000 C 
BRANCH   8   9
HETATM    9  C   UNL     1       4.597  -1.211   0.593  1.00  0.00     0.000 C 
BRANCH   9  10
HETATM   10  C   UNL     1       3.079  -1.202   0.591  1.00  0.00    -0.000 C 
BRANCH  10  11
HETATM   11  C   UNL     1       2.556   0.082  -0.041  1.00  0.00    -0.005 C 
HETATM   12  C   UNL     1       1.038   0.088  -0.042  1.00  0.00     0.005 C 
ENDBRANCH  10  11
ENDBRANCH   9  10
ENDBRANCH   8   9
ENDBRANCH   7   8
ENDBRANCH   6   7
ENDBRANCH   5   6
ENDBRANCH   4   5
ENDBRANCH   3   4
ENDBRANCH   2   3
ENDBRANCH   1   2
BRANCH   1  13
HETATM   13  C   UNL     1      13.288  -5.197   3.944  1.00  0.00     0.027 C 
BRANCH  13  14
HETATM   14  C   UNL     1      14.808  -5.165   3.956  1.00  0.00     0.179 C 
BRANCH  14  15
HETATM   15  O   UNL     1      15.278  -4.022   4.707  1.00  0.00    -0.317 OA
BRANCH  15  16
HETATM   16  C   UNL     1      15.248  -2.850   4.015  1.00  0.00     0.294 C 
HETATM   17  O   UNL     1      14.862  -2.737   2.858  1.00  0.00    -0.259 OA
BRANCH  16  18
HETATM   18  C   UNL     1      15.742  -1.691   4.788  1.00  0.00     0.054 A 
HETATM   19  C   UNL     1      15.700  -0.444   4.168  1.00  0.00     0.105 A 
HETATM   20  N   UNL     1      16.187   0.700   4.710  1.00  0.00    -0.374 N 
HETATM   21  C   UNL     1      16.745   0.597   5.933  1.00  0.00     0.087 A 
ATOM     22  HN  UNL     1      16.134   1.592   4.218  1.00  0.00     0.164 HD
HETATM   23  C   UNL     1      16.809  -0.592   6.650  1.00  0.00     0.018 A 
HETATM   24  C   UNL     1      16.291  -1.754   6.069  1.00  0.00     0.020 A 
ENDBRANCH  16  18
ENDBRANCH  15  16
ENDBRANCH  14  15
ENDBRANCH  13  14
ENDBRANCH   1  13
TORSDOF 15
