REMARK  18 active torsions:
REMARK  status: ('A' for Active; 'I' for Inactive)
REMARK    1  A    between atoms: C_2  and  C_3 
REMARK    2  A    between atoms: C_3  and  C_4 
REMARK    3  A    between atoms: C_4  and  C_5 
REMARK    4  A    between atoms: C_5  and  C_6 
REMARK    5  A    between atoms: C_6  and  C_7 
REMARK    6  A    between atoms: C_7  and  C_8 
REMARK    7  A    between atoms: C_8  and  C_9 
REMARK    8  A    between atoms: C_9  and  C_10 
REMARK    9  A    between atoms: C_10  and  C_11 
REMARK   10  A    between atoms: C_11  and  C_12 
REMARK   11  A    between atoms: C_12  and  C_13 
REMARK   12  A    between atoms: C_13  and  C_14 
REMARK       I    between atoms: C_14  and  N_16 
REMARK   13  A    between atoms: N_16  and  C_17 
REMARK   14  A    between atoms: N_16  and  C_21 
REMARK   15  A    between atoms: C_17  and  C_18 
REMARK   16  A    between atoms: C_18  and  O_20 
REMARK   17  A    between atoms: C_21  and  C_22 
REMARK   18  A    between atoms: C_22  and  O_24 
ROOT
HETATM    1  C   UNL     1      13.269   3.491   7.675  1.00  0.00     0.103 C 
ENDROOT
BRANCH   1   2
HETATM    2  C   UNL     1      12.753   2.848   6.390  1.00  0.00     0.009 C 
BRANCH   2   3
HETATM    3  C   UNL     1      11.230   2.709   6.454  1.00  0.00     0.000 C 
BRANCH   3   4
HETATM    4  C   UNL     1      10.611   2.115   5.193  1.00  0.00     0.000 C 
BRANCH   4   5
HETATM    5  C   UNL     1      11.074   0.688   4.916  1.00  0.00     0.000 C 
BRANCH   5   6
HETATM    6  C   UNL     1      10.395   0.143   3.665  1.00  0.00     0.000 C 
BRANCH   6   7
HETATM    7  C   UNL     1      10.871  -1.272   3.358  1.00  0.00     0.000 C 
BRANCH   7   8
HETATM    8  C   UNL     1      10.190  -1.787   2.096  1.00  0.00     0.000 C 
BRANCH   8   9
HETATM    9  C   UNL     1      10.647  -3.201   1.764  1.00  0.00     0.000 C 
BRANCH   9  10
HETATM   10  C   UNL     1       9.955  -3.700   0.499  1.00  0.00     0.000 C 
BRANCH  10  11
HETATM   11  C   UNL     1      10.405  -5.116   0.159  1.00  0.00    -0.000 C 
BRANCH  11  12
HETATM   12  C   UNL     1       9.714  -5.622  -1.104  1.00  0.00    -0.005 C 
HETATM   13  C   UNL     1      10.162  -7.033  -1.443  1.00  0.00     0.005 C 
ENDBRANCH  11  12
ENDBRANCH  10  11
ENDBRANCH   9  10
ENDBRANCH   8   9
ENDBRANCH   7   8
ENDBRANCH   6   7
ENDBRANCH   5   6
ENDBRANCH   4   5
ENDBRANCH   3   4
ENDBRANCH   2   3
ENDBRANCH   1   2
BRANCH   1  14
HETATM   14  C   UNL     1      14.776   3.609   7.684  1.00  0.00     0.219 C 
HETATM   15  O   UNL     1      15.443   2.697   8.174  1.00  0.00    -0.273 OA
HETATM   16  N   UNL     1      15.376   4.719   7.098  1.00  0.00    -0.347 N 
BRANCH  16  17
HETATM   17  C   UNL     1      14.671   5.871   6.515  1.00  0.00     0.157 C 
BRANCH  17  18
HETATM   18  C   UNL     1      14.174   6.954   7.504  1.00  0.00     0.132 C 
HETATM   19  C   UNL     1      15.272   7.674   8.279  1.00  0.00     0.041 C 
BRANCH  18  20
HETATM   20  O   UNL     1      13.433   7.937   6.770  1.00  0.00    -0.394 OA
HETATM   21  H   UNL     1      14.059   8.500   6.284  1.00  0.00     0.210 HD
ENDBRANCH  18  20
ENDBRANCH  17  18
ENDBRANCH  16  17
BRANCH  16  22
HETATM   22  C   UNL     1      16.839   4.706   7.019  1.00  0.00     0.157 C 
BRANCH  22  23
HETATM   23  C   UNL     1      17.425   3.675   6.030  1.00  0.00     0.132 C 
HETATM   24  C   UNL     1      16.905   3.827   4.604  1.00  0.00     0.041 C 
BRANCH  23  25
HETATM   25  O   UNL     1      18.851   3.795   6.006  1.00  0.00    -0.394 OA
HETATM   26  H   UNL     1      19.080   4.633   5.566  1.00  0.00     0.210 HD
ENDBRANCH  23  25
ENDBRANCH  22  23
ENDBRANCH  16  22
ENDBRANCH   1  14
TORSDOF 18
