REMARK  1 active torsions:
REMARK  status: ('A' for Active; 'I' for Inactive)
REMARK    1  A    between atoms: N_5  and  O_8 
ROOT
HETATM    1  C   UNL     1      -0.786  -0.988  -0.103  1.00  0.00     0.115 C 
HETATM    2  C   UNL     1       0.734  -1.004   0.017  1.00  0.00     0.115 C 
HETATM    3  C   UNL     1       1.127   0.430  -0.174  1.00  0.00     0.251 C 
HETATM    4  O   UNL     1       2.266   0.848  -0.318  1.00  0.00    -0.271 OA
HETATM    5  N   UNL     1      -0.003   1.179  -0.124  1.00  0.00    -0.157 N 
HETATM    6  C   UNL     1      -1.158   0.470  -0.055  1.00  0.00     0.251 C 
HETATM    7  O   UNL     1      -2.306   0.881  -0.004  1.00  0.00    -0.271 OA
ENDROOT
BRANCH   5   8
HETATM    8  O   UNL     1       0.032   2.565  -0.226  1.00  0.00    -0.277 OA
HETATM    9  H   UNL     1       0.968   2.734  -0.450  1.00  0.00     0.245 HD
ENDBRANCH   5   8
TORSDOF 1
