REMARK  4 active torsions:
REMARK  status: ('A' for Active; 'I' for Inactive)
REMARK    1  A    between atoms: C_2  and  C_14 
REMARK    2  A    between atoms: C_6  and  O_13 
REMARK    3  A    between atoms: C_8  and  O_12 
REMARK    4  A    between atoms: C_17  and  O_20 
ROOT
HETATM    1  C   UNL     1       2.690  -0.726   0.405  1.00  0.00     0.121 C 
HETATM    2  C   UNL     1       2.075  -1.814  -0.460  1.00  0.00     0.169 C 
HETATM    3  O   UNL     1       0.737  -2.099  -0.006  1.00  0.00    -0.340 OA
HETATM    4  C   UNL     1      -0.077  -0.997   0.072  1.00  0.00     0.089 A 
HETATM    5  C   UNL     1      -1.448  -1.266   0.056  1.00  0.00     0.074 A 
HETATM    6  C   UNL     1      -2.349  -0.209   0.073  1.00  0.00     0.071 A 
HETATM    7  C   UNL     1      -1.903   1.108   0.103  1.00  0.00     0.074 A 
HETATM    8  C   UNL     1      -0.533   1.374   0.150  1.00  0.00     0.085 A 
HETATM    9  C   UNL     1       0.390   0.321   0.163  1.00  0.00     0.076 A 
HETATM   10  C   UNL     1       1.856   0.522   0.310  1.00  0.00     0.167 C 
HETATM   11  O   UNL     1       2.383   1.625   0.407  1.00  0.00    -0.292 OA
ENDROOT
BRANCH   2  12
HETATM   12  C   UNL     1       2.126  -1.645  -1.978  1.00  0.00    -0.028 A 
HETATM   13  C   UNL     1       2.757  -0.559  -2.608  1.00  0.00     0.012 A 
HETATM   14  C   UNL     1       2.811  -0.466  -4.003  1.00  0.00     0.037 A 
HETATM   15  C   UNL     1       2.241  -1.464  -4.780  1.00  0.00     0.065 A 
HETATM   16  C   UNL     1       1.611  -2.548  -4.187  1.00  0.00     0.037 A 
HETATM   17  C   UNL     1       1.554  -2.640  -2.793  1.00  0.00     0.012 A 
BRANCH  15  18
HETATM   18  O   UNL     1       2.286  -1.415  -6.141  1.00  0.00    -0.361 OA
HETATM   19  H   UNL     1       2.774  -0.618  -6.405  1.00  0.00     0.217 HD
ENDBRANCH  15  18
ENDBRANCH   2  12
BRANCH   8  20
HETATM   20  O   UNL     1      -0.118   2.674   0.179  1.00  0.00    -0.360 OA
HETATM   21  H   UNL     1      -0.875   3.269   0.058  1.00  0.00     0.217 HD
ENDBRANCH   8  20
BRANCH   6  22
HETATM   22  O   UNL     1      -3.695  -0.420   0.052  1.00  0.00    -0.361 OA
HETATM   23  H   UNL     1      -3.865  -1.377   0.031  1.00  0.00     0.217 HD
ENDBRANCH   6  22
TORSDOF 4
