REMARK  16 active torsions:
REMARK  status: ('A' for Active; 'I' for Inactive)
REMARK    1  A    between atoms: C_2  and  C_3 
REMARK    2  A    between atoms: C_3  and  C_4 
REMARK    3  A    between atoms: C_4  and  C_5 
REMARK    4  A    between atoms: C_5  and  C_6 
REMARK    5  A    between atoms: C_6  and  C_7 
REMARK    6  A    between atoms: C_7  and  O_9 
REMARK    7  A    between atoms: O_9  and  C_10 
REMARK    8  A    between atoms: C_10  and  C_11 
REMARK    9  A    between atoms: C_11  and  C_14 
REMARK   10  A    between atoms: C_14  and  O_15 
REMARK   11  A    between atoms: O_15  and  C_16 
REMARK   12  A    between atoms: C_16  and  C_18 
REMARK   13  A    between atoms: C_18  and  C_19 
REMARK   14  A    between atoms: C_19  and  C_20 
REMARK   15  A    between atoms: C_20  and  C_21 
REMARK   16  A    between atoms: C_21  and  C_22 
ROOT
HETATM    1  C   UNL     1      10.461   3.610  -4.626  1.00  0.00    -0.004 C 
HETATM    2  C   UNL     1      10.977   4.170  -3.292  1.00  0.00     0.019 C 
HETATM    3  C   UNL     1      10.977   2.169  -4.805  1.00  0.00     0.019 C 
ENDROOT
BRANCH   1   4
HETATM    4  C   UNL     1       8.918   3.612  -4.624  1.00  0.00     0.189 C 
BRANCH   4   5
HETATM    5  O   UNL     1       8.399   2.801  -3.551  1.00  0.00    -0.321 OA
BRANCH   5   6
HETATM    6  C   UNL     1       7.629   3.465  -2.642  1.00  0.00     0.258 C 
HETATM    7  O   UNL     1       7.344   4.654  -2.689  1.00  0.00    -0.265 OA
BRANCH   6   8
HETATM    8  C   UNL     1       7.137   2.530  -1.567  1.00  0.00     0.111 C 
BRANCH   8   9
HETATM    9  C   UNL     1       5.612   2.486  -1.532  1.00  0.00     0.010 C 
BRANCH   9  10
HETATM   10  C   UNL     1       5.004   1.975  -2.841  1.00  0.00     0.000 C 
BRANCH  10  11
HETATM   11  C   UNL     1       3.478   1.952  -2.754  1.00  0.00    -0.000 C 
BRANCH  11  12
HETATM   12  C   UNL     1       2.847   1.448  -4.050  1.00  0.00    -0.005 C 
HETATM   13  C   UNL     1       1.330   1.426  -3.951  1.00  0.00     0.005 C 
ENDBRANCH  11  12
ENDBRANCH  10  11
ENDBRANCH   9  10
ENDBRANCH   8   9
ENDBRANCH   6   8
ENDBRANCH   5   6
ENDBRANCH   4   5
ENDBRANCH   1   4
BRANCH   1  14
HETATM   14  C   UNL     1      10.988   4.484  -5.783  1.00  0.00     0.189 C 
BRANCH  14  15
HETATM   15  O   UNL     1      10.533   5.846  -5.715  1.00  0.00    -0.321 OA
BRANCH  15  16
HETATM   16  C   UNL     1      11.503   6.785  -5.529  1.00  0.00     0.258 C 
HETATM   17  O   UNL     1      12.628   6.570  -5.073  1.00  0.00    -0.265 OA
BRANCH  16  18
HETATM   18  C   UNL     1      11.079   8.099  -6.125  1.00  0.00     0.111 C 
BRANCH  18  19
HETATM   19  C   UNL     1      12.001   8.516  -7.278  1.00  0.00     0.010 C 
BRANCH  19  20
HETATM   20  C   UNL     1      12.007   7.515  -8.439  1.00  0.00     0.000 C 
BRANCH  20  21
HETATM   21  C   UNL     1      12.942   7.985  -9.555  1.00  0.00    -0.000 C 
BRANCH  21  22
HETATM   22  C   UNL     1      12.969   6.999 -10.720  1.00  0.00    -0.005 C 
HETATM   23  C   UNL     1      13.901   7.476 -11.823  1.00  0.00     0.005 C 
ENDBRANCH  21  22
ENDBRANCH  20  21
ENDBRANCH  19  20
ENDBRANCH  18  19
ENDBRANCH  16  18
ENDBRANCH  15  16
ENDBRANCH  14  15
ENDBRANCH   1  14
TORSDOF 16
