REMARK  18 active torsions:
REMARK  status: ('A' for Active; 'I' for Inactive)
REMARK    1  A    between atoms: C_3  and  C_45 
REMARK    2  A    between atoms: N_5  and  C_7 
REMARK    3  A    between atoms: C_8  and  O_44 
REMARK    4  A    between atoms: C_9  and  O_43 
REMARK    5  A    between atoms: C_10  and  C_12 
REMARK    6  A    between atoms: C_12  and  O_13 
REMARK    7  A    between atoms: O_13  and  P_14 
REMARK    8  A    between atoms: P_14  and  O_16 
REMARK    9  A    between atoms: P_14  and  O_17 
REMARK   10  A    between atoms: O_17  and  P_18 
REMARK   11  A    between atoms: P_18  and  O_20 
REMARK   12  A    between atoms: P_18  and  O_21 
REMARK   13  A    between atoms: O_21  and  C_22 
REMARK   14  A    between atoms: C_22  and  C_23 
REMARK   15  A    between atoms: C_24  and  O_42 
REMARK   16  A    between atoms: C_25  and  O_41 
REMARK   17  A    between atoms: C_26  and  N_28 
REMARK   18  A    between atoms: C_33  and  N_40 
REMARK       I    between atoms: C_45  and  N_47 
ROOT
HETATM    1  P   UNL     1       8.953   3.706  -1.484  1.00  0.00     0.401 P 
HETATM    2  O   UNL     1       8.394   4.774  -0.533  1.00  0.00    -0.631 OA
ENDROOT
BRANCH   1   3
HETATM    3  O   UNL     1       9.226   2.716  -0.092  1.00  0.00    -0.195 OA
BRANCH   3   4
HETATM    4  P   UNL     1       8.169   1.347  -0.141  1.00  0.00     0.401 P 
HETATM    5  O   UNL     1       8.818   0.850  -1.431  1.00  0.00    -0.631 OA
BRANCH   4   6
HETATM    6  O   UNL     1       7.113  -0.022  -0.190  1.00  0.00    -0.294 OA
BRANCH   6   7
HETATM    7  C   UNL     1       7.569  -1.114   0.602  1.00  0.00     0.215 C 
BRANCH   7   8
HETATM    8  C   UNL     1       6.603  -2.303   0.488  1.00  0.00     0.180 C 
HETATM    9  C   UNL     1       6.387  -2.856  -0.922  1.00  0.00     0.182 C 
HETATM   10  C   UNL     1       5.088  -2.228  -1.414  1.00  0.00     0.198 C 
HETATM   11  C   UNL     1       4.570  -1.452  -0.202  1.00  0.00     0.259 C 
HETATM   12  O   UNL     1       5.279  -1.935   0.951  1.00  0.00    -0.353 OA
BRANCH   9  13
HETATM   13  O   UNL     1       7.456  -2.700  -1.837  1.00  0.00    -0.390 OA
HETATM   14  H   UNL     1       7.763  -1.767  -1.857  1.00  0.00     0.210 HD
ENDBRANCH   9  13
BRANCH  10  15
HETATM   15  O   UNL     1       5.276  -1.365  -2.531  1.00  0.00    -0.388 OA
HETATM   16  H   UNL     1       6.009  -1.738  -3.067  1.00  0.00     0.210 HD
ENDBRANCH  10  15
BRANCH  11  17
HETATM   17  N   UNL     1       3.093  -1.574  -0.055  1.00  0.00    -0.336 N 
HETATM   18  C   UNL     1       2.307  -0.968  -0.984  1.00  0.00     0.110 A 
HETATM   19  C   UNL     1       0.923  -0.892  -0.821  1.00  0.00     0.047 A 
HETATM   20  C   UNL     1       0.342  -1.484   0.297  1.00  0.00     0.020 A 
HETATM   21  C   UNL     1       1.158  -2.130   1.223  1.00  0.00     0.018 A 
HETATM   22  C   UNL     1       2.538  -2.160   1.031  1.00  0.00     0.093 A 
BRANCH  19  23
HETATM   23  C   UNL     1       0.177  -0.144  -1.858  1.00  0.00     0.250 C 
HETATM   24  O   UNL     1       0.775   0.286  -2.835  1.00  0.00    -0.268 OA
HETATM   25  N   UNL     1      -1.160   0.074  -1.694  1.00  0.00    -0.366 N 
HETATM   26  H   UNL     1      -1.727  -0.210  -0.908  1.00  0.00     0.159 HD
HETATM   27  H   UNL     1      -1.626   0.617  -2.412  1.00  0.00     0.159 HD
ENDBRANCH  19  23
ENDBRANCH  11  17
ENDBRANCH   7   8
ENDBRANCH   6   7
ENDBRANCH   4   6
BRANCH   4  28
HETATM   28  O   UNL     1       6.897   2.280  -0.552  1.00  0.00    -0.307 OA
HETATM   29  H   UNL     1       6.533   2.814   0.182  1.00  0.00     0.222 HD
ENDBRANCH   4  28
ENDBRANCH   3   4
ENDBRANCH   1   3
BRANCH   1  30
HETATM   30  O   UNL     1      10.570   3.941  -1.557  1.00  0.00    -0.307 OA
HETATM   31  H   UNL     1      10.831   4.660  -0.954  1.00  0.00     0.222 HD
ENDBRANCH   1  30
BRANCH   1  32
HETATM   32  O   UNL     1       8.680   4.695  -2.877  1.00  0.00    -0.294 OA
BRANCH  32  33
HETATM   33  C   UNL     1       9.174   6.035  -2.735  1.00  0.00     0.215 C 
BRANCH  33  34
HETATM   34  C   UNL     1       8.989   6.794  -4.012  1.00  0.00     0.180 C 
HETATM   35  C   UNL     1       7.555   7.062  -4.406  1.00  0.00     0.182 C 
HETATM   36  C   UNL     1       7.645   7.155  -5.933  1.00  0.00     0.198 C 
HETATM   37  C   UNL     1       9.013   6.547  -6.284  1.00  0.00     0.262 C 
HETATM   38  O   UNL     1       9.552   6.017  -5.070  1.00  0.00    -0.353 OA
BRANCH  35  39
HETATM   39  O   UNL     1       7.057   8.242  -3.790  1.00  0.00    -0.390 OA
HETATM   40  H   UNL     1       6.473   8.680  -4.438  1.00  0.00     0.210 HD
ENDBRANCH  35  39
BRANCH  36  41
HETATM   41  O   UNL     1       7.336   8.439  -6.448  1.00  0.00    -0.388 OA
HETATM   42  H   UNL     1       7.985   9.073  -6.096  1.00  0.00     0.210 HD
ENDBRANCH  36  41
BRANCH  37  43
HETATM   43  N   UNL     1      10.112   7.243  -6.925  1.00  0.00    -0.297 N 
HETATM   44  C   UNL     1      10.880   6.508  -7.823  1.00  0.00     0.188 C 
HETATM   45  N   UNL     1      12.149   6.817  -7.782  1.00  0.00    -0.346 N 
HETATM   46  C   UNL     1      12.229   7.742  -6.776  1.00  0.00     0.122 C 
ATOM     47  HN  UNL     1      12.904   6.454  -8.364  1.00  0.00     0.167 HD
HETATM   48  C   UNL     1      13.337   8.192  -6.059  1.00  0.00     0.131 C 
HETATM   49  C   UNL     1      10.972   8.166  -6.349  1.00  0.00     0.142 C 
HETATM   50  N   UNL     1      13.181   9.130  -5.124  1.00  0.00    -0.337 N 
HETATM   51  C   UNL     1      11.907   9.573  -4.897  1.00  0.00     0.183 C 
ATOM     52  HN  UNL     1      13.975   9.500  -4.602  1.00  0.00     0.168 HD
HETATM   53  N   UNL     1      10.739   9.116  -5.421  1.00  0.00    -0.336 N 
ATOM     54  HN  UNL     1       9.813   9.446  -5.149  1.00  0.00     0.168 HD
BRANCH  48  55
HETATM   55  N   UNL     1      14.555   7.557  -6.226  1.00  0.00    -0.383 N 
HETATM   56  H   UNL     1      14.572   6.781  -6.880  1.00  0.00     0.157 HD
HETATM   57  H   UNL     1      15.360   7.814  -5.683  1.00  0.00     0.157 HD
ENDBRANCH  48  55
ENDBRANCH  37  43
ENDBRANCH  33  34
ENDBRANCH  32  33
ENDBRANCH   1  32
TORSDOF 18
