REMARK  15 active torsions:
REMARK  status: ('A' for Active; 'I' for Inactive)
REMARK    1  A    between atoms: C_2  and  C_3 
REMARK    2  A    between atoms: C_3  and  C_4 
REMARK    3  A    between atoms: C_4  and  C_5 
REMARK    4  A    between atoms: C_5  and  C_6 
REMARK    5  A    between atoms: C_6  and  C_7 
REMARK    6  A    between atoms: C_7  and  C_8 
REMARK    7  A    between atoms: C_8  and  C_9 
REMARK    8  A    between atoms: C_9  and  C_10 
REMARK    9  A    between atoms: C_10  and  C_11 
REMARK   10  A    between atoms: C_11  and  C_12 
REMARK   11  A    between atoms: C_12  and  C_13 
REMARK   12  A    between atoms: C_13  and  C_14 
REMARK   13  A    between atoms: C_14  and  C_15 
REMARK   14  A    between atoms: C_15  and  C_16 
REMARK   15  A    between atoms: C_16  and  C_17 
ROOT
HETATM    1  C   UNL     1       9.169   0.548  -5.694  1.00  0.00     0.000 C 
ENDROOT
BRANCH   1   2
HETATM    2  C   UNL     1       8.659   0.431  -4.270  1.00  0.00     0.000 C 
BRANCH   2   3
HETATM    3  C   UNL     1       7.142   0.432  -4.265  1.00  0.00     0.000 C 
BRANCH   3   4
HETATM    4  C   UNL     1       6.631   0.317  -2.841  1.00  0.00     0.000 C 
BRANCH   4   5
HETATM    5  C   UNL     1       5.114   0.317  -2.836  1.00  0.00     0.000 C 
BRANCH   5   6
HETATM    6  C   UNL     1       4.602   0.203  -1.410  1.00  0.00     0.000 C 
BRANCH   6   7
HETATM    7  C   UNL     1       3.084   0.201  -1.402  1.00  0.00    -0.000 C 
BRANCH   7   8
HETATM    8  C   UNL     1       2.564   0.089   0.023  1.00  0.00    -0.005 C 
HETATM    9  C   UNL     1       1.049   0.085   0.028  1.00  0.00     0.005 C 
ENDBRANCH   7   8
ENDBRANCH   6   7
ENDBRANCH   5   6
ENDBRANCH   4   5
ENDBRANCH   3   4
ENDBRANCH   2   3
ENDBRANCH   1   2
BRANCH   1  10
HETATM   10  C   UNL     1      10.686   0.549  -5.699  1.00  0.00     0.000 C 
BRANCH  10  11
HETATM   11  C   UNL     1      11.197   0.668  -7.123  1.00  0.00     0.000 C 
BRANCH  11  12
HETATM   12  C   UNL     1      12.714   0.668  -7.128  1.00  0.00     0.000 C 
BRANCH  12  13
HETATM   13  C   UNL     1      13.226   0.788  -8.552  1.00  0.00     0.000 C 
BRANCH  13  14
HETATM   14  C   UNL     1      14.745   0.788  -8.561  1.00  0.00     0.000 C 
BRANCH  14  15
HETATM   15  C   UNL     1      15.257   0.908  -9.988  1.00  0.00     0.004 C 
BRANCH  15  16
HETATM   16  C   UNL     1      16.778   0.911 -10.003  1.00  0.00     0.026 C 
BRANCH  16  17
HETATM   17  C   UNL     1      17.304   1.023 -11.402  1.00  0.00    -0.037 C 
HETATM   18  C   UNL     1      18.076   0.082 -11.944  1.00  0.00     0.007 C 
ENDBRANCH  16  17
ENDBRANCH  15  16
ENDBRANCH  14  15
ENDBRANCH  13  14
ENDBRANCH  12  13
ENDBRANCH  11  12
ENDBRANCH  10  11
ENDBRANCH   1  10
TORSDOF 15
