REMARK  21 active torsions:
REMARK  status: ('A' for Active; 'I' for Inactive)
REMARK    1  A    between atoms: C_2  and  C_3 
REMARK    2  A    between atoms: C_3  and  C_4 
REMARK    3  A    between atoms: C_4  and  C_5 
REMARK    4  A    between atoms: C_5  and  C_6 
REMARK    5  A    between atoms: C_6  and  C_7 
REMARK    6  A    between atoms: C_7  and  C_8 
REMARK    7  A    between atoms: C_8  and  C_9 
REMARK    8  A    between atoms: C_9  and  C_10 
REMARK    9  A    between atoms: C_10  and  C_11 
REMARK   10  A    between atoms: C_11  and  C_12 
REMARK   11  A    between atoms: C_11  and  C_20 
REMARK   12  A    between atoms: C_12  and  C_13 
REMARK   13  A    between atoms: C_13  and  C_14 
REMARK   14  A    between atoms: C_14  and  C_15 
REMARK   15  A    between atoms: C_15  and  C_16 
REMARK   16  A    between atoms: C_16  and  C_17 
REMARK   17  A    between atoms: C_17  and  C_18 
REMARK   18  A    between atoms: C_20  and  O_21 
REMARK   19  A    between atoms: O_21  and  C_22 
REMARK   20  A    between atoms: C_22  and  C_24 
REMARK   21  A    between atoms: C_24  and  O_26 
ROOT
HETATM    1  C   UNL     1      11.193   2.228  -6.874  1.00  0.00     0.010 C 
ENDROOT
BRANCH   1   2
HETATM    2  C   UNL     1      10.693   1.727  -5.500  1.00  0.00     0.007 C 
BRANCH   2   3
HETATM    3  C   UNL     1       9.167   1.725  -5.397  1.00  0.00     0.000 C 
BRANCH   3   4
HETATM    4  C   UNL     1       8.658   1.171  -4.067  1.00  0.00     0.000 C 
BRANCH   4   5
HETATM    5  C   UNL     1       7.128   1.171  -4.074  1.00  0.00     0.000 C 
BRANCH   5   6
HETATM    6  C   UNL     1       6.543   0.668  -2.759  1.00  0.00     0.000 C 
BRANCH   6   7
HETATM    7  C   UNL     1       5.013   0.689  -2.806  1.00  0.00     0.000 C 
BRANCH   7   8
HETATM    8  C   UNL     1       4.424   0.196  -1.489  1.00  0.00     0.000 C 
BRANCH   8   9
HETATM    9  C   UNL     1       2.897   0.210  -1.515  1.00  0.00    -0.000 C 
BRANCH   9  10
HETATM   10  C   UNL     1       2.332  -0.288  -0.186  1.00  0.00    -0.005 C 
HETATM   11  C   UNL     1       0.813  -0.287  -0.186  1.00  0.00     0.005 C 
ENDBRANCH   9  10
ENDBRANCH   8   9
ENDBRANCH   7   8
ENDBRANCH   6   7
ENDBRANCH   5   6
ENDBRANCH   4   5
ENDBRANCH   3   4
ENDBRANCH   2   3
ENDBRANCH   1   2
BRANCH   1  12
HETATM   12  C   UNL     1      10.705   3.648  -7.244  1.00  0.00     0.007 C 
BRANCH  12  13
HETATM   13  C   UNL     1      11.198   4.753  -6.303  1.00  0.00     0.000 C 
BRANCH  13  14
HETATM   14  C   UNL     1      10.673   6.143  -6.671  1.00  0.00     0.000 C 
BRANCH  14  15
HETATM   15  C   UNL     1       9.149   6.229  -6.631  1.00  0.00     0.000 C 
BRANCH  15  16
HETATM   16  C   UNL     1       8.657   7.643  -6.929  1.00  0.00     0.000 C 
BRANCH  16  17
HETATM   17  C   UNL     1       7.130   7.686  -6.922  1.00  0.00    -0.000 C 
BRANCH  17  18
HETATM   18  C   UNL     1       6.620   9.087  -7.235  1.00  0.00    -0.005 C 
HETATM   19  C   UNL     1       5.102   9.136  -7.224  1.00  0.00     0.005 C 
ENDBRANCH  17  18
ENDBRANCH  16  17
ENDBRANCH  15  16
ENDBRANCH  14  15
ENDBRANCH  13  14
ENDBRANCH  12  13
ENDBRANCH   1  12
BRANCH   1  20
HETATM   20  C   UNL     1      12.725   2.109  -6.949  1.00  0.00     0.183 C 
BRANCH  20  21
HETATM   21  O   UNL     1      13.213   2.579  -8.216  1.00  0.00    -0.319 OA
BRANCH  21  22
HETATM   22  C   UNL     1      13.184   1.675  -9.233  1.00  0.00     0.287 C 
HETATM   23  O   UNL     1      12.792   0.516  -9.145  1.00  0.00    -0.262 OA
BRANCH  22  24
HETATM   24  C   UNL     1      13.723   2.288 -10.526  1.00  0.00     0.213 C 
HETATM   25  C   UNL     1      15.176   2.697 -10.362  1.00  0.00     0.050 C 
BRANCH  24  26
HETATM   26  O   UNL     1      13.641   1.367 -11.616  1.00  0.00    -0.386 OA
HETATM   27  H   UNL     1      13.745   0.474 -11.234  1.00  0.00     0.210 HD
ENDBRANCH  24  26
ENDBRANCH  22  24
ENDBRANCH  21  22
ENDBRANCH  20  21
ENDBRANCH   1  20
TORSDOF 21
