REMARK  21 active torsions:
REMARK  status: ('A' for Active; 'I' for Inactive)
REMARK    1  A    between atoms: C_2  and  C_3 
REMARK    2  A    between atoms: C_3  and  C_4 
REMARK    3  A    between atoms: C_4  and  C_5 
REMARK    4  A    between atoms: C_5  and  C_6 
REMARK    5  A    between atoms: C_6  and  C_7 
REMARK    6  A    between atoms: C_7  and  C_8 
REMARK    7  A    between atoms: C_8  and  C_9 
REMARK    8  A    between atoms: C_10  and  C_11 
REMARK    9  A    between atoms: C_11  and  C_12 
REMARK   10  A    between atoms: C_12  and  C_13 
REMARK   11  A    between atoms: C_13  and  C_14 
REMARK   12  A    between atoms: C_14  and  C_15 
REMARK   13  A    between atoms: C_15  and  C_16 
REMARK   14  A    between atoms: C_16  and  C_17 
REMARK   15  A    between atoms: C_17  and  C_18 
REMARK       I    between atoms: C_18  and  N_20 
REMARK   16  A    between atoms: N_20  and  C_21 
REMARK   17  A    between atoms: C_21  and  C_22 
REMARK   18  A    between atoms: C_22  and  C_23 
REMARK   19  A    between atoms: C_23  and  N_24 
REMARK   20  A    between atoms: N_24  and  C_27 
REMARK   21  A    between atoms: C_27  and  C_28 
ROOT
HETATM    1  C   UNL     1      16.543  -8.247  -6.032  1.00  0.00     0.009 C 
ENDROOT
BRANCH   1   2
HETATM    2  C   UNL     1      15.026  -8.242  -6.026  1.00  0.00     0.000 C 
BRANCH   2   3
HETATM    3  C   UNL     1      14.516  -7.084  -5.175  1.00  0.00     0.000 C 
BRANCH   3   4
HETATM    4  C   UNL     1      12.995  -7.065  -5.161  1.00  0.00     0.000 C 
BRANCH   4   5
HETATM    5  C   UNL     1      12.480  -5.910  -4.312  1.00  0.00     0.004 C 
BRANCH   5   6
HETATM    6  C   UNL     1      10.958  -5.902  -4.304  1.00  0.00     0.027 C 
BRANCH   6   7
HETATM    7  C   UNL     1      10.444  -4.770  -3.478  1.00  0.00    -0.031 C 
HETATM    8  C   UNL     1       9.671  -3.802  -3.986  1.00  0.00    -0.031 C 
BRANCH   8   9
HETATM    9  C   UNL     1       9.158  -2.672  -3.160  1.00  0.00     0.027 C 
BRANCH   9  10
HETATM   10  C   UNL     1       7.636  -2.669  -3.152  1.00  0.00     0.004 C 
BRANCH  10  11
HETATM   11  C   UNL     1       7.120  -1.515  -2.304  1.00  0.00     0.000 C 
BRANCH  11  12
HETATM   12  C   UNL     1       5.599  -1.505  -2.296  1.00  0.00     0.000 C 
BRANCH  12  13
HETATM   13  C   UNL     1       5.081  -0.353  -1.447  1.00  0.00     0.000 C 
BRANCH  13  14
HETATM   14  C   UNL     1       3.559  -0.344  -1.440  1.00  0.00    -0.000 C 
BRANCH  14  15
HETATM   15  C   UNL     1       3.030   0.806  -0.593  1.00  0.00    -0.005 C 
HETATM   16  C   UNL     1       1.512   0.811  -0.586  1.00  0.00     0.005 C 
ENDBRANCH  14  15
ENDBRANCH  13  14
ENDBRANCH  12  13
ENDBRANCH  11  12
ENDBRANCH  10  11
ENDBRANCH   9  10
ENDBRANCH   8   9
ENDBRANCH   6   7
ENDBRANCH   5   6
ENDBRANCH   4   5
ENDBRANCH   3   4
ENDBRANCH   2   3
ENDBRANCH   1   2
BRANCH   1  17
HETATM   17  C   UNL     1      17.108  -9.385  -6.875  1.00  0.00     0.103 C 
BRANCH  17  18
HETATM   18  C   UNL     1      18.603  -9.299  -6.863  1.00  0.00     0.217 C 
HETATM   19  O   UNL     1      19.208  -8.402  -6.259  1.00  0.00    -0.274 OA
HETATM   20  N   UNL     1      19.239 -10.296  -7.562  1.00  0.00    -0.361 N 
HETATM   21  H   UNL     1      18.699 -11.030  -8.020  1.00  0.00     0.162 HD
BRANCH  20  22
HETATM   22  C   UNL     1      20.685 -10.359  -7.571  1.00  0.00     0.124 C 
BRANCH  22  23
HETATM   23  C   UNL     1      21.264 -10.517  -6.175  1.00  0.00     0.048 C 
BRANCH  23  24
HETATM   24  C   UNL     1      20.798 -11.802  -5.468  1.00  0.00     0.238 C 
BRANCH  24  25
HETATM   25  N   UNL     1      21.374 -11.883  -4.060  1.00  0.00    -0.065 N 
HETATM   26  C   UNL     1      22.897 -11.865  -4.094  1.00  0.00     0.272 C 
HETATM   27  C   UNL     1      20.806 -10.773  -3.182  1.00  0.00     0.272 C 
BRANCH  25  28
HETATM   28  C   UNL     1      20.933 -13.279  -3.380  1.00  0.00     0.349 C 
BRANCH  28  29
HETATM   29  C   UNL     1      19.443 -13.682  -3.124  1.00  0.00     0.199 C 
HETATM   30  O   UNL     1      18.589 -13.277  -3.971  1.00  0.00    -0.647 OA
HETATM   31  O   UNL     1      19.262 -14.431  -2.118  1.00  0.00    -0.647 OA
ENDBRANCH  28  29
ENDBRANCH  25  28
ENDBRANCH  24  25
ENDBRANCH  23  24
ENDBRANCH  22  23
ENDBRANCH  20  22
ENDBRANCH  17  18
ENDBRANCH   1  17
TORSDOF 21
