REMARK WARNING: 32 MAX_TORS EXCEEDED!!!
REMARK  36 active torsions:
REMARK  status: ('A' for Active; 'I' for Inactive)
REMARK    1  A    between atoms: C_2  and  C_3 
REMARK    2  A    between atoms: C_3  and  C_4 
REMARK    3  A    between atoms: C_4  and  C_5 
REMARK    4  A    between atoms: C_5  and  C_6 
REMARK    5  A    between atoms: C_6  and  C_7 
REMARK    6  A    between atoms: C_7  and  C_8 
REMARK    7  A    between atoms: C_8  and  C_9 
REMARK    8  A    between atoms: C_10  and  C_11 
REMARK    9  A    between atoms: C_11  and  C_12 
REMARK   10  A    between atoms: C_12  and  C_13 
REMARK   11  A    between atoms: C_13  and  C_14 
REMARK   12  A    between atoms: C_14  and  C_15 
REMARK   13  A    between atoms: C_15  and  C_16 
REMARK   14  A    between atoms: C_16  and  C_17 
REMARK   15  A    between atoms: C_17  and  C_18 
REMARK   16  A    between atoms: C_18  and  C_19 
REMARK   17  A    between atoms: C_19  and  C_20 
REMARK   18  A    between atoms: C_20  and  C_21 
REMARK   19  A    between atoms: C_21  and  C_22 
REMARK   20  A    between atoms: C_22  and  O_24 
REMARK   21  A    between atoms: O_24  and  C_25 
REMARK   22  A    between atoms: C_25  and  C_26 
REMARK   23  A    between atoms: C_26  and  C_27 
REMARK   24  A    between atoms: C_27  and  C_28 
REMARK   25  A    between atoms: C_28  and  C_29 
REMARK   26  A    between atoms: C_29  and  C_30 
REMARK   27  A    between atoms: C_30  and  C_31 
REMARK   28  A    between atoms: C_31  and  C_32 
REMARK   29  A    between atoms: C_32  and  C_33 
REMARK   30  A    between atoms: C_34  and  C_35 
REMARK   31  A    between atoms: C_35  and  C_36 
REMARK   32  A    between atoms: C_36  and  C_37 
REMARK   33  A    between atoms: C_37  and  C_38 
REMARK   34  A    between atoms: C_38  and  C_39 
REMARK   35  A    between atoms: C_39  and  C_40 
REMARK   36  A    between atoms: C_40  and  C_41 
ROOT
HETATM    1  C   UNL     1      21.051  11.043  -9.561  1.00  0.00     0.111 C 
ENDROOT
BRANCH   1   2
HETATM    2  C   UNL     1      20.498   9.977  -8.636  1.00  0.00     0.010 C 
BRANCH   2   3
HETATM    3  C   UNL     1      18.978   9.970  -8.629  1.00  0.00     0.000 C 
BRANCH   3   4
HETATM    4  C   UNL     1      18.464   8.884  -7.695  1.00  0.00     0.000 C 
BRANCH   4   5
HETATM    5  C   UNL     1      16.946   8.876  -7.688  1.00  0.00     0.000 C 
BRANCH   5   6
HETATM    6  C   UNL     1      16.434   7.793  -6.756  1.00  0.00     0.000 C 
BRANCH   6   7
HETATM    7  C   UNL     1      14.916   7.789  -6.751  1.00  0.00     0.000 C 
BRANCH   7   8
HETATM    8  C   UNL     1      14.404   6.706  -5.819  1.00  0.00     0.000 C 
BRANCH   8   9
HETATM    9  C   UNL     1      12.886   6.700  -5.814  1.00  0.00     0.000 C 
BRANCH   9  10
HETATM   10  C   UNL     1      12.373   5.615  -4.882  1.00  0.00     0.004 C 
BRANCH  10  11
HETATM   11  C   UNL     1      10.853   5.608  -4.875  1.00  0.00     0.027 C 
BRANCH  11  12
HETATM   12  C   UNL     1      10.340   4.544  -3.962  1.00  0.00    -0.031 C 
HETATM   13  C   UNL     1       9.570   4.823  -2.902  1.00  0.00    -0.031 C 
BRANCH  13  14
HETATM   14  C   UNL     1       9.057   3.760  -1.988  1.00  0.00     0.027 C 
BRANCH  14  15
HETATM   15  C   UNL     1       7.537   3.753  -1.979  1.00  0.00     0.004 C 
BRANCH  15  16
HETATM   16  C   UNL     1       7.025   2.667  -1.047  1.00  0.00     0.000 C 
BRANCH  16  17
HETATM   17  C   UNL     1       5.506   2.663  -1.037  1.00  0.00     0.000 C 
BRANCH  17  18
HETATM   18  C   UNL     1       4.995   1.579  -0.105  1.00  0.00     0.000 C 
BRANCH  18  19
HETATM   19  C   UNL     1       3.477   1.576  -0.095  1.00  0.00    -0.000 C 
BRANCH  19  20
HETATM   20  C   UNL     1       2.960   0.492   0.837  1.00  0.00    -0.005 C 
HETATM   21  C   UNL     1       1.446   0.490   0.843  1.00  0.00     0.005 C 
ENDBRANCH  19  20
ENDBRANCH  18  19
ENDBRANCH  17  18
ENDBRANCH  16  17
ENDBRANCH  15  16
ENDBRANCH  14  15
ENDBRANCH  13  14
ENDBRANCH  11  12
ENDBRANCH  10  11
ENDBRANCH   9  10
ENDBRANCH   8   9
ENDBRANCH   7   8
ENDBRANCH   6   7
ENDBRANCH   5   6
ENDBRANCH   4   5
ENDBRANCH   3   4
ENDBRANCH   2   3
ENDBRANCH   1   2
BRANCH   1  22
HETATM   22  C   UNL     1      22.574  11.034  -9.539  1.00  0.00     0.258 C 
HETATM   23  O   UNL     1      23.258  11.990  -9.217  1.00  0.00    -0.265 OA
BRANCH  22  24
HETATM   24  O   UNL     1      23.065   9.838  -9.986  1.00  0.00    -0.321 OA
BRANCH  24  25
HETATM   25  C   UNL     1      23.970   9.932 -11.098  1.00  0.00     0.178 C 
BRANCH  25  26
HETATM   26  C   UNL     1      25.357   9.416 -10.752  1.00  0.00     0.027 C 
BRANCH  26  27
HETATM   27  C   UNL     1      26.288   9.490 -11.960  1.00  0.00     0.002 C 
BRANCH  27  28
HETATM   28  C   UNL     1      27.677   8.983 -11.597  1.00  0.00     0.000 C 
BRANCH  28  29
HETATM   29  C   UNL     1      28.601   9.062 -12.801  1.00  0.00     0.000 C 
BRANCH  29  30
HETATM   30  C   UNL     1      29.985   8.554 -12.435  1.00  0.00     0.000 C 
BRANCH  30  31
HETATM   31  C   UNL     1      30.908   8.634 -13.641  1.00  0.00     0.004 C 
BRANCH  31  32
HETATM   32  C   UNL     1      32.292   8.125 -13.277  1.00  0.00     0.027 C 
BRANCH  32  33
HETATM   33  C   UNL     1      33.211   8.211 -14.458  1.00  0.00    -0.031 C 
HETATM   34  C   UNL     1      34.313   8.944 -14.445  1.00  0.00    -0.031 C 
BRANCH  34  35
HETATM   35  C   UNL     1      35.233   9.032 -15.625  1.00  0.00     0.027 C 
BRANCH  35  36
HETATM   36  C   UNL     1      36.618   8.526 -15.262  1.00  0.00     0.004 C 
BRANCH  36  37
HETATM   37  C   UNL     1      37.540   8.611 -16.467  1.00  0.00     0.000 C 
BRANCH  37  38
HETATM   38  C   UNL     1      38.924   8.104 -16.101  1.00  0.00     0.000 C 
BRANCH  38  39
HETATM   39  C   UNL     1      39.844   8.190 -17.306  1.00  0.00     0.000 C 
BRANCH  39  40
HETATM   40  C   UNL     1      41.227   7.682 -16.941  1.00  0.00    -0.000 C 
BRANCH  40  41
HETATM   41  C   UNL     1      42.153   7.768 -18.144  1.00  0.00    -0.005 C 
HETATM   42  C   UNL     1      43.531   7.260 -17.776  1.00  0.00     0.005 C 
ENDBRANCH  40  41
ENDBRANCH  39  40
ENDBRANCH  38  39
ENDBRANCH  37  38
ENDBRANCH  36  37
ENDBRANCH  35  36
ENDBRANCH  34  35
ENDBRANCH  32  33
ENDBRANCH  31  32
ENDBRANCH  30  31
ENDBRANCH  29  30
ENDBRANCH  28  29
ENDBRANCH  27  28
ENDBRANCH  26  27
ENDBRANCH  25  26
ENDBRANCH  24  25
ENDBRANCH  22  24
ENDBRANCH   1  22
TORSDOF 36
