REMARK  2 active torsions:
REMARK  status: ('A' for Active; 'I' for Inactive)
REMARK    1  A    between atoms: C_2  and  C_7 
REMARK    2  A    between atoms: C_7  and  O_9 
ROOT
HETATM    1  C   UNK     1      -1.720  -0.084   0.159  1.00  0.00     0.120 C 
HETATM    2  C   UNK     1      -1.305   1.333  -0.209  1.00  0.00     0.193 C 
HETATM    3  N   UNK     1       0.128   1.445   0.004  1.00  0.00    -0.337 N 
HETATM    4  C   UNK     1       0.842   0.282   0.019  1.00  0.00     0.280 C 
HETATM    5  O   UNK     1       2.052   0.211   0.138  1.00  0.00    -0.260 OA
HETATM    6  S   UNK     1      -0.233  -1.077  -0.174  1.00  0.00    -0.067 SA
HETATM    7  H   UNK     1       0.604   2.310   0.239  1.00  0.00     0.164 HD
ENDROOT
BRANCH   2   8
HETATM    8  C   UNK     1      -1.704   1.656  -1.650  1.00  0.00     0.164 C 
HETATM    9  O   UNK     1      -2.851   1.587  -2.071  1.00  0.00    -0.648 OA
BRANCH   8  10
HETATM   10  O   UNK     1      -0.674   2.071  -2.427  1.00  0.00    -0.775 OA
HETATM   11  H   UNK     1       0.179   2.029  -1.947  1.00  0.00     0.167 HD
ENDBRANCH   8  10
ENDBRANCH   2   8
TORSDOF 2
