REMARK  9 active torsions:
REMARK  status: ('A' for Active; 'I' for Inactive)
REMARK    1  A    between atoms: C_2  and  C_4 
REMARK    2  A    between atoms: C_2  and  C_6 
REMARK    3  A    between atoms: C_4  and  O_5 
REMARK    4  A    between atoms: C_6  and  C_7 
REMARK    5  A    between atoms: C_6  and  O_14 
REMARK       I    between atoms: C_7  and  N_9 
REMARK    6  A    between atoms: N_9  and  C_10 
REMARK    7  A    between atoms: C_10  and  C_11 
REMARK    8  A    between atoms: C_11  and  C_12 
REMARK    9  A    between atoms: C_12  and  O_13 
ROOT
HETATM    1  C   UNL     1       2.985  -0.360   1.442  1.00  0.00     0.219 C 
ENDROOT
BRANCH   1   2
HETATM    2  C   UNL     1       2.533  -0.032  -0.010  1.00  0.00     0.008 C 
HETATM    3  C   UNL     1       0.999  -0.106  -0.144  1.00  0.00     0.020 C 
HETATM    4  C   UNL     1       3.160  -1.015  -1.022  1.00  0.00     0.020 C 
BRANCH   2   5
HETATM    5  C   UNL     1       2.999   1.408  -0.342  1.00  0.00     0.175 C 
BRANCH   5   6
HETATM    6  O   UNL     1       2.625   1.796  -1.662  1.00  0.00    -0.400 OA
HETATM    7  H   UNL     1       3.228   1.348  -2.278  1.00  0.00     0.209 HD
ENDBRANCH   5   6
ENDBRANCH   2   5
ENDBRANCH   1   2
BRANCH   1   8
HETATM    8  C   UNL     1       2.580  -1.771   1.915  1.00  0.00     0.247 C 
HETATM    9  O   UNL     1       3.335  -2.730   1.752  1.00  0.00    -0.271 OA
HETATM   10  N   UNL     1       1.350  -1.864   2.523  1.00  0.00    -0.359 N 
HETATM   11  H   UNL     1       0.803  -1.028   2.685  1.00  0.00     0.162 HD
BRANCH  10  12
HETATM   12  C   UNL     1       0.824  -3.135   2.989  1.00  0.00     0.125 C 
BRANCH  12  13
HETATM   13  C   UNL     1       0.041  -3.846   1.887  1.00  0.00     0.046 C 
BRANCH  13  14
HETATM   14  C   UNL     1      -0.518  -5.180   2.361  1.00  0.00     0.165 C 
BRANCH  14  15
HETATM   15  O   UNL     1       0.524  -6.062   2.749  1.00  0.00    -0.401 OA
HETATM   16  H   UNL     1       1.103  -6.198   1.978  1.00  0.00     0.209 HD
ENDBRANCH  14  15
ENDBRANCH  13  14
ENDBRANCH  12  13
ENDBRANCH  10  12
ENDBRANCH   1   8
BRANCH   1  17
HETATM   17  O   UNL     1       4.409  -0.249   1.546  1.00  0.00    -0.385 OA
HETATM   18  H   UNL     1       4.760  -1.154   1.411  1.00  0.00     0.210 HD
ENDBRANCH   1  17
TORSDOF 9
