REMARK WARNING: 32 MAX_TORS EXCEEDED!!!
REMARK  35 active torsions:
REMARK  status: ('A' for Active; 'I' for Inactive)
REMARK    1  A    between atoms: C_2  and  C_3 
REMARK    2  A    between atoms: C_3  and  C_4 
REMARK    3  A    between atoms: C_4  and  C_5 
REMARK    4  A    between atoms: C_5  and  C_6 
REMARK    5  A    between atoms: C_6  and  C_7 
REMARK    6  A    between atoms: C_7  and  C_8 
REMARK    7  A    between atoms: C_8  and  C_9 
REMARK    8  A    between atoms: C_9  and  C_10 
REMARK    9  A    between atoms: C_10  and  C_11 
REMARK   10  A    between atoms: C_11  and  C_12 
REMARK   11  A    between atoms: C_12  and  O_14 
REMARK   12  A    between atoms: O_14  and  C_15 
REMARK   13  A    between atoms: C_15  and  C_16 
REMARK   14  A    between atoms: C_16  and  O_17 
REMARK   15  A    between atoms: O_17  and  C_18 
REMARK   16  A    between atoms: C_18  and  C_19 
REMARK   17  A    between atoms: C_19  and  O_20 
REMARK   18  A    between atoms: O_20  and  C_21 
REMARK   19  A    between atoms: C_21  and  C_22 
REMARK   20  A    between atoms: C_22  and  O_23 
REMARK   21  A    between atoms: O_23  and  C_24 
REMARK   22  A    between atoms: C_24  and  C_25 
REMARK   23  A    between atoms: C_25  and  O_26 
REMARK   24  A    between atoms: O_26  and  C_27 
REMARK   25  A    between atoms: C_27  and  C_28 
REMARK   26  A    between atoms: C_28  and  O_29 
REMARK   27  A    between atoms: O_29  and  C_30 
REMARK   28  A    between atoms: C_30  and  C_31 
REMARK   29  A    between atoms: C_31  and  O_32 
REMARK   30  A    between atoms: O_32  and  C_33 
REMARK   31  A    between atoms: C_33  and  C_34 
REMARK   32  A    between atoms: C_34  and  O_35 
REMARK   33  A    between atoms: O_35  and  C_36 
REMARK   34  A    between atoms: C_36  and  C_37 
REMARK   35  A    between atoms: C_37  and  O_38 
ROOT
HETATM    1  O   UNL     1      19.114  11.273   5.247  1.00  0.00    -0.387 OA
ENDROOT
BRANCH   1   2
HETATM    2  C   UNL     1      18.631  10.060   4.677  1.00  0.00     0.193 C 
BRANCH   2   3
HETATM    3  C   UNL     1      17.112  10.073   4.683  1.00  0.00     0.193 C 
BRANCH   3   4
HETATM    4  O   UNL     1      16.620   8.859   4.118  1.00  0.00    -0.387 OA
BRANCH   4   5
HETATM    5  C   UNL     1      15.189   8.855   4.108  1.00  0.00     0.194 C 
BRANCH   5   6
HETATM    6  C   UNL     1      14.669   7.558   3.492  1.00  0.00     0.205 C 
BRANCH   6   7
HETATM    7  O   UNL     1      15.115   7.401   2.123  1.00  0.00    -0.319 OA
BRANCH   7   8
HETATM    8  C   UNL     1      14.416   8.131   1.218  1.00  0.00     0.258 C 
HETATM    9  O   UNL     1      13.461   8.861   1.498  1.00  0.00    -0.265 OA
BRANCH   8  10
HETATM   10  C   UNL     1      14.952   7.997  -0.186  1.00  0.00     0.111 C 
BRANCH  10  11
HETATM   11  C   UNL     1      15.377   9.353  -0.745  1.00  0.00     0.010 C 
BRANCH  11  12
HETATM   12  C   UNL     1      16.491   9.975   0.087  1.00  0.00     0.000 C 
BRANCH  12  13
HETATM   13  C   UNL     1      16.895  11.322  -0.487  1.00  0.00     0.000 C 
BRANCH  13  14
HETATM   14  C   UNL     1      18.001  11.937   0.354  1.00  0.00     0.000 C 
BRANCH  14  15
HETATM   15  C   UNL     1      18.407  13.283  -0.219  1.00  0.00     0.000 C 
BRANCH  15  16
HETATM   16  C   UNL     1      19.514  13.893   0.622  1.00  0.00     0.000 C 
BRANCH  16  17
HETATM   17  C   UNL     1      19.918  15.240   0.049  1.00  0.00     0.000 C 
BRANCH  17  18
HETATM   18  C   UNL     1      21.026  15.852   0.889  1.00  0.00    -0.000 C 
BRANCH  18  19
HETATM   19  C   UNL     1      21.436  17.203   0.321  1.00  0.00    -0.005 C 
HETATM   20  C   UNL     1      22.542  17.809   1.161  1.00  0.00     0.005 C 
ENDBRANCH  18  19
ENDBRANCH  17  18
ENDBRANCH  16  17
ENDBRANCH  15  16
ENDBRANCH  14  15
ENDBRANCH  13  14
ENDBRANCH  12  13
ENDBRANCH  11  12
ENDBRANCH  10  11
ENDBRANCH   8  10
ENDBRANCH   7   8
ENDBRANCH   6   7
ENDBRANCH   5   6
ENDBRANCH   4   5
ENDBRANCH   3   4
ENDBRANCH   2   3
ENDBRANCH   1   2
BRANCH   1  21
HETATM   21  C   UNL     1      20.539  11.283   5.252  1.00  0.00     0.193 C 
BRANCH  21  22
HETATM   22  C   UNL     1      21.025  12.582   5.863  1.00  0.00     0.193 C 
BRANCH  22  23
HETATM   23  O   UNL     1      22.449  12.591   5.866  1.00  0.00    -0.387 OA
BRANCH  23  24
HETATM   24  C   UNL     1      22.933  13.804   6.434  1.00  0.00     0.193 C 
BRANCH  24  25
HETATM   25  C   UNL     1      24.449  13.785   6.421  1.00  0.00     0.193 C 
BRANCH  25  26
HETATM   26  O   UNL     1      24.931  14.998   6.991  1.00  0.00    -0.387 OA
BRANCH  26  27
HETATM   27  C   UNL     1      26.354  15.009   6.992  1.00  0.00     0.193 C 
BRANCH  27  28
HETATM   28  C   UNL     1      26.842  16.307   7.603  1.00  0.00     0.193 C 
BRANCH  28  29
HETATM   29  O   UNL     1      28.265  16.317   7.603  1.00  0.00    -0.387 OA
BRANCH  29  30
HETATM   30  C   UNL     1      28.748  17.529   8.173  1.00  0.00     0.193 C 
BRANCH  30  31
HETATM   31  C   UNL     1      30.263  17.512   8.161  1.00  0.00     0.193 C 
BRANCH  31  32
HETATM   32  O   UNL     1      30.746  18.724   8.731  1.00  0.00    -0.387 OA
BRANCH  32  33
HETATM   33  C   UNL     1      32.169  18.734   8.728  1.00  0.00     0.193 C 
BRANCH  33  34
HETATM   34  C   UNL     1      32.661  20.033   9.339  1.00  0.00     0.193 C 
BRANCH  34  35
HETATM   35  O   UNL     1      34.088  20.047   9.343  1.00  0.00    -0.387 OA
BRANCH  35  36
HETATM   36  C   UNL     1      34.565  21.267   9.917  1.00  0.00     0.193 C 
BRANCH  36  37
HETATM   37  C   UNL     1      36.087  21.257   9.913  1.00  0.00     0.190 C 
BRANCH  37  38
HETATM   38  O   UNL     1      36.583  21.146   8.580  1.00  0.00    -0.399 OA
HETATM   39  H   UNL     1      36.188  20.329   8.219  1.00  0.00     0.209 HD
ENDBRANCH  37  38
ENDBRANCH  36  37
ENDBRANCH  35  36
ENDBRANCH  34  35
ENDBRANCH  33  34
ENDBRANCH  32  33
ENDBRANCH  31  32
ENDBRANCH  30  31
ENDBRANCH  29  30
ENDBRANCH  28  29
ENDBRANCH  27  28
ENDBRANCH  26  27
ENDBRANCH  25  26
ENDBRANCH  24  25
ENDBRANCH  23  24
ENDBRANCH  22  23
ENDBRANCH  21  22
ENDBRANCH   1  21
TORSDOF 35
