REMARK WARNING: 32 MAX_TORS EXCEEDED!!!
REMARK  46 active torsions:
REMARK  status: ('A' for Active; 'I' for Inactive)
REMARK    1  A    between atoms: C_2  and  C_3 
REMARK    2  A    between atoms: C_3  and  C_4 
REMARK    3  A    between atoms: C_4  and  C_5 
REMARK    4  A    between atoms: C_5  and  C_6 
REMARK    5  A    between atoms: C_6  and  C_7 
REMARK    6  A    between atoms: C_7  and  C_8 
REMARK    7  A    between atoms: C_8  and  C_9 
REMARK    8  A    between atoms: C_9  and  C_10 
REMARK    9  A    between atoms: C_10  and  C_11 
REMARK   10  A    between atoms: C_11  and  C_12 
REMARK   11  A    between atoms: C_12  and  C_13 
REMARK   12  A    between atoms: C_13  and  C_14 
REMARK   13  A    between atoms: C_14  and  C_15 
REMARK   14  A    between atoms: C_15  and  C_16 
REMARK   15  A    between atoms: C_16  and  C_17 
REMARK   16  A    between atoms: C_17  and  C_18 
REMARK   17  A    between atoms: C_18  and  O_20 
REMARK   18  A    between atoms: O_20  and  C_21 
REMARK   19  A    between atoms: C_21  and  C_22 
REMARK   20  A    between atoms: C_22  and  O_23 
REMARK   21  A    between atoms: O_23  and  C_24 
REMARK   22  A    between atoms: C_24  and  C_25 
REMARK   23  A    between atoms: C_25  and  O_26 
REMARK   24  A    between atoms: O_26  and  C_27 
REMARK   25  A    between atoms: C_27  and  C_28 
REMARK   26  A    between atoms: C_28  and  O_29 
REMARK   27  A    between atoms: O_29  and  C_30 
REMARK   28  A    between atoms: C_30  and  C_31 
REMARK   29  A    between atoms: C_31  and  O_32 
REMARK   30  A    between atoms: O_32  and  C_33 
REMARK   31  A    between atoms: C_33  and  C_35 
REMARK   32  A    between atoms: C_35  and  C_36 
REMARK   33  A    between atoms: C_36  and  C_37 
REMARK   34  A    between atoms: C_37  and  C_38 
REMARK   35  A    between atoms: C_38  and  C_39 
REMARK   36  A    between atoms: C_39  and  C_40 
REMARK   37  A    between atoms: C_40  and  C_41 
REMARK   38  A    between atoms: C_41  and  C_42 
REMARK   39  A    between atoms: C_42  and  C_43 
REMARK   40  A    between atoms: C_43  and  C_44 
REMARK   41  A    between atoms: C_44  and  C_45 
REMARK   42  A    between atoms: C_45  and  C_46 
REMARK   43  A    between atoms: C_46  and  C_47 
REMARK   44  A    between atoms: C_47  and  C_48 
REMARK   45  A    between atoms: C_48  and  C_49 
REMARK   46  A    between atoms: C_49  and  C_50 
ROOT
HETATM    1  O   UNL     1      25.344  15.903  -5.224  1.00  0.00    -0.387 OA
ENDROOT
BRANCH   1   2
HETATM    2  C   UNL     1      24.865  14.630  -4.805  1.00  0.00     0.193 C 
BRANCH   2   3
HETATM    3  C   UNL     1      23.346  14.644  -4.811  1.00  0.00     0.193 C 
BRANCH   3   4
HETATM    4  O   UNL     1      22.855  13.374  -4.384  1.00  0.00    -0.387 OA
BRANCH   4   5
HETATM    5  C   UNL     1      21.423  13.364  -4.393  1.00  0.00     0.194 C 
BRANCH   5   6
HETATM    6  C   UNL     1      20.908  12.005  -3.948  1.00  0.00     0.205 C 
BRANCH   6   7
HETATM    7  O   UNL     1      21.373  10.970  -4.843  1.00  0.00    -0.319 OA
BRANCH   7   8
HETATM    8  C   UNL     1      20.652  10.857  -6.003  1.00  0.00     0.258 C 
HETATM    9  O   UNL     1      19.706  11.564  -6.298  1.00  0.00    -0.265 OA
BRANCH   8  10
HETATM   10  C   UNL     1      21.210   9.777  -6.918  1.00  0.00     0.111 C 
BRANCH  10  11
HETATM   11  C   UNL     1      21.639  10.361  -8.259  1.00  0.00     0.010 C 
BRANCH  11  12
HETATM   12  C   UNL     1      22.742  11.400  -8.101  1.00  0.00     0.000 C 
BRANCH  12  13
HETATM   13  C   UNL     1      23.140  11.960  -9.458  1.00  0.00     0.000 C 
BRANCH  13  14
HETATM   14  C   UNL     1      24.236  12.998  -9.297  1.00  0.00     0.000 C 
BRANCH  14  15
HETATM   15  C   UNL     1      24.631  13.555 -10.653  1.00  0.00     0.000 C 
BRANCH  15  16
HETATM   16  C   UNL     1      25.726  14.592 -10.487  1.00  0.00     0.000 C 
BRANCH  16  17
HETATM   17  C   UNL     1      26.120  15.150 -11.841  1.00  0.00     0.000 C 
BRANCH  17  18
HETATM   18  C   UNL     1      27.215  16.185 -11.674  1.00  0.00     0.000 C 
BRANCH  18  19
HETATM   19  C   UNL     1      27.610  16.742 -13.029  1.00  0.00     0.000 C 
BRANCH  19  20
HETATM   20  C   UNL     1      28.704  17.779 -12.861  1.00  0.00     0.000 C 
BRANCH  20  21
HETATM   21  C   UNL     1      29.099  18.335 -14.216  1.00  0.00     0.000 C 
BRANCH  21  22
HETATM   22  C   UNL     1      30.194  19.371 -14.049  1.00  0.00     0.000 C 
BRANCH  22  23
HETATM   23  C   UNL     1      30.591  19.926 -15.405  1.00  0.00     0.000 C 
BRANCH  23  24
HETATM   24  C   UNL     1      31.688  20.963 -15.241  1.00  0.00    -0.000 C 
BRANCH  24  25
HETATM   25  C   UNL     1      32.090  21.523 -16.596  1.00  0.00    -0.005 C 
HETATM   26  C   UNL     1      33.185  22.555 -16.428  1.00  0.00     0.005 C 
ENDBRANCH  24  25
ENDBRANCH  23  24
ENDBRANCH  22  23
ENDBRANCH  21  22
ENDBRANCH  20  21
ENDBRANCH  19  20
ENDBRANCH  18  19
ENDBRANCH  17  18
ENDBRANCH  16  17
ENDBRANCH  15  16
ENDBRANCH  14  15
ENDBRANCH  13  14
ENDBRANCH  12  13
ENDBRANCH  11  12
ENDBRANCH  10  11
ENDBRANCH   8  10
ENDBRANCH   7   8
ENDBRANCH   6   7
ENDBRANCH   5   6
ENDBRANCH   4   5
ENDBRANCH   3   4
ENDBRANCH   2   3
ENDBRANCH   1   2
BRANCH   1  27
HETATM   27  C   UNL     1      26.773  15.917  -5.228  1.00  0.00     0.193 C 
BRANCH  27  28
HETATM   28  C   UNL     1      27.269  17.281  -5.676  1.00  0.00     0.193 C 
BRANCH  28  29
HETATM   29  O   UNL     1      28.698  17.296  -5.685  1.00  0.00    -0.387 OA
BRANCH  29  30
HETATM   30  C   UNL     1      29.179  18.573  -6.102  1.00  0.00     0.194 C 
BRANCH  30  31
HETATM   31  C   UNL     1      30.698  18.575  -6.096  1.00  0.00     0.205 C 
BRANCH  31  32
HETATM   32  O   UNL     1      31.198  18.302  -4.765  1.00  0.00    -0.319 OA
BRANCH  32  33
HETATM   33  C   UNL     1      31.185  19.383  -3.932  1.00  0.00     0.258 C 
HETATM   34  O   UNL     1      30.761  20.493  -4.273  1.00  0.00    -0.265 OA
BRANCH  33  35
HETATM   35  C   UNL     1      31.663  19.064  -2.533  1.00  0.00     0.111 C 
BRANCH  35  36
HETATM   36  C   UNL     1      30.580  19.337  -1.493  1.00  0.00     0.010 C 
BRANCH  36  37
HETATM   37  C   UNL     1      29.335  18.490  -1.727  1.00  0.00     0.000 C 
BRANCH  37  38
HETATM   38  C   UNL     1      28.281  18.792  -0.672  1.00  0.00     0.000 C 
BRANCH  38  39
HETATM   39  C   UNL     1      27.042  17.945  -0.911  1.00  0.00     0.000 C 
BRANCH  39  40
HETATM   40  C   UNL     1      25.992  18.246   0.144  1.00  0.00     0.000 C 
BRANCH  40  41
HETATM   41  C   UNL     1      24.757  17.398  -0.099  1.00  0.00     0.000 C 
BRANCH  41  42
HETATM   42  C   UNL     1      23.709  17.699   0.955  1.00  0.00     0.000 C 
BRANCH  42  43
HETATM   43  C   UNL     1      22.475  16.851   0.712  1.00  0.00     0.000 C 
BRANCH  43  44
HETATM   44  C   UNL     1      21.426  17.151   1.766  1.00  0.00     0.000 C 
BRANCH  44  45
HETATM   45  C   UNL     1      20.193  16.304   1.522  1.00  0.00     0.000 C 
BRANCH  45  46
HETATM   46  C   UNL     1      19.143  16.606   2.575  1.00  0.00     0.000 C 
BRANCH  46  47
HETATM   47  C   UNL     1      17.909  15.758   2.332  1.00  0.00     0.000 C 
BRANCH  47  48
HETATM   48  C   UNL     1      16.859  16.060   3.386  1.00  0.00     0.000 C 
BRANCH  48  49
HETATM   49  C   UNL     1      15.624  15.212   3.145  1.00  0.00    -0.000 C 
BRANCH  49  50
HETATM   50  C   UNL     1      14.567  15.511   4.196  1.00  0.00    -0.005 C 
HETATM   51  C   UNL     1      13.336  14.663   3.954  1.00  0.00     0.005 C 
ENDBRANCH  49  50
ENDBRANCH  48  49
ENDBRANCH  47  48
ENDBRANCH  46  47
ENDBRANCH  45  46
ENDBRANCH  44  45
ENDBRANCH  43  44
ENDBRANCH  42  43
ENDBRANCH  41  42
ENDBRANCH  40  41
ENDBRANCH  39  40
ENDBRANCH  38  39
ENDBRANCH  37  38
ENDBRANCH  36  37
ENDBRANCH  35  36
ENDBRANCH  33  35
ENDBRANCH  32  33
ENDBRANCH  31  32
ENDBRANCH  30  31
ENDBRANCH  29  30
ENDBRANCH  28  29
ENDBRANCH  27  28
ENDBRANCH   1  27
TORSDOF 46
