REMARK  29 active torsions:
REMARK  status: ('A' for Active; 'I' for Inactive)
REMARK    1  A    between atoms: C_2  and  C_3 
REMARK    2  A    between atoms: C_3  and  C_4 
REMARK    3  A    between atoms: C_4  and  C_5 
REMARK    4  A    between atoms: C_5  and  C_6 
REMARK    5  A    between atoms: C_6  and  C_7 
REMARK    6  A    between atoms: C_7  and  C_8 
REMARK    7  A    between atoms: C_8  and  C_9 
REMARK    8  A    between atoms: C_9  and  C_10 
REMARK    9  A    between atoms: C_10  and  C_11 
REMARK   10  A    between atoms: C_11  and  C_12 
REMARK   11  A    between atoms: C_12  and  O_14 
REMARK   12  A    between atoms: O_14  and  C_15 
REMARK   13  A    between atoms: C_15  and  C_16 
REMARK   14  A    between atoms: C_16  and  O_17 
REMARK   15  A    between atoms: O_17  and  C_18 
REMARK   16  A    between atoms: C_18  and  C_19 
REMARK   17  A    between atoms: C_19  and  C_20 
REMARK   18  A    between atoms: C_19  and  O_33 
REMARK   19  A    between atoms: C_21  and  O_29 
REMARK   20  A    between atoms: C_22  and  O_25 
REMARK   21  A    between atoms: O_25  and  C_26 
REMARK   22  A    between atoms: C_26  and  C_27 
REMARK   23  A    between atoms: C_27  and  O_28 
REMARK   24  A    between atoms: O_29  and  C_30 
REMARK   25  A    between atoms: C_30  and  C_31 
REMARK   26  A    between atoms: C_31  and  O_32 
REMARK   27  A    between atoms: O_33  and  C_34 
REMARK   28  A    between atoms: C_34  and  C_35 
REMARK   29  A    between atoms: C_35  and  O_36 
ROOT
HETATM    1  C   UNL     1      18.743  11.146  -0.231  1.00  0.00     0.176 C 
ENDROOT
BRANCH   1   2
HETATM    2  C   UNL     1      17.210  11.149  -0.429  1.00  0.00     0.202 C 
BRANCH   2   3
HETATM    3  O   UNL     1      16.684   9.828  -0.359  1.00  0.00    -0.386 OA
BRANCH   3   4
HETATM    4  C   UNL     1      15.265   9.840  -0.479  1.00  0.00     0.194 C 
BRANCH   4   5
HETATM    5  C   UNL     1      14.751   8.406  -0.429  1.00  0.00     0.205 C 
BRANCH   5   6
HETATM    6  O   UNL     1      13.316   8.363  -0.538  1.00  0.00    -0.319 OA
BRANCH   6   7
HETATM    7  C   UNL     1      12.864   8.521  -1.808  1.00  0.00     0.258 C 
HETATM    8  O   UNL     1      13.570   8.671  -2.804  1.00  0.00    -0.265 OA
BRANCH   7   9
HETATM    9  C   UNL     1      11.361   8.474  -1.862  1.00  0.00     0.111 C 
BRANCH   9  10
HETATM   10  C   UNL     1      10.887   7.329  -2.749  1.00  0.00     0.010 C 
BRANCH  10  11
HETATM   11  C   UNL     1      11.331   5.971  -2.209  1.00  0.00     0.000 C 
BRANCH  11  12
HETATM   12  C   UNL     1      10.838   4.846  -3.108  1.00  0.00     0.000 C 
BRANCH  12  13
HETATM   13  C   UNL     1      11.296   3.499  -2.566  1.00  0.00     0.000 C 
BRANCH  13  14
HETATM   14  C   UNL     1      10.802   2.378  -3.465  1.00  0.00     0.000 C 
BRANCH  14  15
HETATM   15  C   UNL     1      11.257   1.032  -2.924  1.00  0.00     0.000 C 
BRANCH  15  16
HETATM   16  C   UNL     1      10.762  -0.090  -3.824  1.00  0.00     0.000 C 
BRANCH  16  17
HETATM   17  C   UNL     1      11.218  -1.437  -3.284  1.00  0.00    -0.000 C 
BRANCH  17  18
HETATM   18  C   UNL     1      10.726  -2.567  -4.178  1.00  0.00    -0.005 C 
HETATM   19  C   UNL     1      11.182  -3.909  -3.638  1.00  0.00     0.005 C 
ENDBRANCH  17  18
ENDBRANCH  16  17
ENDBRANCH  15  16
ENDBRANCH  14  15
ENDBRANCH  13  14
ENDBRANCH  12  13
ENDBRANCH  11  12
ENDBRANCH  10  11
ENDBRANCH   9  10
ENDBRANCH   7   9
ENDBRANCH   6   7
ENDBRANCH   5   6
ENDBRANCH   4   5
ENDBRANCH   3   4
ENDBRANCH   2   3
ENDBRANCH   1   2
BRANCH   1  20
HETATM   20  C   UNL     1      19.421  10.353  -1.382  1.00  0.00     0.184 C 
HETATM   21  C   UNL     1      20.953  10.296  -1.312  1.00  0.00     0.184 C 
HETATM   22  C   UNL     1      21.339  10.200  -2.794  1.00  0.00     0.176 C 
HETATM   23  C   UNL     1      20.241  11.034  -3.456  1.00  0.00     0.203 C 
HETATM   24  O   UNL     1      19.069  10.956  -2.644  1.00  0.00    -0.378 OA
BRANCH  21  25
HETATM   25  O   UNL     1      21.390   9.219  -0.470  1.00  0.00    -0.378 OA
BRANCH  25  26
HETATM   26  C   UNL     1      22.815   9.132  -0.336  1.00  0.00     0.194 C 
BRANCH  26  27
HETATM   27  C   UNL     1      23.169   7.964   0.587  1.00  0.00     0.190 C 
BRANCH  27  28
HETATM   28  O   UNL     1      22.661   6.740   0.063  1.00  0.00    -0.399 OA
HETATM   29  H   UNL     1      21.716   6.910  -0.119  1.00  0.00     0.209 HD
ENDBRANCH  27  28
ENDBRANCH  26  27
ENDBRANCH  25  26
ENDBRANCH  21  25
BRANCH  22  30
HETATM   30  O   UNL     1      21.345   8.844  -3.270  1.00  0.00    -0.379 OA
BRANCH  30  31
HETATM   31  C   UNL     1      21.805   8.759  -4.628  1.00  0.00     0.194 C 
BRANCH  31  32
HETATM   32  C   UNL     1      21.789   7.311  -5.088  1.00  0.00     0.190 C 
BRANCH  32  33
HETATM   33  O   UNL     1      20.488   6.752  -4.941  1.00  0.00    -0.399 OA
HETATM   34  H   UNL     1      20.235   6.917  -4.012  1.00  0.00     0.209 HD
ENDBRANCH  32  33
ENDBRANCH  31  32
ENDBRANCH  30  31
ENDBRANCH  22  30
ENDBRANCH   1  20
BRANCH   1  35
HETATM   35  O   UNL     1      19.252  12.505  -0.158  1.00  0.00    -0.379 OA
BRANCH  35  36
HETATM   36  C   UNL     1      18.733  13.221   0.978  1.00  0.00     0.194 C 
BRANCH  36  37
HETATM   37  C   UNL     1      19.266  14.647   1.010  1.00  0.00     0.190 C 
BRANCH  37  38
HETATM   38  O   UNL     1      18.898  15.342  -0.178  1.00  0.00    -0.399 OA
HETATM   39  H   UNL     1      19.209  14.787  -0.918  1.00  0.00     0.209 HD
ENDBRANCH  37  38
ENDBRANCH  36  37
ENDBRANCH  35  36
ENDBRANCH   1  35
TORSDOF 29
