REMARK  18 active torsions:
REMARK  status: ('A' for Active; 'I' for Inactive)
REMARK    1  A    between atoms: CG_2  and  CB_4 
REMARK    2  A    between atoms: CB_4  and  CA_5 
REMARK    3  A    between atoms: CA_5  and  C_6 
REMARK    4  A    between atoms: CA_5  and  N_9 
REMARK    5  A    between atoms: C_6  and  OXT_8 
REMARK       I    between atoms: N_9  and  C_12 
REMARK    6  A    between atoms: C_12  and  CA_14 
REMARK    7  A    between atoms: CA_14  and  CB_15 
REMARK    8  A    between atoms: CA_14  and  N_22 
REMARK    9  A    between atoms: CB_15  and  CG_16 
REMARK       I    between atoms: N_22  and  C_24 
REMARK   10  A    between atoms: C_24  and  CA_26 
REMARK   11  A    between atoms: CA_26  and  N_27 
REMARK       I    between atoms: N_27  and  C_29 
REMARK   12  A    between atoms: C_29  and  CA_31 
REMARK   13  A    between atoms: CA_31  and  N_33 
REMARK       I    between atoms: N_33  and  C_35 
REMARK   14  A    between atoms: C_35  and  CA_37 
REMARK   15  A    between atoms: CA_37  and  CB_38 
REMARK   16  A    between atoms: CA_37  and  N_46 
REMARK   17  A    between atoms: CB_38  and  CG_39 
REMARK   18  A    between atoms: CZ_42  and  OH_45 
ROOT
ATOM      1  N   PHE A   4       8.456   1.540   4.408  1.00  0.00    -0.346 N 
ATOM      2  H   PHE A   4       9.004   1.199   3.618  1.00  0.00     0.163 HD
ATOM      3  C   GLY A   3       9.119   2.122   5.474  1.00  0.00     0.236 C 
ATOM      4  O   GLY A   3       8.532   2.668   6.403  1.00  0.00    -0.272 OA
ENDROOT
BRANCH   3   5
ATOM      5  CA  GLY A   3      10.656   2.053   5.423  1.00  0.00     0.225 C 
BRANCH   5   6
ATOM      6  N   GLY A   3      11.153   0.684   5.404  1.00  0.00    -0.351 N 
ATOM      7  C   ALA A   2      11.352  -0.003   4.231  1.00  0.00     0.240 C 
ATOM      8  O   ALA A   2      11.154   0.538   3.141  1.00  0.00    -0.271 OA
ATOM      9  H   GLY A   3      11.349   0.219   6.290  1.00  0.00     0.163 HD
BRANCH   7  10
ATOM     10  CA  ALA A   2      11.856  -1.457   4.368  1.00  0.00     0.172 C 
ATOM     11  CB  ALA A   2      11.366  -2.285   3.185  1.00  0.00     0.042 C 
BRANCH  10  12
ATOM     12  N   ALA A   2      13.321  -1.509   4.423  1.00  0.00    -0.346 N 
ATOM     13  C   TYR A   1      14.008  -1.466   5.605  1.00  0.00     0.251 C 
ATOM     14  O   TYR A   1      13.417  -1.352   6.671  1.00  0.00    -0.271 OA
ATOM     15  H   ALA A   2      13.862  -1.465   3.565  1.00  0.00     0.163 HD
BRANCH  13  16
ATOM     16  CA  TYR A   1      15.567  -1.553   5.470  1.00  0.00     0.313 C 
BRANCH  16  17
ATOM     17  CB  TYR A   1      16.222  -2.191   6.714  1.00  0.00     0.083 C 
BRANCH  17  18
ATOM     18  CG  TYR A   1      16.011  -1.443   8.008  1.00  0.00    -0.056 A 
ATOM     19  CD1 TYR A   1      15.341  -2.058   9.078  1.00  0.00     0.010 A 
ATOM     20  CE1 TYR A   1      15.220  -1.407  10.305  1.00  0.00     0.037 A 
ATOM     21  CZ  TYR A   1      15.751  -0.131  10.455  1.00  0.00     0.065 A 
ATOM     22  CE2 TYR A   1      16.380   0.510   9.395  1.00  0.00     0.037 A 
ATOM     23  CD2 TYR A   1      16.511  -0.145   8.171  1.00  0.00     0.010 A 
BRANCH  21  24
ATOM     24  OH  TYR A   1      15.691   0.525  11.648  1.00  0.00    -0.361 OA
ATOM     25  HH  TYR A   1      15.300  -0.074  12.304  1.00  0.00     0.217 HD
ENDBRANCH  21  24
ENDBRANCH  17  18
ENDBRANCH  16  17
BRANCH  16  26
ATOM     26  N   TYR A   1      15.929  -2.315   4.241  1.00  0.00     0.092 N 
ATOM     27  H1  TYR A   1      15.434  -3.207   4.259  1.00  0.00     0.313 HD
ATOM     28  H2  TYR A   1      16.920  -2.557   4.282  1.00  0.00     0.313 HD
ENDBRANCH  16  26
ENDBRANCH  13  16
ENDBRANCH  10  12
ENDBRANCH   7  10
ENDBRANCH   5   6
ENDBRANCH   3   5
BRANCH   1  29
ATOM     29  CA  PHE A   4       6.990   1.432   4.330  1.00  0.00     0.180 C 
BRANCH  29  30
ATOM     30  C   PHE A   4       6.559   0.741   3.007  1.00  0.00     0.241 C 
ATOM     31  N   LEU A   5       5.199   0.626   2.777  1.00  0.00    -0.345 N 
ATOM     32  H   LEU A   5       4.568   1.209   3.319  1.00  0.00     0.163 HD
ATOM     33  O   PHE A   4       7.365   0.349   2.155  1.00  0.00    -0.271 OA
BRANCH  31  34
ATOM     34  CA  LEU A   5       4.641  -0.015   1.564  1.00  0.00     0.182 C 
BRANCH  34  35
ATOM     35  CB  LEU A   5       3.262  -0.663   1.871  1.00  0.00     0.040 C 
BRANCH  35  36
ATOM     36  CG  LEU A   5       2.560  -1.392   0.693  1.00  0.00    -0.020 C 
ATOM     37  CD1 LEU A   5       3.396  -2.549   0.148  1.00  0.00     0.009 C 
ATOM     38  CD2 LEU A   5       1.184  -1.961   1.079  1.00  0.00     0.009 C 
ENDBRANCH  35  36
ENDBRANCH  34  35
BRANCH  34  39
ATOM     39  C   LEU A   5       4.580   1.048   0.449  1.00  0.00     0.163 C 
ATOM     40  O   LEU A   5       3.566   1.404  -0.127  1.00  0.00    -0.648 OA
BRANCH  39  41
ATOM     41  OXT LEU A   5       5.795   1.573   0.135  1.00  0.00    -0.775 OA
ATOM     42  HXT LEU A   5       6.536   1.169   0.644  1.00  0.00     0.167 HD
ENDBRANCH  39  41
ENDBRANCH  34  39
ENDBRANCH  31  34
ENDBRANCH  29  30
BRANCH  29  43
ATOM     43  CB  PHE A   4       6.373   0.693   5.538  1.00  0.00     0.073 C 
BRANCH  43  44
ATOM     44  CG  PHE A   4       6.826  -0.746   5.672  1.00  0.00    -0.056 A 
ATOM     45  CD1 PHE A   4       7.975  -1.053   6.410  1.00  0.00     0.007 A 
ATOM     46  CE1 PHE A   4       8.425  -2.373   6.510  1.00  0.00     0.001 A 
ATOM     47  CZ  PHE A   4       7.733  -3.392   5.867  1.00  0.00     0.000 A 
ATOM     48  CE2 PHE A   4       6.583  -3.098   5.131  1.00  0.00     0.001 A 
ATOM     49  CD2 PHE A   4       6.134  -1.786   5.039  1.00  0.00     0.007 A 
ENDBRANCH  43  44
ENDBRANCH  29  43
ENDBRANCH   1  29
TORSDOF 18
