REMARK  2 active torsions:
REMARK  status: ('A' for Active; 'I' for Inactive)
REMARK    1  A    between atoms: C_1  and  C_2 
REMARK    2  A    between atoms: C_1  and  C_5 
ROOT
HETATM    1  C   UNL     1       1.102  -0.020  -0.056  1.00  0.00     0.188 C 
ENDROOT
BRANCH   1   2
HETATM    2  C   UNL     1       0.594  -0.104  -1.465  1.00  0.00     0.361 C 
HETATM    3  F   UNL     1      -0.759  -0.185  -1.440  1.00  0.00    -0.214 F 
HETATM    4  F   UNL     1       0.895   1.036  -2.135  1.00  0.00    -0.214 F 
ENDBRANCH   1   2
BRANCH   1   5
HETATM    5  C   UNL     1       2.598   0.006  -0.052  1.00  0.00     0.392 C 
HETATM    6  F   UNL     1       3.144  -0.267  -1.256  1.00  0.00    -0.171 F 
HETATM    7  F   UNL     1       3.066   1.208   0.351  1.00  0.00    -0.171 F 
HETATM    8  F   UNL     1       3.075  -0.916   0.816  1.00  0.00    -0.171 F 
ENDBRANCH   1   5
TORSDOF 2
