REMARK WARNING: 32 MAX_TORS EXCEEDED!!!
REMARK  92 active torsions:
REMARK  status: ('A' for Active; 'I' for Inactive)
REMARK    1  A    between atoms: C_2  and  C_3 
REMARK    2  A    between atoms: C_3  and  C_4 
REMARK    3  A    between atoms: C_4  and  C_5 
REMARK    4  A    between atoms: C_5  and  C_6 
REMARK    5  A    between atoms: C_6  and  C_7 
REMARK    6  A    between atoms: C_7  and  C_8 
REMARK    7  A    between atoms: C_8  and  C_9 
REMARK    8  A    between atoms: C_9  and  C_10 
REMARK    9  A    between atoms: C_10  and  C_11 
REMARK   10  A    between atoms: C_11  and  C_12 
REMARK   11  A    between atoms: C_12  and  C_13 
REMARK   12  A    between atoms: C_13  and  C_14 
REMARK   13  A    between atoms: C_14  and  C_15 
REMARK   14  A    between atoms: C_15  and  C_16 
REMARK   15  A    between atoms: C_16  and  C_17 
REMARK   16  A    between atoms: C_17  and  C_18 
REMARK   17  A    between atoms: C_18  and  C_19 
REMARK   18  A    between atoms: C_19  and  C_20 
REMARK   19  A    between atoms: C_20  and  C_21 
REMARK   20  A    between atoms: C_21  and  C_22 
REMARK   21  A    between atoms: C_22  and  O_24 
REMARK   22  A    between atoms: O_24  and  C_25 
REMARK   23  A    between atoms: C_25  and  C_26 
REMARK   24  A    between atoms: C_26  and  C_27 
REMARK   25  A    between atoms: C_26  and  C_52 
REMARK   26  A    between atoms: C_26  and  C_77 
REMARK   27  A    between atoms: C_27  and  O_28 
REMARK   28  A    between atoms: O_28  and  C_29 
REMARK   29  A    between atoms: C_29  and  C_31 
REMARK   30  A    between atoms: C_31  and  C_32 
REMARK   31  A    between atoms: C_32  and  C_33 
REMARK   32  A    between atoms: C_33  and  C_34 
REMARK   33  A    between atoms: C_34  and  C_35 
REMARK   34  A    between atoms: C_35  and  C_36 
REMARK   35  A    between atoms: C_36  and  C_37 
REMARK   36  A    between atoms: C_37  and  C_38 
REMARK   37  A    between atoms: C_38  and  C_39 
REMARK   38  A    between atoms: C_39  and  C_40 
REMARK   39  A    between atoms: C_40  and  C_41 
REMARK   40  A    between atoms: C_41  and  C_42 
REMARK   41  A    between atoms: C_42  and  C_43 
REMARK   42  A    between atoms: C_43  and  C_44 
REMARK   43  A    between atoms: C_44  and  C_45 
REMARK   44  A    between atoms: C_45  and  C_46 
REMARK   45  A    between atoms: C_46  and  C_47 
REMARK   46  A    between atoms: C_47  and  C_48 
REMARK   47  A    between atoms: C_48  and  C_49 
REMARK   48  A    between atoms: C_49  and  C_50 
REMARK   49  A    between atoms: C_52  and  O_53 
REMARK   50  A    between atoms: O_53  and  C_54 
REMARK   51  A    between atoms: C_54  and  C_56 
REMARK   52  A    between atoms: C_56  and  C_57 
REMARK   53  A    between atoms: C_57  and  C_58 
REMARK   54  A    between atoms: C_58  and  C_59 
REMARK   55  A    between atoms: C_59  and  C_60 
REMARK   56  A    between atoms: C_60  and  C_61 
REMARK   57  A    between atoms: C_61  and  C_62 
REMARK   58  A    between atoms: C_62  and  C_63 
REMARK   59  A    between atoms: C_63  and  C_64 
REMARK   60  A    between atoms: C_64  and  C_65 
REMARK   61  A    between atoms: C_65  and  C_66 
REMARK   62  A    between atoms: C_66  and  C_67 
REMARK   63  A    between atoms: C_67  and  C_68 
REMARK   64  A    between atoms: C_68  and  C_69 
REMARK   65  A    between atoms: C_69  and  C_70 
REMARK   66  A    between atoms: C_70  and  C_71 
REMARK   67  A    between atoms: C_71  and  C_72 
REMARK   68  A    between atoms: C_72  and  C_73 
REMARK   69  A    between atoms: C_73  and  C_74 
REMARK   70  A    between atoms: C_74  and  C_75 
REMARK   71  A    between atoms: C_77  and  O_78 
REMARK   72  A    between atoms: O_78  and  C_79 
REMARK   73  A    between atoms: C_79  and  C_81 
REMARK   74  A    between atoms: C_81  and  C_82 
REMARK   75  A    between atoms: C_82  and  C_83 
REMARK   76  A    between atoms: C_83  and  C_84 
REMARK   77  A    between atoms: C_84  and  C_85 
REMARK   78  A    between atoms: C_85  and  C_86 
REMARK   79  A    between atoms: C_86  and  C_87 
REMARK   80  A    between atoms: C_87  and  C_88 
REMARK   81  A    between atoms: C_88  and  C_89 
REMARK   82  A    between atoms: C_89  and  C_90 
REMARK   83  A    between atoms: C_90  and  C_91 
REMARK   84  A    between atoms: C_91  and  C_92 
REMARK   85  A    between atoms: C_92  and  C_93 
REMARK   86  A    between atoms: C_93  and  C_94 
REMARK   87  A    between atoms: C_94  and  C_95 
REMARK   88  A    between atoms: C_95  and  C_96 
REMARK   89  A    between atoms: C_96  and  C_97 
REMARK   90  A    between atoms: C_97  and  C_98 
REMARK   91  A    between atoms: C_98  and  C_99 
REMARK   92  A    between atoms: C_99  and  C_100 
ROOT
HETATM    1  C   UNL     1      25.332  16.832   1.779  1.00  0.00     0.048 C 
ENDROOT
BRANCH   1   2
HETATM    2  C   UNL     1      24.813  15.383   1.623  1.00  0.00     0.195 C 
BRANCH   2   3
HETATM    3  O   UNL     1      25.276  14.780   0.391  1.00  0.00    -0.320 OA
BRANCH   3   4
HETATM    4  C   UNL     1      26.044  13.652   0.538  1.00  0.00     0.258 C 
HETATM    5  O   UNL     1      26.334  13.135   1.600  1.00  0.00    -0.265 OA
BRANCH   4   6
HETATM    6  C   UNL     1      26.465  13.092  -0.814  1.00  0.00     0.111 C 
BRANCH   6   7
HETATM    7  C   UNL     1      25.894  11.690  -0.976  1.00  0.00     0.010 C 
BRANCH   7   8
HETATM    8  C   UNL     1      26.280  11.062  -2.308  1.00  0.00     0.000 C 
BRANCH   8   9
HETATM    9  C   UNL     1      25.682   9.665  -2.411  1.00  0.00     0.000 C 
BRANCH   9  10
HETATM   10  C   UNL     1      26.062   9.027  -3.735  1.00  0.00     0.000 C 
BRANCH  10  11
HETATM   11  C   UNL     1      25.463   7.636  -3.839  1.00  0.00     0.000 C 
BRANCH  11  12
HETATM   12  C   UNL     1      25.849   7.008  -5.165  1.00  0.00     0.000 C 
BRANCH  12  13
HETATM   13  C   UNL     1      25.251   5.618  -5.270  1.00  0.00     0.000 C 
BRANCH  13  14
HETATM   14  C   UNL     1      25.636   4.989  -6.595  1.00  0.00     0.000 C 
BRANCH  14  15
HETATM   15  C   UNL     1      25.038   3.599  -6.700  1.00  0.00     0.000 C 
BRANCH  15  16
HETATM   16  C   UNL     1      25.424   2.971  -8.026  1.00  0.00     0.000 C 
BRANCH  16  17
HETATM   17  C   UNL     1      24.824   1.582  -8.131  1.00  0.00     0.000 C 
BRANCH  17  18
HETATM   18  C   UNL     1      25.208   0.955  -9.457  1.00  0.00     0.000 C 
BRANCH  18  19
HETATM   19  C   UNL     1      24.610  -0.434  -9.562  1.00  0.00     0.000 C 
BRANCH  19  20
HETATM   20  C   UNL     1      24.994  -1.062 -10.888  1.00  0.00     0.000 C 
BRANCH  20  21
HETATM   21  C   UNL     1      24.396  -2.452 -10.993  1.00  0.00     0.000 C 
BRANCH  21  22
HETATM   22  C   UNL     1      24.780  -3.080 -12.320  1.00  0.00     0.000 C 
BRANCH  22  23
HETATM   23  C   UNL     1      24.181  -4.471 -12.425  1.00  0.00     0.000 C 
BRANCH  23  24
HETATM   24  C   UNL     1      24.564  -5.103 -13.752  1.00  0.00    -0.000 C 
BRANCH  24  25
HETATM   25  C   UNL     1      23.969  -6.498 -13.864  1.00  0.00    -0.005 C 
HETATM   26  C   UNL     1      24.354  -7.125 -15.188  1.00  0.00     0.005 C 
ENDBRANCH  24  25
ENDBRANCH  23  24
ENDBRANCH  22  23
ENDBRANCH  21  22
ENDBRANCH  20  21
ENDBRANCH  19  20
ENDBRANCH  18  19
ENDBRANCH  17  18
ENDBRANCH  16  17
ENDBRANCH  15  16
ENDBRANCH  14  15
ENDBRANCH  13  14
ENDBRANCH  12  13
ENDBRANCH  11  12
ENDBRANCH  10  11
ENDBRANCH   9  10
ENDBRANCH   8   9
ENDBRANCH   7   8
ENDBRANCH   6   7
ENDBRANCH   4   6
ENDBRANCH   3   4
ENDBRANCH   2   3
ENDBRANCH   1   2
BRANCH   1  27
HETATM   27  C   UNL     1      24.830  17.686   0.594  1.00  0.00     0.195 C 
BRANCH  27  28
HETATM   28  O   UNL     1      23.388  17.716   0.487  1.00  0.00    -0.320 OA
BRANCH  28  29
HETATM   29  C   UNL     1      22.810  18.945   0.642  1.00  0.00     0.258 C 
HETATM   30  O   UNL     1      23.308  19.895   1.236  1.00  0.00    -0.265 OA
BRANCH  29  31
HETATM   31  C   UNL     1      21.508  19.034  -0.125  1.00  0.00     0.111 C 
BRANCH  31  32
HETATM   32  C   UNL     1      21.600  20.108  -1.209  1.00  0.00     0.010 C 
BRANCH  32  33
HETATM   33  C   UNL     1      22.698  19.802  -2.221  1.00  0.00     0.000 C 
BRANCH  33  34
HETATM   34  C   UNL     1      22.759  20.896  -3.275  1.00  0.00     0.000 C 
BRANCH  34  35
HETATM   35  C   UNL     1      23.855  20.590  -4.281  1.00  0.00     0.000 C 
BRANCH  35  36
HETATM   36  C   UNL     1      23.917  21.683  -5.333  1.00  0.00     0.000 C 
BRANCH  36  37
HETATM   37  C   UNL     1      25.013  21.372  -6.335  1.00  0.00     0.000 C 
BRANCH  37  38
HETATM   38  C   UNL     1      25.077  22.465  -7.385  1.00  0.00     0.000 C 
BRANCH  38  39
HETATM   39  C   UNL     1      26.174  22.156  -8.386  1.00  0.00     0.000 C 
BRANCH  39  40
HETATM   40  C   UNL     1      26.239  23.250  -9.435  1.00  0.00     0.000 C 
BRANCH  40  41
HETATM   41  C   UNL     1      27.337  22.941 -10.434  1.00  0.00     0.000 C 
BRANCH  41  42
HETATM   42  C   UNL     1      27.402  24.034 -11.483  1.00  0.00     0.000 C 
BRANCH  42  43
HETATM   43  C   UNL     1      28.500  23.725 -12.482  1.00  0.00     0.000 C 
BRANCH  43  44
HETATM   44  C   UNL     1      28.565  24.819 -13.530  1.00  0.00     0.000 C 
BRANCH  44  45
HETATM   45  C   UNL     1      29.662  24.509 -14.531  1.00  0.00     0.000 C 
BRANCH  45  46
HETATM   46  C   UNL     1      29.728  25.604 -15.578  1.00  0.00     0.000 C 
BRANCH  46  47
HETATM   47  C   UNL     1      30.824  25.294 -16.581  1.00  0.00     0.000 C 
BRANCH  47  48
HETATM   48  C   UNL     1      30.889  26.388 -17.631  1.00  0.00     0.000 C 
BRANCH  48  49
HETATM   49  C   UNL     1      31.987  26.082 -18.634  1.00  0.00    -0.000 C 
BRANCH  49  50
HETATM   50  C   UNL     1      32.058  27.174 -19.690  1.00  0.00    -0.005 C 
HETATM   51  C   UNL     1      33.154  26.864 -20.689  1.00  0.00     0.005 C 
ENDBRANCH  49  50
ENDBRANCH  48  49
ENDBRANCH  47  48
ENDBRANCH  46  47
ENDBRANCH  45  46
ENDBRANCH  44  45
ENDBRANCH  43  44
ENDBRANCH  42  43
ENDBRANCH  41  42
ENDBRANCH  40  41
ENDBRANCH  39  40
ENDBRANCH  38  39
ENDBRANCH  37  38
ENDBRANCH  36  37
ENDBRANCH  35  36
ENDBRANCH  34  35
ENDBRANCH  33  34
ENDBRANCH  32  33
ENDBRANCH  31  32
ENDBRANCH  29  31
ENDBRANCH  28  29
ENDBRANCH  27  28
ENDBRANCH   1  27
BRANCH   1  52
HETATM   52  C   UNL     1      24.798  17.441   3.103  1.00  0.00     0.195 C 
BRANCH  52  53
HETATM   53  O   UNL     1      25.184  16.677   4.268  1.00  0.00    -0.320 OA
BRANCH  53  54
HETATM   54  C   UNL     1      25.983  17.345   5.158  1.00  0.00     0.258 C 
HETATM   55  O   UNL     1      26.688  18.292   4.903  1.00  0.00    -0.265 OA
BRANCH  54  56
HETATM   56  C   UNL     1      25.780  16.796   6.565  1.00  0.00     0.111 C 
BRANCH  56  57
HETATM   57  C   UNL     1      25.228  17.882   7.483  1.00  0.00     0.010 C 
BRANCH  57  58
HETATM   58  C   UNL     1      23.875  18.395   7.005  1.00  0.00     0.000 C 
BRANCH  58  59
HETATM   59  C   UNL     1      23.362  19.476   7.943  1.00  0.00     0.000 C 
BRANCH  59  60
HETATM   60  C   UNL     1      22.015  19.986   7.463  1.00  0.00     0.000 C 
BRANCH  60  61
HETATM   61  C   UNL     1      21.501  21.064   8.400  1.00  0.00     0.000 C 
BRANCH  61  62
HETATM   62  C   UNL     1      20.156  21.570   7.916  1.00  0.00     0.000 C 
BRANCH  62  63
HETATM   63  C   UNL     1      19.641  22.646   8.854  1.00  0.00     0.000 C 
BRANCH  63  64
HETATM   64  C   UNL     1      18.296  23.153   8.369  1.00  0.00     0.000 C 
BRANCH  64  65
HETATM   65  C   UNL     1      17.783  24.230   9.306  1.00  0.00     0.000 C 
BRANCH  65  66
HETATM   66  C   UNL     1      16.438  24.736   8.821  1.00  0.00     0.000 C 
BRANCH  66  67
HETATM   67  C   UNL     1      15.925  25.813   9.758  1.00  0.00     0.000 C 
BRANCH  67  68
HETATM   68  C   UNL     1      14.581  26.320   9.272  1.00  0.00     0.000 C 
BRANCH  68  69
HETATM   69  C   UNL     1      14.069  27.398  10.208  1.00  0.00     0.000 C 
BRANCH  69  70
HETATM   70  C   UNL     1      12.725  27.906   9.722  1.00  0.00     0.000 C 
BRANCH  70  71
HETATM   71  C   UNL     1      12.213  28.984  10.658  1.00  0.00     0.000 C 
BRANCH  71  72
HETATM   72  C   UNL     1      10.869  29.494  10.171  1.00  0.00     0.000 C 
BRANCH  72  73
HETATM   73  C   UNL     1      10.357  30.575  11.107  1.00  0.00     0.000 C 
BRANCH  73  74
HETATM   74  C   UNL     1       9.012  31.087  10.622  1.00  0.00    -0.000 C 
BRANCH  74  75
HETATM   75  C   UNL     1       8.492  32.169  11.555  1.00  0.00    -0.005 C 
HETATM   76  C   UNL     1       7.151  32.679  11.068  1.00  0.00     0.005 C 
ENDBRANCH  74  75
ENDBRANCH  73  74
ENDBRANCH  72  73
ENDBRANCH  71  72
ENDBRANCH  70  71
ENDBRANCH  69  70
ENDBRANCH  68  69
ENDBRANCH  67  68
ENDBRANCH  66  67
ENDBRANCH  65  66
ENDBRANCH  64  65
ENDBRANCH  63  64
ENDBRANCH  62  63
ENDBRANCH  61  62
ENDBRANCH  60  61
ENDBRANCH  59  60
ENDBRANCH  58  59
ENDBRANCH  57  58
ENDBRANCH  56  57
ENDBRANCH  54  56
ENDBRANCH  53  54
ENDBRANCH  52  53
ENDBRANCH   1  52
BRANCH   1  77
HETATM   77  C   UNL     1      26.883  16.859   1.793  1.00  0.00     0.195 C 
BRANCH  77  78
HETATM   78  O   UNL     1      27.475  16.305   0.597  1.00  0.00    -0.320 OA
BRANCH  78  79
HETATM   79  C   UNL     1      28.240  17.155  -0.150  1.00  0.00     0.258 C 
HETATM   80  O   UNL     1      27.854  18.222  -0.607  1.00  0.00    -0.265 OA
BRANCH  79  81
HETATM   81  C   UNL     1      29.647  16.613  -0.310  1.00  0.00     0.111 C 
BRANCH  81  82
HETATM   82  C   UNL     1      30.629  17.780  -0.415  1.00  0.00     0.010 C 
BRANCH  82  83
HETATM   83  C   UNL     1      32.069  17.315  -0.579  1.00  0.00     0.000 C 
BRANCH  83  84
HETATM   84  C   UNL     1      33.001  18.516  -0.683  1.00  0.00     0.000 C 
BRANCH  84  85
HETATM   85  C   UNL     1      34.438  18.053  -0.844  1.00  0.00     0.000 C 
BRANCH  85  86
HETATM   86  C   UNL     1      35.366  19.250  -0.947  1.00  0.00     0.000 C 
BRANCH  86  87
HETATM   87  C   UNL     1      36.800  18.781  -1.109  1.00  0.00     0.000 C 
BRANCH  87  88
HETATM   88  C   UNL     1      37.727  19.977  -1.212  1.00  0.00     0.000 C 
BRANCH  88  89
HETATM   89  C   UNL     1      39.160  19.507  -1.372  1.00  0.00     0.000 C 
BRANCH  89  90
HETATM   90  C   UNL     1      40.086  20.704  -1.475  1.00  0.00     0.000 C 
BRANCH  90  91
HETATM   91  C   UNL     1      41.520  20.234  -1.634  1.00  0.00     0.000 C 
BRANCH  91  92
HETATM   92  C   UNL     1      42.445  21.431  -1.739  1.00  0.00     0.000 C 
BRANCH  92  93
HETATM   93  C   UNL     1      43.878  20.960  -1.897  1.00  0.00     0.000 C 
BRANCH  93  94
HETATM   94  C   UNL     1      44.804  22.157  -2.002  1.00  0.00     0.000 C 
BRANCH  94  95
HETATM   95  C   UNL     1      46.238  21.687  -2.158  1.00  0.00     0.000 C 
BRANCH  95  96
HETATM   96  C   UNL     1      47.164  22.883  -2.261  1.00  0.00     0.000 C 
BRANCH  96  97
HETATM   97  C   UNL     1      48.599  22.414  -2.417  1.00  0.00     0.000 C 
BRANCH  97  98
HETATM   98  C   UNL     1      49.526  23.611  -2.520  1.00  0.00     0.000 C 
BRANCH  98  99
HETATM   99  C   UNL     1      50.962  23.144  -2.678  1.00  0.00    -0.000 C 
BRANCH  99 100
HETATM  100  C   UNL     1      51.898  24.339  -2.782  1.00  0.00    -0.005 C 
HETATM  101  C   UNL     1      53.329  23.869  -2.940  1.00  0.00     0.005 C 
ENDBRANCH  99 100
ENDBRANCH  98  99
ENDBRANCH  97  98
ENDBRANCH  96  97
ENDBRANCH  95  96
ENDBRANCH  94  95
ENDBRANCH  93  94
ENDBRANCH  92  93
ENDBRANCH  91  92
ENDBRANCH  90  91
ENDBRANCH  89  90
ENDBRANCH  88  89
ENDBRANCH  87  88
ENDBRANCH  86  87
ENDBRANCH  85  86
ENDBRANCH  84  85
ENDBRANCH  83  84
ENDBRANCH  82  83
ENDBRANCH  81  82
ENDBRANCH  79  81
ENDBRANCH  78  79
ENDBRANCH  77  78
ENDBRANCH   1  77
TORSDOF 92
