REMARK  0 active torsions:
REMARK  status: ('A' for Active; 'I' for Inactive)
ROOT
HETATM    1  C   UNL     1       0.309   0.822   0.209  1.00  0.00     0.268 C 
HETATM    2  C   UNL     1      -0.893  -0.070  -0.249  1.00  0.00     0.268 C 
HETATM    3  C   UNL     1      -0.683  -1.523   0.225  1.00  0.00     0.291 C 
HETATM    4  C   UNL     1       0.646  -2.081  -0.255  1.00  0.00     0.356 C 
HETATM    5  C   UNL     1       1.804  -1.200   0.197  1.00  0.00     0.356 C 
HETATM    6  C   UNL     1       1.627   0.220  -0.319  1.00  0.00     0.291 C 
HETATM    7  C   UNL     1       2.837   1.064   0.057  1.00  0.00     0.359 C 
HETATM    8  C   UNL     1       2.694   2.481  -0.470  1.00  0.00     0.381 C 
HETATM    9  C   UNL     1       1.458   3.108   0.132  1.00  0.00     0.381 C 
HETATM   10  C   UNL     1       0.218   2.293  -0.220  1.00  0.00     0.356 C 
HETATM   11  F   UNL     1      -0.009   2.342  -1.554  1.00  0.00    -0.195 F 
HETATM   12  F   UNL     1      -0.851   2.877   0.377  1.00  0.00    -0.195 F 
HETATM   13  F   UNL     1       1.583   3.181   1.484  1.00  0.00    -0.192 F 
HETATM   14  F   UNL     1       1.314   4.389  -0.303  1.00  0.00    -0.192 F 
HETATM   15  F   UNL     1       3.797   3.213  -0.167  1.00  0.00    -0.192 F 
HETATM   16  F   UNL     1       2.605   2.471  -1.825  1.00  0.00    -0.192 F 
HETATM   17  F   UNL     1       2.986   1.078   1.403  1.00  0.00    -0.195 F 
HETATM   18  F   UNL     1       3.969   0.506  -0.448  1.00  0.00    -0.195 F 
HETATM   19  F   UNL     1       1.547   0.185  -1.681  1.00  0.00    -0.225 F 
HETATM   20  F   UNL     1       1.872  -1.191   1.552  1.00  0.00    -0.195 F 
HETATM   21  F   UNL     1       2.974  -1.726  -0.238  1.00  0.00    -0.195 F 
HETATM   22  F   UNL     1       0.824  -3.341   0.215  1.00  0.00    -0.195 F 
HETATM   23  F   UNL     1       0.644  -2.175  -1.607  1.00  0.00    -0.195 F 
HETATM   24  C   UNL     1      -1.821  -2.422  -0.244  1.00  0.00     0.359 C 
HETATM   25  C   UNL     1      -3.148  -1.941   0.315  1.00  0.00     0.381 C 
HETATM   26  C   UNL     1      -3.412  -0.533  -0.163  1.00  0.00     0.381 C 
HETATM   27  C   UNL     1      -2.275   0.406   0.230  1.00  0.00     0.356 C 
HETATM   28  F   UNL     1      -2.238   0.561   1.575  1.00  0.00    -0.195 F 
HETATM   29  F   UNL     1      -2.544   1.628  -0.294  1.00  0.00    -0.195 F 
HETATM   30  F   UNL     1      -4.590  -0.075   0.340  1.00  0.00    -0.192 F 
HETATM   31  F   UNL     1      -3.555  -0.525  -1.517  1.00  0.00    -0.192 F 
HETATM   32  F   UNL     1      -3.123  -1.983   1.672  1.00  0.00    -0.192 F 
HETATM   33  F   UNL     1      -4.153  -2.771  -0.070  1.00  0.00    -0.192 F 
HETATM   34  F   UNL     1      -1.600  -3.703   0.143  1.00  0.00    -0.195 F 
HETATM   35  F   UNL     1      -1.864  -2.437  -1.599  1.00  0.00    -0.195 F 
HETATM   36  F   UNL     1      -0.675  -1.511   1.590  1.00  0.00    -0.225 F 
HETATM   37  F   UNL     1      -0.904  -0.082  -1.611  1.00  0.00    -0.228 F 
HETATM   38  F   UNL     1       0.360   0.793   1.569  1.00  0.00    -0.228 F 
ENDROOT
TORSDOF 0
