REMARK  5 active torsions:
REMARK  status: ('A' for Active; 'I' for Inactive)
REMARK    1  A    between atoms: CG_4  and  CB_7 
REMARK    2  A    between atoms: CB_7  and  CA_8 
REMARK    3  A    between atoms: CA_8  and  C_9 
REMARK    4  A    between atoms: CA_8  and  N_12 
REMARK    5  A    between atoms: C_9  and  OXT_11 
ROOT
ATOM      1  CA  PHE A   1      -3.593  -0.943  -0.164  1.00  0.00     0.318 C 
ENDROOT
BRANCH   1   2
ATOM      2  CB  PHE A   1      -2.762   0.351  -0.176  1.00  0.00     0.085 C 
BRANCH   2   3
ATOM      3  CG  PHE A   1      -1.265   0.146  -0.205  1.00  0.00    -0.056 A 
ATOM      4  CD1 PHE A   1      -0.643  -0.545  -1.255  1.00  0.00     0.007 A 
ATOM      5  CE1 PHE A   1       0.730  -0.792  -1.217  1.00  0.00     0.001 A 
ATOM      6  CZ  PHE A   1       1.497  -0.328  -0.150  1.00  0.00     0.000 A 
ATOM      7  CE2 PHE A   1       0.895   0.396   0.875  1.00  0.00     0.001 A 
ATOM      8  CD2 PHE A   1      -0.479   0.632   0.849  1.00  0.00     0.007 A 
ENDBRANCH   2   3
ENDBRANCH   1   2
BRANCH   1   9
ATOM      9  C   PHE A   1      -3.382  -1.797   1.107  1.00  0.00     0.174 C 
ATOM     10  O   PHE A   1      -4.255  -1.980   1.947  1.00  0.00    -0.648 OA
BRANCH   9  11
ATOM     11  OXT PHE A   1      -2.178  -2.402   1.204  1.00  0.00    -0.775 OA
ATOM     12  HXT PHE A   1      -1.538  -2.178   0.500  1.00  0.00     0.167 HD
ENDBRANCH   9  11
ENDBRANCH   1   9
BRANCH   1  13
ATOM     13  N   PHE A   1      -5.032  -0.569  -0.254  1.00  0.00     0.093 N 
ATOM     14  H1  PHE A   1      -5.284  -0.101   0.624  1.00  0.00     0.314 HD
ATOM     15  H2  PHE A   1      -5.582  -1.433  -0.209  1.00  0.00     0.314 HD
ENDBRANCH   1  13
TORSDOF 5
