REMARK  4 active torsions:
REMARK  status: ('A' for Active; 'I' for Inactive)
REMARK    1  A    between atoms: C_4  and  O_7 
REMARK    2  A    between atoms: O_7  and  C_8 
REMARK    3  A    between atoms: C_8  and  C_9 
REMARK    4  A    between atoms: C_9  and  O_10 
ROOT
HETATM    1  C   UNL     1       1.364  -0.177   0.033  1.00  0.00     0.000 A 
HETATM    2  C   UNL     1       0.514  -1.282   0.023  1.00  0.00     0.003 A 
HETATM    3  C   UNL     1      -0.872  -1.104  -0.008  1.00  0.00     0.037 A 
HETATM    4  C   UNL     1      -1.414   0.184  -0.028  1.00  0.00     0.068 A 
HETATM    5  C   UNL     1      -0.556   1.285  -0.038  1.00  0.00     0.037 A 
HETATM    6  C   UNL     1       0.829   1.110   0.002  1.00  0.00     0.003 A 
ENDROOT
BRANCH   4   7
HETATM    7  O   UNL     1      -2.747   0.483  -0.086  1.00  0.00    -0.349 OA
BRANCH   7   8
HETATM    8  C   UNL     1      -3.636  -0.505   0.450  1.00  0.00     0.201 C 
BRANCH   8   9
HETATM    9  C   UNL     1      -5.057   0.047   0.354  1.00  0.00     0.190 C 
BRANCH   9  10
HETATM   10  O   UNL     1      -5.428   0.220  -1.013  1.00  0.00    -0.399 OA
HETATM   11  H   UNL     1      -4.719   0.755  -1.418  1.00  0.00     0.209 HD
ENDBRANCH   9  10
ENDBRANCH   8   9
ENDBRANCH   7   8
ENDBRANCH   4   7
TORSDOF 4
