REMARK  7 active torsions:
REMARK  status: ('A' for Active; 'I' for Inactive)
REMARK    1  A    between atoms: SI_2  and  O_5 
REMARK    2  A    between atoms: O_5  and  SI_6 
REMARK    3  A    between atoms: SI_6  and  C_7 
REMARK    4  A    between atoms: SI_6  and  O_13 
REMARK    5  A    between atoms: SI_6  and  O_18 
REMARK    6  A    between atoms: O_13  and  SI_14 
REMARK    7  A    between atoms: O_18  and  SI_19 
ROOT
HETATM    1 SI   UNL     1       5.443   0.577   1.461  1.00  0.00     0.000 Si
ENDROOT
BRANCH   1   2
HETATM    2  O   UNL     1       3.829   0.826   1.752  1.00  0.00     0.000 OA
BRANCH   2   3
HETATM    3 SI   UNL     1       2.710   2.074   1.685  1.00  0.00     0.000 Si
HETATM    4  C   UNL     1       3.053   3.530   2.843  1.00  0.00     0.000 C 
HETATM    5  C   UNL     1       1.031   1.432   2.243  1.00  0.00     0.000 C 
HETATM    6  C   UNL     1       2.655   2.828  -0.036  1.00  0.00     0.000 C 
ENDBRANCH   2   3
ENDBRANCH   1   2
BRANCH   1   7
HETATM    7  C   UNL     1       5.867  -1.246   1.438  1.00  0.00    -0.026 A 
HETATM    8  C   UNL     1       4.937  -2.233   1.068  1.00  0.00     0.012 A 
HETATM    9  C   UNL     1       5.291  -3.584   1.066  1.00  0.00     0.001 A 
HETATM   10  C   UNL     1       6.576  -3.980   1.442  1.00  0.00     0.000 A 
HETATM   11  C   UNL     1       7.518  -3.024   1.802  1.00  0.00     0.001 A 
HETATM   12  C   UNL     1       7.173  -1.672   1.780  1.00  0.00     0.012 A 
ENDBRANCH   1   7
BRANCH   1  13
HETATM   13  O   UNL     1       5.833   1.151  -0.030  1.00  0.00     0.000 OA
BRANCH  13  14
HETATM   14 SI   UNL     1       6.966   1.291  -1.232  1.00  0.00     0.000 Si
HETATM   15  C   UNL     1       8.184   2.657  -0.802  1.00  0.00     0.000 C 
HETATM   16  C   UNL     1       7.991  -0.244  -1.608  1.00  0.00     0.000 C 
HETATM   17  C   UNL     1       6.090   1.725  -2.857  1.00  0.00     0.000 C 
ENDBRANCH  13  14
ENDBRANCH   1  13
BRANCH   1  18
HETATM   18  O   UNL     1       6.301   1.259   2.703  1.00  0.00     0.000 OA
BRANCH  18  19
HETATM   19 SI   UNL     1       6.457   1.157   4.369  1.00  0.00     0.000 Si
HETATM   20  C   UNL     1       7.154  -0.502   4.933  1.00  0.00     0.000 C 
HETATM   21  C   UNL     1       7.611   2.531   4.926  1.00  0.00     0.000 C 
HETATM   22  C   UNL     1       4.848   1.321   5.333  1.00  0.00     0.000 C 
ENDBRANCH  18  19
ENDBRANCH   1  18
TORSDOF 7
