REMARK  3 active torsions:
REMARK  status: ('A' for Active; 'I' for Inactive)
REMARK    1  A    between atoms: C_2  and  C_3 
REMARK    2  A    between atoms: C_3  and  C_4 
REMARK    3  A    between atoms: C_3  and  O_10 
ROOT
HETATM    1  C   UNL     1       2.694  -1.431   1.945  1.00  0.00    -0.030 A 
HETATM    2  C   UNL     1       3.071  -2.656   1.370  1.00  0.00     0.010 A 
HETATM    3  C   UNL     1       2.760  -3.864   1.999  1.00  0.00     0.001 A 
HETATM    4  C   UNL     1       2.063  -3.867   3.202  1.00  0.00     0.000 A 
HETATM    5  C   UNL     1       1.674  -2.660   3.783  1.00  0.00     0.001 A 
HETATM    6  C   UNL     1       1.992  -1.451   3.159  1.00  0.00     0.010 A 
ENDROOT
BRANCH   1   7
HETATM    7  C   UNL     1       3.023  -0.104   1.288  1.00  0.00     0.150 C 
BRANCH   7   8
HETATM    8  C   UNL     1       2.443   0.059  -0.123  1.00  0.00     0.032 C 
HETATM    9  C   UNL     1       0.925  -0.001  -0.168  1.00  0.00     0.008 C 
ENDBRANCH   7   8
BRANCH   7  10
HETATM   10  O   UNL     1       4.440   0.066   1.192  1.00  0.00    -0.391 OA
HETATM   11  H   UNL     1       4.851  -0.813   1.188  1.00  0.00     0.210 HD
ENDBRANCH   7  10
ENDBRANCH   1   7
TORSDOF 3
