REMARK  7 active torsions:
REMARK  status: ('A' for Active; 'I' for Inactive)
REMARK    1  A    between atoms: C_2  and  C_3 
REMARK    2  A    between atoms: C_3  and  C_4 
REMARK    3  A    between atoms: C_3  and  C_28 
REMARK    4  A    between atoms: C_4  and  C_5 
REMARK    5  A    between atoms: C_5  and  C_6 
REMARK    6  A    between atoms: C_6  and  C_8 
REMARK    7  A    between atoms: C_23  and  O_25 
ROOT
HETATM    1  C   UNL     1       0.938  -2.771   3.532  1.00  0.00    -0.002 C 
HETATM    2  C   UNL     1       1.613  -1.439   3.039  1.00  0.00     0.006 C 
HETATM    3  C   UNL     1       1.765  -1.559   1.515  1.00  0.00     0.006 C 
HETATM    4  C   UNL     1       0.878  -2.745   1.150  1.00  0.00    -0.001 C 
HETATM    5  C   UNL     1       1.246  -3.749   2.319  1.00  0.00    -0.036 C 
HETATM    6  C   UNL     1       0.481  -5.019   1.891  1.00  0.00     0.010 C 
HETATM    7  C   UNL     1      -1.027  -4.934   1.831  1.00  0.00     0.007 C 
HETATM    8  C   UNL     1      -1.653  -3.667   1.186  1.00  0.00     0.003 C 
HETATM    9  C   UNL     1      -0.682  -2.444   1.237  1.00  0.00    -0.001 C 
HETATM   10  C   UNL     1      -1.241  -1.194   0.573  1.00  0.00     0.033 C 
HETATM   11  C   UNL     1      -2.543  -0.868   1.280  1.00  0.00    -0.023 C 
HETATM   12  C   UNL     1      -3.318  -1.778   1.897  1.00  0.00    -0.072 C 
HETATM   13  C   UNL     1      -3.094  -3.297   1.848  1.00  0.00    -0.017 C 
HETATM   14  C   UNL     1      -4.291  -3.829   0.997  1.00  0.00     0.016 C 
HETATM   15  C   UNL     1      -5.662  -3.404   1.580  1.00  0.00     0.033 C 
HETATM   16  C   UNL     1      -5.767  -1.880   1.740  1.00  0.00     0.122 C 
HETATM   17  C   UNL     1      -4.599  -1.318   2.565  1.00  0.00     0.066 C 
HETATM   18  C   UNL     1      -3.249  -3.950   3.254  1.00  0.00     0.020 C 
HETATM   19  C   UNL     1       2.723  -4.196   2.438  1.00  0.00     0.016 C 
ENDROOT
BRANCH   1  20
HETATM   20  C   UNL     1       1.003  -2.949   5.065  1.00  0.00    -0.014 C 
HETATM   21  C   UNL     1       0.293  -4.244   5.456  1.00  0.00     0.010 C 
BRANCH  20  22
HETATM   22  C   UNL     1       0.246  -1.706   5.725  1.00  0.00     0.005 C 
BRANCH  22  23
HETATM   23  C   UNL     1       0.063  -1.768   7.245  1.00  0.00     0.005 C 
BRANCH  23  24
HETATM   24  C   UNL     1      -0.569  -0.516   7.934  1.00  0.00    -0.012 C 
BRANCH  24  25
HETATM   25  C   UNL     1      -2.079  -0.316   7.629  1.00  0.00     0.000 C 
HETATM   26  C   UNL     1      -2.954  -1.542   7.844  1.00  0.00     0.005 C 
ENDBRANCH  24  25
BRANCH  24  27
HETATM   27  C   UNL     1       0.216   0.817   7.698  1.00  0.00    -0.019 C 
HETATM   28  C   UNL     1      -0.269   1.947   8.624  1.00  0.00     0.010 C 
HETATM   29  C   UNL     1       1.726   0.658   7.909  1.00  0.00     0.010 C 
ENDBRANCH  24  27
ENDBRANCH  23  24
ENDBRANCH  22  23
ENDBRANCH  20  22
ENDBRANCH   1  20
BRANCH  16  30
HETATM   30  O   UNL     1      -7.015  -1.527   2.325  1.00  0.00    -0.395 OA
HETATM   31  H   UNL     1      -7.022  -1.866   3.244  1.00  0.00     0.210 HD
ENDBRANCH  16  30
TORSDOF 7
