REMARK  5 active torsions:
REMARK  status: ('A' for Active; 'I' for Inactive)
REMARK    1  A    between atoms: C_2  and  C_3 
REMARK    2  A    between atoms: C_3  and  C_4 
REMARK    3  A    between atoms: C_4  and  C_5 
REMARK    4  A    between atoms: C_5  and  C_6 
REMARK    5  A    between atoms: C_6  and  N_7 
REMARK       I    between atoms: N_7  and  C_9 
REMARK       I    between atoms: C_9  and  N_10 
REMARK       I    between atoms: C_9  and  N_11 
REMARK       I    between atoms: N_11  and  C_13 
REMARK       I    between atoms: C_13  and  N_14 
ROOT
HETATM    1  N   UNL     1       7.111  -2.032  -3.794  1.00  0.00    -0.226 N 
ATOM      2  HN  UNL     1       6.488  -2.323  -4.548  1.00  0.00     0.177 HD
HETATM    3  C   UNL     1       8.389  -2.203  -3.865  1.00  0.00     0.674 C 
HETATM    4  N   UNL     1       9.296  -1.848  -2.910  1.00  0.00    -0.235 N 
HETATM    5  N   UNL     1       8.943  -2.748  -4.993  1.00  0.00    -0.167 N 
ATOM      6  HN  UNL     1       9.953  -2.677  -5.120  1.00  0.00     0.186 HD
HETATM    7  C   UNL     1       8.250  -3.349  -5.906  1.00  0.00     0.163 C 
HETATM    8  N   UNL     1       6.921  -3.611  -5.934  1.00  0.00    -0.274 NA
HETATM    9  N   UNL     1       8.866  -3.811  -7.018  1.00  0.00    -0.376 N 
HETATM   10  H   UNL     1       9.022  -1.134  -2.252  1.00  0.00     0.174 HD
HETATM   11  H   UNL     1      10.232  -1.755  -3.275  1.00  0.00     0.174 HD
HETATM   12  H   UNL     1       6.421  -3.004  -5.273  1.00  0.00     0.127 HD
HETATM   13  H   UNL     1       6.474  -3.678  -6.835  1.00  0.00     0.127 HD
HETATM   14  H   UNL     1       9.858  -3.943  -6.904  1.00  0.00     0.158 HD
HETATM   15  H   UNL     1       8.400  -4.535  -7.554  1.00  0.00     0.158 HD
ENDROOT
BRANCH   1  16
HETATM   16  C   UNL     1       6.601  -1.398  -2.574  1.00  0.00     0.138 C 
BRANCH  16  17
HETATM   17  C   UNL     1       5.079  -1.412  -2.589  1.00  0.00     0.020 C 
BRANCH  17  18
HETATM   18  C   UNL     1       4.535  -0.686  -1.350  1.00  0.00     0.002 C 
BRANCH  18  19
HETATM   19  C   UNL     1       3.014  -0.666  -1.318  1.00  0.00    -0.000 C 
BRANCH  19  20
HETATM   20  C   UNL     1       2.495   0.061  -0.075  1.00  0.00    -0.005 C 
HETATM   21  C   UNL     1       0.968   0.077  -0.042  1.00  0.00     0.005 C 
ENDBRANCH  19  20
ENDBRANCH  18  19
ENDBRANCH  17  18
ENDBRANCH  16  17
ENDBRANCH   1  16
TORSDOF 5
