REMARK  32 active torsions:
REMARK  status: ('A' for Active; 'I' for Inactive)
REMARK    1  A    between atoms: C_2  and  C_3 
REMARK    2  A    between atoms: C_3  and  C_4 
REMARK    3  A    between atoms: C_4  and  C_5 
REMARK    4  A    between atoms: C_5  and  C_6 
REMARK    5  A    between atoms: C_6  and  C_7 
REMARK    6  A    between atoms: C_7  and  C_8 
REMARK    7  A    between atoms: C_7  and  O_36 
REMARK    8  A    between atoms: C_8  and  C_9 
REMARK    9  A    between atoms: C_10  and  C_11 
REMARK   10  A    between atoms: C_11  and  C_12 
REMARK   11  A    between atoms: C_12  and  C_13 
REMARK   12  A    between atoms: C_13  and  C_14 
REMARK   13  A    between atoms: C_14  and  C_15 
REMARK   14  A    between atoms: C_15  and  C_16 
REMARK   15  A    between atoms: C_16  and  C_17 
REMARK   16  A    between atoms: C_17  and  C_18 
REMARK   17  A    between atoms: C_18  and  O_20 
REMARK   18  A    between atoms: O_20  and  C_21 
REMARK   19  A    between atoms: C_21  and  C_22 
REMARK   20  A    between atoms: C_22  and  C_23 
REMARK   21  A    between atoms: C_22  and  O_35 
REMARK   22  A    between atoms: C_23  and  O_24 
REMARK   23  A    between atoms: O_24  and  C_25 
REMARK   24  A    between atoms: C_25  and  C_26 
REMARK   25  A    between atoms: C_26  and  C_27 
REMARK   26  A    between atoms: C_26  and  O_34 
REMARK   27  A    between atoms: C_27  and  O_28 
REMARK   28  A    between atoms: O_28  and  C_29 
REMARK   29  A    between atoms: C_29  and  C_30 
REMARK   30  A    between atoms: C_30  and  C_31 
REMARK   31  A    between atoms: C_30  and  O_33 
REMARK   32  A    between atoms: C_31  and  O_32 
ROOT
HETATM    1  C   UNL     1      -0.819  10.444   5.391  1.00  0.00     0.258 C 
HETATM    2  O   UNL     1      -0.894  11.518   4.810  1.00  0.00    -0.265 OA
ENDROOT
BRANCH   1   3
HETATM    3  C   UNL     1      -2.014   9.440   5.268  1.00  0.00     0.111 C 
BRANCH   3   4
HETATM    4  C   UNL     1      -2.139   7.904   5.209  1.00  0.00     0.010 C 
BRANCH   4   5
HETATM    5  C   UNL     1      -1.388   7.078   4.155  1.00  0.00     0.000 C 
BRANCH   5   6
HETATM    6  C   UNL     1       0.095   6.889   4.437  1.00  0.00     0.000 C 
BRANCH   6   7
HETATM    7  C   UNL     1       0.353   6.082   5.714  1.00  0.00     0.000 C 
BRANCH   7   8
HETATM    8  C   UNL     1       1.834   6.056   6.128  1.00  0.00     0.004 C 
BRANCH   8   9
HETATM    9  C   UNL     1       2.446   7.438   6.395  1.00  0.00     0.027 C 
BRANCH   9  10
HETATM   10  C   UNL     1       1.683   8.107   7.493  1.00  0.00    -0.031 C 
HETATM   11  C   UNL     1       2.128   8.684   8.611  1.00  0.00    -0.028 C 
BRANCH  11  12
HETATM   12  C   UNL     1       1.226   9.300   9.660  1.00  0.00     0.058 C 
BRANCH  12  13
HETATM   13  C   UNL     1      -0.346   9.444   9.492  1.00  0.00     0.121 C 
BRANCH  13  14
HETATM   14  C   UNL     1      -1.102   8.126   9.510  1.00  0.00     0.032 C 
BRANCH  14  15
HETATM   15  C   UNL     1      -0.781   7.310  10.730  1.00  0.00     0.002 C 
BRANCH  15  16
HETATM   16  C   UNL     1      -1.083   8.127  11.977  1.00  0.00     0.000 C 
BRANCH  16  17
HETATM   17  C   UNL     1      -0.603   7.374  13.191  1.00  0.00    -0.000 C 
BRANCH  17  18
HETATM   18  C   UNL     1      -1.028   8.103  14.446  1.00  0.00    -0.005 C 
HETATM   19  C   UNL     1      -0.591   7.286  15.641  1.00  0.00     0.005 C 
ENDBRANCH  17  18
ENDBRANCH  16  17
ENDBRANCH  15  16
ENDBRANCH  14  15
ENDBRANCH  13  14
BRANCH  13  20
HETATM   20  O   UNL     1      -0.888  10.086   8.349  1.00  0.00    -0.395 OA
HETATM   21  H   UNL     1      -0.950  11.041   8.499  1.00  0.00     0.210 HD
ENDBRANCH  13  20
ENDBRANCH  12  13
ENDBRANCH  11  12
ENDBRANCH   9  10
ENDBRANCH   8   9
ENDBRANCH   7   8
ENDBRANCH   6   7
ENDBRANCH   5   6
ENDBRANCH   4   5
ENDBRANCH   3   4
ENDBRANCH   1   3
BRANCH   1  22
HETATM   22  O   UNL     1       0.200  10.186   6.247  1.00  0.00    -0.319 OA
BRANCH  22  23
HETATM   23  C   UNL     1       1.293  11.167   6.459  1.00  0.00     0.212 C 
BRANCH  23  24
HETATM   24  C   UNL     1       1.312  11.955   7.830  1.00  0.00     0.166 C 
BRANCH  24  25
HETATM   25  C   UNL     1       2.744  12.287   8.362  1.00  0.00     0.201 C 
BRANCH  25  26
HETATM   26  O   UNL     1       2.722  12.705   9.764  1.00  0.00    -0.386 OA
BRANCH  26  27
HETATM   27  C   UNL     1       4.005  13.215  10.178  1.00  0.00     0.201 C 
BRANCH  27  28
HETATM   28  C   UNL     1       4.021  13.742  11.627  1.00  0.00     0.165 C 
BRANCH  28  29
HETATM   29  C   UNL     1       2.863  14.654  12.102  1.00  0.00     0.201 C 
BRANCH  29  30
HETATM   30  O   UNL     1       2.648  15.955  11.574  1.00  0.00    -0.386 OA
BRANCH  30  31
HETATM   31  C   UNL     1       2.330  16.171  10.209  1.00  0.00     0.201 C 
BRANCH  31  32
HETATM   32  C   UNL     1       1.059  15.566   9.587  1.00  0.00     0.165 C 
BRANCH  32  33
HETATM   33  C   UNL     1      -0.334  16.040  10.028  1.00  0.00     0.198 C 
BRANCH  33  34
HETATM   34  O   UNL     1      -0.617  17.396   9.693  1.00  0.00    -0.398 OA
HETATM   35  H   UNL     1      -1.316  17.376   9.012  1.00  0.00     0.209 HD
ENDBRANCH  33  34
ENDBRANCH  32  33
BRANCH  32  36
HETATM   36  O   UNL     1       1.140  15.809   8.167  1.00  0.00    -0.391 OA
HETATM   37  H   UNL     1       1.785  15.173   7.814  1.00  0.00     0.210 HD
ENDBRANCH  32  36
ENDBRANCH  31  32
ENDBRANCH  30  31
ENDBRANCH  29  30
ENDBRANCH  28  29
BRANCH  28  38
HETATM   38  O   UNL     1       4.050  12.591  12.504  1.00  0.00    -0.391 OA
HETATM   39  H   UNL     1       3.254  12.067  12.306  1.00  0.00     0.210 HD
ENDBRANCH  28  38
ENDBRANCH  27  28
ENDBRANCH  26  27
ENDBRANCH  25  26
ENDBRANCH  24  25
BRANCH  24  40
HETATM   40  O   UNL     1       0.569  13.172   7.725  1.00  0.00    -0.391 OA
HETATM   41  H   UNL     1      -0.331  12.959   7.424  1.00  0.00     0.210 HD
ENDBRANCH  24  40
ENDBRANCH  23  24
ENDBRANCH  22  23
ENDBRANCH   1  22
TORSDOF 32
