REMARK WARNING: 32 MAX_TORS EXCEEDED!!!
REMARK  37 active torsions:
REMARK  status: ('A' for Active; 'I' for Inactive)
REMARK    1  A    between atoms: C_2  and  C_4 
REMARK    2  A    between atoms: C_4  and  C_5 
REMARK    3  A    between atoms: C_5  and  C_6 
REMARK    4  A    between atoms: C_6  and  C_7 
REMARK    5  A    between atoms: C_7  and  C_8 
REMARK    6  A    between atoms: C_8  and  C_9 
REMARK    7  A    between atoms: C_9  and  C_10 
REMARK    8  A    between atoms: C_10  and  C_11 
REMARK    9  A    between atoms: C_11  and  C_12 
REMARK   10  A    between atoms: C_12  and  C_13 
REMARK   11  A    between atoms: C_13  and  C_14 
REMARK   12  A    between atoms: C_14  and  C_15 
REMARK   13  A    between atoms: C_15  and  C_16 
REMARK   14  A    between atoms: C_16  and  C_17 
REMARK   15  A    between atoms: C_17  and  C_18 
REMARK   16  A    between atoms: C_18  and  O_20 
REMARK   17  A    between atoms: C_23  and  C_25 
REMARK   18  A    between atoms: C_25  and  C_26 
REMARK   19  A    between atoms: C_26  and  C_27 
REMARK   20  A    between atoms: C_27  and  C_28 
REMARK   21  A    between atoms: C_28  and  C_29 
REMARK   22  A    between atoms: C_29  and  C_30 
REMARK   23  A    between atoms: C_30  and  C_31 
REMARK   24  A    between atoms: C_31  and  C_32 
REMARK   25  A    between atoms: C_32  and  C_33 
REMARK   26  A    between atoms: C_33  and  C_34 
REMARK   27  A    between atoms: C_34  and  C_35 
REMARK   28  A    between atoms: C_35  and  C_36 
REMARK   29  A    between atoms: C_36  and  C_37 
REMARK   30  A    between atoms: C_37  and  C_38 
REMARK   31  A    between atoms: C_38  and  C_39 
REMARK   32  A    between atoms: C_39  and  O_41 
REMARK   33  A    between atoms: C_43  and  C_44 
REMARK   34  A    between atoms: C_43  and  O_48 
REMARK   35  A    between atoms: C_44  and  C_45 
REMARK   36  A    between atoms: C_44  and  O_47 
REMARK   37  A    between atoms: C_45  and  O_46 
ROOT
HETATM    1  C   UNL     3      -0.518   0.962  -2.705  1.00  0.00     0.165 C 
ENDROOT
BRANCH   1   2
HETATM    2  C   UNL     3      -0.785  -0.484  -2.332  1.00  0.00     0.198 C 
BRANCH   2   3
HETATM    3  O   UNL     3      -0.330  -1.439  -3.271  1.00  0.00    -0.398 OA
HETATM    4  H   UNL     3       0.039  -2.187  -2.760  1.00  0.00     0.209 HD
ENDBRANCH   2   3
ENDBRANCH   1   2
BRANCH   1   5
HETATM    5  C   UNL     3      -1.186   1.283  -4.026  1.00  0.00     0.198 C 
BRANCH   5   6
HETATM    6  O   UNL     3      -1.057   2.678  -4.284  1.00  0.00    -0.398 OA
HETATM    7  H   UNL     3      -1.270   3.105  -3.430  1.00  0.00     0.209 HD
ENDBRANCH   5   6
ENDBRANCH   1   5
BRANCH   1   8
HETATM    8  O   UNL     3      -1.029   1.836  -1.682  1.00  0.00    -0.391 OA
HETATM    9  H   UNL     3      -0.524   1.658  -0.867  1.00  0.00     0.210 HD
ENDBRANCH   1   8
TORSDOF 37
