REMARK  3 active torsions:
REMARK  status: ('A' for Active; 'I' for Inactive)
REMARK    1  A    between atoms: O_2  and  C_3 
REMARK    2  A    between atoms: C_5  and  O_12 
REMARK    3  A    between atoms: C_6  and  C_9 
ROOT
HETATM    1  K   UNL     2      -1.663  -0.800  -1.135  1.00  0.00     0.000 K 
ENDROOT
TORSDOF 3
