REMARK  2 active torsions:
REMARK  status: ('A' for Active; 'I' for Inactive)
REMARK    1  A    between atoms: CA_3  and  C_6 
REMARK    2  A    between atoms: C_6  and  OXT_8 
ROOT
ATOM      1  CG  PRO A   1      -1.054   0.779  -0.180  1.00  0.00     0.030 C 
ATOM      2  CB  PRO A   1      -1.098  -0.691   0.206  1.00  0.00     0.045 C 
ATOM      3  CA  PRO A   1       0.247  -1.224  -0.249  1.00  0.00     0.282 C 
ATOM      4  N   PRO A   1       1.182  -0.053   0.047  1.00  0.00    -0.061 N 
ATOM      5  CD  PRO A   1       0.380   1.211   0.076  1.00  0.00     0.233 C 
ATOM      6  H1  PRO A   1       1.874  -0.010  -0.724  1.00  0.00     0.278 HD
ATOM      7  H2  PRO A   1       1.706  -0.191   0.921  1.00  0.00     0.278 HD
ENDROOT
BRANCH   3   8
ATOM      8  C   PRO A   1       0.313  -1.551  -1.744  1.00  0.00     0.171 C 
ATOM      9  O   PRO A   1       1.118  -0.968  -2.462  1.00  0.00    -0.648 OA
BRANCH   8  10
ATOM     10  OXT PRO A   1      -0.521  -2.501  -2.194  1.00  0.00    -0.775 OA
ATOM     11  HXT PRO A   1      -1.121  -2.959  -1.573  1.00  0.00     0.167 HD
ENDBRANCH   8  10
ENDBRANCH   3   8
TORSDOF 2
