REMARK  15 active torsions:
REMARK  status: ('A' for Active; 'I' for Inactive)
REMARK    1  A    between atoms: C_2  and  C_3 
REMARK    2  A    between atoms: C_3  and  C_4 
REMARK    3  A    between atoms: C_4  and  C_5 
REMARK    4  A    between atoms: C_5  and  C_6 
REMARK    5  A    between atoms: C_6  and  C_7 
REMARK    6  A    between atoms: C_7  and  C_8 
REMARK    7  A    between atoms: C_8  and  O_10 
REMARK    8  A    between atoms: O_10  and  C_11 
REMARK    9  A    between atoms: C_11  and  C_12 
REMARK   10  A    between atoms: C_12  and  C_13 
REMARK   11  A    between atoms: C_12  and  C_16 
REMARK   12  A    between atoms: C_13  and  C_14 
REMARK   13  A    between atoms: C_16  and  C_17 
REMARK   14  A    between atoms: C_17  and  C_18 
REMARK   15  A    between atoms: C_18  and  C_19 
ROOT
HETATM    1  O   UNL     1       9.211  -2.548   4.632  1.00  0.00    -0.321 OA
ENDROOT
BRANCH   1   2
HETATM    2  C   UNL     1       8.831  -1.242   4.773  1.00  0.00     0.258 C 
HETATM    3  O   UNL     1       9.507  -0.346   5.253  1.00  0.00    -0.265 OA
BRANCH   2   4
HETATM    4  C   UNL     1       7.493  -1.019   4.113  1.00  0.00     0.111 C 
BRANCH   4   5
HETATM    5  C   UNL     1       6.398  -1.810   4.806  1.00  0.00     0.010 C 
BRANCH   5   6
HETATM    6  C   UNL     1       5.038  -1.609   4.141  1.00  0.00     0.000 C 
BRANCH   6   7
HETATM    7  C   UNL     1       3.974  -2.421   4.879  1.00  0.00     0.000 C 
BRANCH   7   8
HETATM    8  C   UNL     1       2.598  -2.251   4.246  1.00  0.00    -0.000 C 
BRANCH   8   9
HETATM    9  C   UNL     1       1.545  -3.067   4.993  1.00  0.00    -0.005 C 
HETATM   10  C   UNL     1       0.173  -2.898   4.361  1.00  0.00     0.005 C 
ENDBRANCH   8   9
ENDBRANCH   7   8
ENDBRANCH   6   7
ENDBRANCH   5   6
ENDBRANCH   4   5
ENDBRANCH   2   4
ENDBRANCH   1   2
BRANCH   1  11
HETATM   11  C   UNL     1      10.623  -2.764   4.645  1.00  0.00     0.183 C 
BRANCH  11  12
HETATM   12  C   UNL     1      11.115  -3.605   5.840  1.00  0.00     0.010 C 
BRANCH  12  13
HETATM   13  C   UNL     1      10.438  -4.998   5.862  1.00  0.00     0.006 C 
BRANCH  13  14
HETATM   14  C   UNL     1      10.864  -5.877   7.048  1.00  0.00    -0.004 C 
HETATM   15  C   UNL     1      10.173  -7.229   7.030  1.00  0.00     0.005 C 
ENDBRANCH  13  14
ENDBRANCH  12  13
BRANCH  12  16
HETATM   16  C   UNL     1      12.655  -3.740   5.770  1.00  0.00     0.007 C 
BRANCH  16  17
HETATM   17  C   UNL     1      13.383  -2.397   5.840  1.00  0.00     0.000 C 
BRANCH  17  18
HETATM   18  C   UNL     1      14.896  -2.575   5.776  1.00  0.00    -0.000 C 
BRANCH  18  19
HETATM   19  C   UNL     1      15.586  -1.214   5.826  1.00  0.00    -0.005 C 
HETATM   20  C   UNL     1      17.094  -1.360   5.760  1.00  0.00     0.005 C 
ENDBRANCH  18  19
ENDBRANCH  17  18
ENDBRANCH  16  17
ENDBRANCH  12  16
ENDBRANCH  11  12
ENDBRANCH   1  11
TORSDOF 15
