REMARK  5 active torsions:
REMARK  status: ('A' for Active; 'I' for Inactive)
REMARK    1  A    between atoms: C_2  and  C_3 
REMARK    2  A    between atoms: C_3  and  O_4 
REMARK    3  A    between atoms: O_4  and  C_5 
REMARK    4  A    between atoms: C_5  and  C_7 
REMARK    5  A    between atoms: C_10  and  O_13 
ROOT
HETATM    1  C   UNL     1       6.607  -2.421   0.616  1.00  0.00     0.039 A 
HETATM    2  C   UNL     1       7.319  -1.420  -0.065  1.00  0.00     0.020 A 
HETATM    3  C   UNL     1       8.714  -1.385  -0.012  1.00  0.00     0.037 A 
HETATM    4  C   UNL     1       9.394  -2.350   0.723  1.00  0.00     0.065 A 
HETATM    5  C   UNL     1       8.704  -3.352   1.398  1.00  0.00     0.037 A 
HETATM    6  C   UNL     1       7.308  -3.394   1.340  1.00  0.00     0.020 A 
ENDROOT
BRANCH   1   7
HETATM    7  C   UNL     1       5.124  -2.521   0.522  1.00  0.00     0.293 C 
HETATM    8  O   UNL     1       4.497  -3.539   0.758  1.00  0.00    -0.259 OA
BRANCH   7   9
HETATM    9  O   UNL     1       4.613  -1.342   0.086  1.00  0.00    -0.318 OA
BRANCH   9  10
HETATM   10  C   UNL     1       3.285  -1.389  -0.451  1.00  0.00     0.178 C 
BRANCH  10  11
HETATM   11  C   UNL     1       2.261  -0.813   0.517  1.00  0.00     0.022 C 
HETATM   12  C   UNL     1       0.882  -0.794  -0.125  1.00  0.00     0.007 C 
ENDBRANCH  10  11
ENDBRANCH   9  10
ENDBRANCH   7   9
ENDBRANCH   1   7
BRANCH   4  13
HETATM   13  O   UNL     1      10.755  -2.352   0.801  1.00  0.00    -0.361 OA
HETATM   14  H   UNL     1      11.099  -1.596   0.297  1.00  0.00     0.217 HD
ENDBRANCH   4  13
TORSDOF 5
