REMARK  0 active torsions:
REMARK  status: ('A' for Active; 'I' for Inactive)
ROOT
HETATM    1  C   UNL     1       1.104   0.005  -0.062  1.00  0.00     0.042 C 
HETATM    2  C   UNL     1       2.618  -0.047  -0.101  1.00  0.00     0.154 C 
HETATM    3  C   UNL     1       3.196  -1.261   0.560  1.00  0.00     0.213 C 
HETATM    4  O   UNL     1       4.469  -0.805   0.983  1.00  0.00    -0.296 OA
HETATM    5  C   UNL     1       4.365   0.548   1.148  1.00  0.00     0.406 C 
HETATM    6  O   UNL     1       5.219   1.247   1.667  1.00  0.00    -0.229 OA
HETATM    7  O   UNL     1       3.176   1.012   0.659  1.00  0.00    -0.291 OA
ENDROOT
TORSDOF 0
