REMARK  3 active torsions:
REMARK  status: ('A' for Active; 'I' for Inactive)
REMARK    1  A    between atoms: C_2  and  C_3 
REMARK    2  A    between atoms: C_2  and  O_5 
REMARK    3  A    between atoms: C_3  and  O_4 
ROOT
HETATM    1  C   UNL     1       1.026   0.076  -0.056  1.00  0.00     0.041 C 
HETATM    2  C   UNL     1       2.544   0.042  -0.126  1.00  0.00     0.137 C 
ENDROOT
BRANCH   2   3
HETATM    3  C   UNL     1       3.041  -0.603  -1.423  1.00  0.00     0.195 C 
BRANCH   3   4
HETATM    4  O   UNL     1       4.467  -0.581  -1.458  1.00  0.00    -0.398 OA
HETATM    5  H   UNL     1       4.728   0.284  -1.084  1.00  0.00     0.209 HD
ENDBRANCH   3   4
ENDBRANCH   2   3
BRANCH   2   6
HETATM    6  O   UNL     1       3.065   1.375  -0.051  1.00  0.00    -0.394 OA
HETATM    7  H   UNL     1       2.590   1.920  -0.705  1.00  0.00     0.210 HD
ENDBRANCH   2   6
TORSDOF 3
