REMARK  3 active torsions:
REMARK  status: ('A' for Active; 'I' for Inactive)
REMARK    1  A    between atoms: C_2  and  C_3 
REMARK    2  A    between atoms: C_3  and  O_4 
REMARK    3  A    between atoms: C_3  and  O_5 
ROOT
HETATM    1  C   UNL     1       2.996   1.233   0.768  1.00  0.00     0.253 C 
ENDROOT
BRANCH   1   2
HETATM    2  C   UNL     1       2.603   0.026  -0.076  1.00  0.00     0.056 C 
HETATM    3  C   UNL     1       1.096  -0.150  -0.140  1.00  0.00     0.010 C 
ENDBRANCH   1   2
BRANCH   1   4
HETATM    4  O   UNL     1       2.640   1.004   2.116  1.00  0.00    -0.372 OA
HETATM    5  H   UNL     1       2.455   1.878   2.493  1.00  0.00     0.212 HD
ENDBRANCH   1   4
BRANCH   1   6
HETATM    6  O   UNL     1       4.389   1.461   0.703  1.00  0.00    -0.372 OA
HETATM    7  H   UNL     1       4.815   0.598   0.574  1.00  0.00     0.212 HD
ENDBRANCH   1   6
TORSDOF 3
