REMARK  22 active torsions:
REMARK  status: ('A' for Active; 'I' for Inactive)
REMARK    1  A    between atoms: O_2  and  C_3 
REMARK    2  A    between atoms: C_3  and  C_4 
REMARK    3  A    between atoms: C_5  and  O_39 
REMARK    4  A    between atoms: C_6  and  O_38 
REMARK    5  A    between atoms: C_7  and  O_37 
REMARK    6  A    between atoms: C_8  and  C_10 
REMARK    7  A    between atoms: C_10  and  O_11 
REMARK    8  A    between atoms: O_11  and  C_12 
REMARK    9  A    between atoms: C_12  and  C_13 
REMARK   10  A    between atoms: C_14  and  C_35 
REMARK   11  A    between atoms: C_16  and  C_21 
REMARK   12  A    between atoms: C_17  and  O_20 
REMARK   13  A    between atoms: C_18  and  O_19 
REMARK   14  A    between atoms: C_21  and  O_22 
REMARK   15  A    between atoms: O_22  and  C_23 
REMARK   16  A    between atoms: C_23  and  C_24 
REMARK   17  A    between atoms: C_25  and  C_33 
REMARK   18  A    between atoms: C_27  and  O_32 
REMARK   19  A    between atoms: C_28  and  O_31 
REMARK   20  A    between atoms: C_29  and  O_30 
REMARK   21  A    between atoms: C_33  and  O_34 
REMARK   22  A    between atoms: C_35  and  O_36 
ROOT
HETATM    1  C   UNL     1       4.441  -5.950  -4.382  1.00  0.00     0.072 C 
HETATM    2  C   UNL     1       4.465  -7.458  -4.677  1.00  0.00     0.154 C 
HETATM    3  O   UNL     1       5.789  -7.990  -4.776  1.00  0.00    -0.373 OA
HETATM    4  C   UNL     1       6.762  -7.268  -5.557  1.00  0.00     0.177 C 
HETATM    5  C   UNL     1       6.802  -5.763  -5.223  1.00  0.00     0.178 C 
HETATM    6  C   UNL     1       5.384  -5.203  -5.337  1.00  0.00     0.158 C 
ENDROOT
BRANCH   1   7
HETATM    7  C   UNL     1       4.754  -5.710  -2.891  1.00  0.00     0.177 C 
BRANCH   7   8
HETATM    8  O   UNL     1       4.790  -4.330  -2.538  1.00  0.00    -0.388 OA
BRANCH   8   9
HETATM    9  C   UNL     1       3.532  -3.665  -2.720  1.00  0.00     0.202 C 
BRANCH   9  10
HETATM   10  C   UNL     1       3.717  -2.177  -2.433  1.00  0.00     0.177 C 
HETATM   11  C   UNL     1       2.415  -1.405  -2.676  1.00  0.00     0.180 C 
HETATM   12  C   UNL     1       2.678   0.100  -2.510  1.00  0.00     0.180 C 
HETATM   13  C   UNL     1       3.881   0.573  -3.347  1.00  0.00     0.180 C 
HETATM   14  C   UNL     1       5.116  -0.300  -3.079  1.00  0.00     0.177 C 
HETATM   15  O   UNL     1       4.753  -1.677  -3.302  1.00  0.00    -0.371 OA
BRANCH  11  16
HETATM   16  O   UNL     1       1.891  -1.676  -3.988  1.00  0.00    -0.390 OA
HETATM   17  H   UNL     1       2.618  -1.525  -4.624  1.00  0.00     0.210 HD
ENDBRANCH  11  16
BRANCH  12  18
HETATM   18  O   UNL     1       1.510   0.838  -2.877  1.00  0.00    -0.390 OA
HETATM   19  H   UNL     1       1.361   0.609  -3.819  1.00  0.00     0.210 HD
ENDBRANCH  12  18
BRANCH  13  20
HETATM   20  O   UNL     1       3.519   0.478  -4.745  1.00  0.00    -0.390 OA
HETATM   21  H   UNL     1       4.161  -0.112  -5.185  1.00  0.00     0.210 HD
ENDBRANCH  13  20
BRANCH  14  22
HETATM   22  C   UNL     1       5.776  -0.067  -1.708  1.00  0.00     0.201 C 
BRANCH  22  23
HETATM   23  O   UNL     1       6.947  -0.885  -1.631  1.00  0.00    -0.393 OA
HETATM   24  C   UNL     1       7.583  -0.813  -0.365  1.00  0.00     0.201 C 
ENDBRANCH  22  23
ENDBRANCH  14  22
ENDBRANCH   9  10
ENDBRANCH   8   9
ENDBRANCH   7   8
ENDBRANCH   1   7
BRANCH   2  25
HETATM   25  C   UNL     1       3.564  -7.841  -5.864  1.00  0.00     0.196 C 
BRANCH  25  26
HETATM   26  O   UNL     1       2.198  -7.538  -5.590  1.00  0.00    -0.398 OA
HETATM   27  H   UNL     1       1.863  -8.210  -4.978  1.00  0.00     0.209 HD
ENDBRANCH  25  26
ENDBRANCH   2  25
BRANCH   6  28
HETATM   28  O   UNL     1       5.380  -3.789  -5.159  1.00  0.00    -0.392 OA
HETATM   29  H   UNL     1       5.651  -3.587  -4.238  1.00  0.00     0.210 HD
ENDBRANCH   6  28
BRANCH   5  30
HETATM   30  O   UNL     1       7.720  -5.019  -6.022  1.00  0.00    -0.390 OA
HETATM   31  H   UNL     1       7.227  -4.655  -6.779  1.00  0.00     0.210 HD
ENDBRANCH   5  30
BRANCH   4  32
HETATM   32  C   UNL     1       6.649  -7.606  -7.058  1.00  0.00     0.202 C 
BRANCH  32  33
HETATM   33  O   UNL     1       7.572  -6.933  -7.905  1.00  0.00    -0.388 OA
BRANCH  33  34
HETATM   34  C   UNL     1       8.928  -7.293  -7.649  1.00  0.00     0.177 C 
BRANCH  34  35
HETATM   35  C   UNL     1       9.847  -6.392  -8.478  1.00  0.00     0.072 C 
HETATM   36  C   UNL     1       9.609  -6.600  -9.980  1.00  0.00     0.157 C 
HETATM   37  O   UNL     1      10.082  -7.883 -10.425  1.00  0.00    -0.351 OA
HETATM   38  C   UNL     1      11.405  -8.252 -10.080  1.00  0.00     0.288 C 
HETATM   39  C   UNL     1      11.756  -8.044  -8.594  1.00  0.00     0.202 C 
HETATM   40  C   UNL     1      11.313  -6.654  -8.120  1.00  0.00     0.160 C 
BRANCH  36  41
HETATM   41  C   UNL     1      10.180  -5.446 -10.824  1.00  0.00     0.196 C 
BRANCH  41  42
HETATM   42  O   UNL     1      10.014  -5.708 -12.212  1.00  0.00    -0.398 OA
HETATM   43  H   UNL     1      10.349  -6.614 -12.359  1.00  0.00     0.209 HD
ENDBRANCH  41  42
ENDBRANCH  36  41
BRANCH  38  44
HETATM   44  O   UNL     1      12.355  -7.636 -10.947  1.00  0.00    -0.369 OA
HETATM   45  H   UNL     1      12.647  -6.805 -10.562  1.00  0.00     0.212 HD
ENDBRANCH  38  44
BRANCH  39  46
HETATM   46  O   UNL     1      13.156  -8.210  -8.338  1.00  0.00    -0.388 OA
HETATM   47  H   UNL     1      13.622  -8.214  -9.196  1.00  0.00     0.210 HD
ENDBRANCH  39  46
BRANCH  40  48
HETATM   48  O   UNL     1      11.494  -6.491  -6.710  1.00  0.00    -0.392 OA
HETATM   49  H   UNL     1      11.860  -7.316  -6.343  1.00  0.00     0.210 HD
ENDBRANCH  40  48
ENDBRANCH  34  35
ENDBRANCH  33  34
ENDBRANCH  32  33
ENDBRANCH   4  32
TORSDOF 22
