REMARK  5 active torsions:
REMARK  status: ('A' for Active; 'I' for Inactive)
REMARK    1  A    between atoms: C_6  and  C_12 
REMARK    2  A    between atoms: C_7  and  C_10 
REMARK    3  A    between atoms: C_8  and  O_9 
REMARK    4  A    between atoms: C_10  and  O_11 
REMARK    5  A    between atoms: C_12  and  O_13 
ROOT
HETATM    1  C   UNL     1      -1.715  -1.671  -0.197  1.00  0.00     0.071 C 
HETATM    2  C   UNL     1      -0.593  -0.677  -0.240  1.00  0.00     0.039 A 
HETATM    3  N   UNL     1       0.676  -1.131  -0.386  1.00  0.00    -0.367 N 
ATOM      4  HN  UNL     1       0.832  -2.135  -0.479  1.00  0.00     0.165 HD
HETATM    5  C   UNL     1       1.741  -0.299  -0.412  1.00  0.00     0.098 A 
HETATM    6  C   UNL     1       1.572   1.088  -0.289  1.00  0.00    -0.008 A 
HETATM    7  C   UNL     1       0.254   1.615  -0.152  1.00  0.00     0.010 A 
HETATM    8  C   UNL     1      -0.842   0.702  -0.122  1.00  0.00     0.096 A 
ENDROOT
BRANCH   6   9
HETATM    9  C   UNL     1       2.815   1.955  -0.293  1.00  0.00     0.205 C 
BRANCH   9  10
HETATM   10  O   UNL     1       2.795   2.850  -1.373  1.00  0.00    -0.396 OA
HETATM   11  H   UNL     1       3.469   2.536  -2.031  1.00  0.00     0.209 HD
ENDBRANCH   9  10
ENDBRANCH   6   9
BRANCH   7  12
HETATM   12  C   UNL     1       0.049   3.121  -0.048  1.00  0.00     0.206 C 
BRANCH  12  13
HETATM   13  O   UNL     1       0.701   3.638   1.080  1.00  0.00    -0.396 OA
HETATM   14  H   UNL     1       0.093   3.493   1.851  1.00  0.00     0.209 HD
ENDBRANCH  12  13
ENDBRANCH   7  12
BRANCH   8  15
HETATM   15  O   UNL     1      -2.130   1.092   0.027  1.00  0.00    -0.358 OA
HETATM   16  H   UNL     1      -2.443   1.993   0.155  1.00  0.00     0.217 HD
ENDBRANCH   8  15
TORSDOF 5
