REMARK  19 active torsions:
REMARK  status: ('A' for Active; 'I' for Inactive)
REMARK    1  A    between atoms: C_2  and  C_3 
REMARK    2  A    between atoms: C_3  and  C_4 
REMARK    3  A    between atoms: C_4  and  C_5 
REMARK    4  A    between atoms: C_5  and  C_6 
REMARK    5  A    between atoms: C_6  and  C_7 
REMARK    6  A    between atoms: C_7  and  C_8 
REMARK    7  A    between atoms: C_8  and  O_10 
REMARK    8  A    between atoms: O_10  and  C_11 
REMARK    9  A    between atoms: C_11  and  C_12 
REMARK   10  A    between atoms: C_17  and  O_30 
REMARK   11  A    between atoms: C_18  and  C_19 
REMARK   12  A    between atoms: C_19  and  O_20 
REMARK   13  A    between atoms: O_20  and  C_21 
REMARK   14  A    between atoms: C_21  and  C_23 
REMARK   15  A    between atoms: C_23  and  C_24 
REMARK   16  A    between atoms: C_24  and  C_25 
REMARK   17  A    between atoms: C_25  and  C_26 
REMARK   18  A    between atoms: C_26  and  C_27 
REMARK   19  A    between atoms: C_27  and  C_28 
ROOT
HETATM    1  C   UNL     1      11.290   6.872  -0.906  1.00  0.00    -0.007 A 
HETATM    2  C   UNL     1      10.418   7.948  -0.728  1.00  0.00     0.098 A 
HETATM    3  N   UNL     1      10.769   9.250  -0.807  1.00  0.00    -0.367 N 
ATOM      4  HN  UNL     1      10.085   9.994  -0.668  1.00  0.00     0.165 HD
HETATM    5  C   UNL     1      12.062   9.525  -1.077  1.00  0.00     0.039 A 
HETATM    6  C   UNL     1      13.017   8.522  -1.274  1.00  0.00     0.096 A 
HETATM    7  C   UNL     1      12.639   7.165  -1.186  1.00  0.00     0.011 A 
HETATM    8  C   UNL     1      12.426  10.979  -1.146  1.00  0.00     0.071 C 
ENDROOT
BRANCH   1   9
HETATM    9  C   UNL     1      10.749   5.471  -0.760  1.00  0.00     0.219 C 
BRANCH   9  10
HETATM   10  O   UNL     1      10.892   4.694  -1.960  1.00  0.00    -0.317 OA
BRANCH  10  11
HETATM   11  C   UNL     1       9.933   4.940  -2.894  1.00  0.00     0.259 C 
HETATM   12  O   UNL     1       9.009   5.730  -2.750  1.00  0.00    -0.265 OA
BRANCH  11  13
HETATM   13  C   UNL     1      10.155   4.104  -4.135  1.00  0.00     0.111 C 
BRANCH  13  14
HETATM   14  C   UNL     1       9.641   4.816  -5.390  1.00  0.00     0.010 C 
BRANCH  14  15
HETATM   15  C   UNL     1      10.338   6.158  -5.643  1.00  0.00     0.000 C 
BRANCH  15  16
HETATM   16  C   UNL     1       9.784   6.830  -6.902  1.00  0.00     0.000 C 
BRANCH  16  17
HETATM   17  C   UNL     1      10.464   8.173  -7.167  1.00  0.00    -0.000 C 
BRANCH  17  18
HETATM   18  C   UNL     1       9.908   8.841  -8.425  1.00  0.00    -0.005 C 
HETATM   19  C   UNL     1      10.586  10.177  -8.684  1.00  0.00     0.005 C 
ENDBRANCH  17  18
ENDBRANCH  16  17
ENDBRANCH  15  16
ENDBRANCH  14  15
ENDBRANCH  13  14
ENDBRANCH  11  13
ENDBRANCH  10  11
ENDBRANCH   9  10
ENDBRANCH   1   9
BRANCH   7  20
HETATM   20  C   UNL     1      13.648   6.057  -1.386  1.00  0.00     0.221 C 
BRANCH  20  21
HETATM   21  O   UNL     1      13.748   5.181  -0.254  1.00  0.00    -0.317 OA
BRANCH  21  22
HETATM   22  C   UNL     1      14.539   5.651   0.759  1.00  0.00     0.259 C 
HETATM   23  O   UNL     1      15.132   6.704   0.756  1.00  0.00    -0.265 OA
BRANCH  22  24
HETATM   24  C   UNL     1      14.553   4.643   1.896  1.00  0.00     0.111 C 
BRANCH  24  25
HETATM   25  C   UNL     1      14.741   5.337   3.241  1.00  0.00     0.010 C 
BRANCH  25  26
HETATM   26  C   UNL     1      13.625   6.335   3.555  1.00  0.00     0.000 C 
BRANCH  26  27
HETATM   27  C   UNL     1      13.876   6.997   4.909  1.00  0.00     0.000 C 
BRANCH  27  28
HETATM   28  C   UNL     1      12.780   8.002   5.252  1.00  0.00    -0.000 C 
BRANCH  28  29
HETATM   29  C   UNL     1      13.039   8.658   6.607  1.00  0.00    -0.005 C 
HETATM   30  C   UNL     1      11.946   9.658   6.947  1.00  0.00     0.005 C 
ENDBRANCH  28  29
ENDBRANCH  27  28
ENDBRANCH  26  27
ENDBRANCH  25  26
ENDBRANCH  24  25
ENDBRANCH  22  24
ENDBRANCH  21  22
ENDBRANCH  20  21
ENDBRANCH   7  20
BRANCH   6  31
HETATM   31  O   UNL     1      14.321   8.848  -1.551  1.00  0.00    -0.358 OA
HETATM   32  H   UNL     1      14.421   9.816  -1.588  1.00  0.00     0.217 HD
ENDBRANCH   6  31
TORSDOF 19
