REMARK  5 active torsions:
REMARK  status: ('A' for Active; 'I' for Inactive)
REMARK    1  A    between atoms: C_6  and  C_12 
REMARK    2  A    between atoms: C_7  and  C_10 
REMARK    3  A    between atoms: C_8  and  O_9 
REMARK    4  A    between atoms: C_10  and  O_11 
REMARK    5  A    between atoms: C_12  and  O_13 
ROOT
HETATM    1  C   UNL     1      -1.514  -1.848   0.008  1.00  0.00     0.071 C 
HETATM    2  C   UNL     1      -0.401  -0.842   0.007  1.00  0.00     0.039 A 
HETATM    3  N   UNL     1       0.861  -1.327  -0.036  1.00  0.00    -0.367 N 
ATOM      4  HN  UNL     1       1.046  -2.329  -0.073  1.00  0.00     0.165 HD
HETATM    5  C   UNL     1       1.864  -0.424  -0.028  1.00  0.00     0.098 A 
HETATM    6  C   UNL     1       1.693   0.964  -0.009  1.00  0.00    -0.008 A 
HETATM    7  C   UNL     1       0.372   1.467   0.023  1.00  0.00     0.010 A 
HETATM    8  C   UNL     1      -0.673   0.527   0.055  1.00  0.00     0.096 A 
ENDROOT
BRANCH   6   9
HETATM    9  C   UNL     1       2.949   1.801   0.068  1.00  0.00     0.205 C 
BRANCH   9  10
HETATM   10  O   UNL     1       2.833   3.030  -0.629  1.00  0.00    -0.396 OA
HETATM   11  H   UNL     1       3.305   2.927  -1.474  1.00  0.00     0.209 HD
ENDBRANCH   9  10
ENDBRANCH   6   9
BRANCH   7  12
HETATM   12  C   UNL     1       0.120   2.958   0.022  1.00  0.00     0.206 C 
BRANCH  12  13
HETATM   13  O   UNL     1      -1.279   3.268   0.022  1.00  0.00    -0.396 OA
HETATM   14  H   UNL     1      -1.471   3.619  -0.869  1.00  0.00     0.209 HD
ENDBRANCH  12  13
ENDBRANCH   7  12
BRANCH   8  15
HETATM   15  O   UNL     1      -1.991   0.903   0.148  1.00  0.00    -0.358 OA
HETATM   16  H   UNL     1      -1.997   1.869   0.325  1.00  0.00     0.217 HD
ENDBRANCH   8  15
TORSDOF 5
