REMARK  2 active torsions:
REMARK  status: ('A' for Active; 'I' for Inactive)
REMARK    1  A    between atoms: C_2  and  C_4 
REMARK    2  A    between atoms: C_4  and  O_6 
ROOT
HETATM    1  C   UNL     1       3.338   1.020  -0.934  1.00  0.00     0.213 C 
HETATM    2  O   UNL     1       2.725   1.824  -1.605  1.00  0.00    -0.644 OA
ENDROOT
BRANCH   1   3
HETATM    3  C   UNL     1       2.663  -0.030  -0.058  1.00  0.00     0.218 C 
HETATM    4  C   UNL     1       1.166  -0.042  -0.049  1.00  0.00     0.103 C 
HETATM    5  O   UNL     1       3.385  -0.792   0.577  1.00  0.00    -0.286 OA
ENDBRANCH   1   3
BRANCH   1   6
HETATM    6  O   UNL     1       4.678   0.917  -0.846  1.00  0.00    -0.771 OA
HETATM    7  H   UNL     1       4.905   0.180  -0.230  1.00  0.00     0.168 HD
ENDBRANCH   1   6
TORSDOF 2
