REMARK  3 active torsions:
REMARK  status: ('A' for Active; 'I' for Inactive)
REMARK    1  A    between atoms: C_3  and  C_21 
REMARK    2  A    between atoms: C_22  and  C_31 
REMARK    3  A    between atoms: C_31  and  O_33 
ROOT
HETATM    1 NA   UNL     3       3.468   0.356   2.563  1.00  0.00     0.000 Na
ENDROOT
TORSDOF 3
