REMARK  6 active torsions:
REMARK  status: ('A' for Active; 'I' for Inactive)
REMARK    1  A    between atoms: C_4  and  S_26 
REMARK    2  A    between atoms: C_5  and  N_8 
REMARK    3  A    between atoms: N_10  and  C_12 
REMARK    4  A    between atoms: C_14  and  C_22 
REMARK    5  A    between atoms: C_22  and  O_24 
REMARK    6  A    between atoms: S_26  and  O_27 
ROOT
HETATM    1  N   UNL     1      -3.341   0.397   0.389  1.00  0.00    -0.299 N 
ATOM      2  HN  UNL     1      -3.850   0.095   1.220  1.00  0.00     0.187 HD
HETATM    3  N   UNL     1      -3.922   0.860  -0.622  1.00  0.00    -0.296 N 
ATOM      4  HN  UNL     1      -3.442   1.186  -1.461  1.00  0.00     0.187 HD
ENDROOT
BRANCH   3   5
HETATM    5  C   UNL     1      -5.347   0.874  -0.451  1.00  0.00     0.110 C 
HETATM    6  C   UNL     1      -6.046  -0.374  -0.488  1.00  0.00     0.217 C 
HETATM    7  C   UNL     1      -7.412  -0.290  -0.065  1.00  0.00     0.090 C 
HETATM    8  O   UNL     1      -5.475  -1.455  -0.889  1.00  0.00    -0.285 OA
HETATM    9  C   UNL     1      -8.035   0.928   0.249  1.00  0.00     0.034 C 
HETATM   10  C   UNL     1      -7.364   2.143   0.102  1.00  0.00    -0.022 A 
HETATM   11  C   UNL     1      -8.028   3.351   0.384  1.00  0.00     0.012 A 
HETATM   12  C   UNL     1      -6.025   2.134  -0.316  1.00  0.00     0.006 A 
HETATM   13  C   UNL     1      -7.399   4.577   0.184  1.00  0.00     0.001 A 
HETATM   14  C   UNL     1      -6.118   4.601  -0.340  1.00  0.00     0.001 A 
HETATM   15  C   UNL     1      -5.446   3.399  -0.584  1.00  0.00     0.015 A 
BRANCH   7  16
HETATM   16  C   UNL     1      -8.328  -1.492   0.107  1.00  0.00     0.180 C 
HETATM   17  O   UNL     1      -9.527  -1.404   0.341  1.00  0.00    -0.646 OA
BRANCH  16  18
HETATM   18  O   UNL     1      -7.689  -2.674   0.010  1.00  0.00    -0.773 OA
HETATM   19  H   UNL     1      -6.741  -2.493  -0.246  1.00  0.00     0.167 HD
ENDBRANCH  16  18
ENDBRANCH   7  16
ENDBRANCH   3   5
BRANCH   1  20
HETATM   20  C   UNL     1      -1.927   0.322   0.297  1.00  0.00     0.072 A 
HETATM   21  C   UNL     1      -1.051   1.423   0.355  1.00  0.00     0.117 A 
HETATM   22  C   UNL     1       0.342   1.271   0.392  1.00  0.00     0.035 A 
HETATM   23  C   UNL     1       0.921   0.011   0.275  1.00  0.00    -0.060 A 
HETATM   24  C   UNL     1       2.417  -0.119   0.244  1.00  0.00     0.048 C 
HETATM   25  C   UNL     1       0.077  -1.100   0.167  1.00  0.00     0.009 A 
HETATM   26  C   UNL     1      -1.324  -0.944   0.198  1.00  0.00     0.033 A 
BRANCH  21  27
HETATM   27  S   UNL     1      -1.658   3.060  -0.055  1.00  0.00     0.327 S 
HETATM   28  O   UNL     1      -2.761   3.276   0.841  1.00  0.00    -0.191 OA
HETATM   29  O   UNL     1      -0.505   3.937   0.080  1.00  0.00    -0.191 OA
BRANCH  27  30
HETATM   30  O   UNL     1      -2.026   2.776  -1.469  1.00  0.00    -0.086 OA
HETATM   31 CA   UNL     2      -2.782   1.201  -2.673  1.00  0.00     0.000 Ca
ENDBRANCH  27  30
ENDBRANCH  21  27
ENDBRANCH   1  20
TORSDOF 6
