REMARK  4 active torsions:
REMARK  status: ('A' for Active; 'I' for Inactive)
REMARK    1  A    between atoms: C_4  and  C_27 
REMARK    2  A    between atoms: C_5  and  C_7 
REMARK    3  A    between atoms: C_18  and  O_23 
REMARK    4  A    between atoms: C_27  and  O_29 
ROOT
HETATM    1  C   UNL     1      -2.158   1.395   1.747  1.00  0.00     0.001 C 
HETATM    2  C   UNL     1      -2.557   0.938   2.974  1.00  0.00     0.013 C 
HETATM    3  C   UNL     1      -3.293  -0.307   3.198  1.00  0.00     0.038 C 
HETATM    4  C   UNL     1      -3.695  -0.629   4.439  1.00  0.00     0.063 C 
HETATM    5  C   UNL     1      -3.233   0.191   5.622  1.00  0.00     0.209 C 
HETATM    6  O   UNL     1      -3.363  -0.218   6.766  1.00  0.00    -0.285 OA
HETATM    7  C   UNL     1      -2.785   1.592   5.322  1.00  0.00     0.097 C 
HETATM    8  C   UNL     1      -2.810   1.930   4.029  1.00  0.00     0.108 C 
HETATM    9  O   UNL     1      -3.495   3.068   3.640  1.00  0.00    -0.306 OA
HETATM   10  C   UNL     1      -3.919   3.048   2.339  1.00  0.00     0.107 C 
HETATM   11  C   UNL     1      -5.246   3.267   1.985  1.00  0.00     0.080 C 
HETATM   12  C   UNL     1      -5.567   3.425   0.639  1.00  0.00     0.103 C 
HETATM   13  C   UNL     1      -4.538   3.458  -0.304  1.00  0.00     0.046 C 
HETATM   14  C   UNL     1      -3.267   2.998   0.049  1.00  0.00     0.037 C 
HETATM   15  C   UNL     1      -3.011   2.619   1.369  1.00  0.00     0.013 C 
HETATM   16 BR   UNL     1      -4.850   3.983  -2.096  1.00  0.00    -0.048 Br
HETATM   17 BR   UNL     1      -6.618   3.076   3.286  1.00  0.00    -0.045 Br
HETATM   18 BR   UNL     1      -2.729   2.828   6.718  1.00  0.00    -0.044 Br
HETATM   19 BR   UNL     1      -5.034  -1.901   4.729  1.00  0.00    -0.047 Br
ENDROOT
BRANCH   1  20
HETATM   20  C   UNL     1      -1.440   0.588   0.691  1.00  0.00    -0.007 C 
HETATM   21  C   UNL     1      -0.491   1.181  -0.180  1.00  0.00     0.048 C 
HETATM   22  C   UNL     1      -0.136   0.552  -1.393  1.00  0.00     0.019 C 
HETATM   23  C   UNL     1      -0.543  -0.748  -1.657  1.00  0.00     0.001 C 
HETATM   24  C   UNL     1      -1.273  -1.430  -0.699  1.00  0.00     0.001 C 
HETATM   25  C   UNL     1      -1.723  -0.767   0.449  1.00  0.00     0.013 C 
BRANCH  21  26
HETATM   26  C   UNL     1       0.241   2.437   0.165  1.00  0.00     0.177 C 
HETATM   27  O   UNL     1      -0.244   3.412   0.714  1.00  0.00    -0.646 OA
BRANCH  26  28
HETATM   28  O   UNL     1       1.555   2.362  -0.142  1.00  0.00    -0.773 OA
HETATM   29  H   UNL     1       1.878   1.480  -0.409  1.00  0.00     0.167 HD
ENDBRANCH  26  28
ENDBRANCH  21  26
ENDBRANCH   1  20
BRANCH  12  30
HETATM   30  O   UNL     1      -6.867   3.484   0.215  1.00  0.00    -0.358 OA
HETATM   31  H   UNL     1      -7.431   3.123   0.924  1.00  0.00     0.217 HD
ENDBRANCH  12  30
TORSDOF 4
