REMARK  5 active torsions:
REMARK  status: ('A' for Active; 'I' for Inactive)
REMARK    1  A    between atoms: C_4  and  N_7 
REMARK    2  A    between atoms: N_9  and  C_11 
REMARK    3  A    between atoms: C_14  and  N_17 
REMARK    4  A    between atoms: N_19  and  C_21 
REMARK    5  A    between atoms: C_22  and  O_31 
ROOT
HETATM    1  C   UNL     1      -5.121  -0.194  -0.611  1.00  0.00     0.048 A 
HETATM    2  C   UNL     1      -5.538   0.769  -1.535  1.00  0.00     0.033 A 
HETATM    3  C   UNL     1      -6.904   0.960  -1.832  1.00  0.00     0.033 A 
HETATM    4  C   UNL     1      -7.904   0.201  -1.220  1.00  0.00     0.048 A 
HETATM    5  C   UNL     1      -7.487  -0.757  -0.289  1.00  0.00     0.033 A 
HETATM    6  C   UNL     1      -6.121  -0.957   0.001  1.00  0.00     0.033 A 
ENDROOT
BRANCH   4   7
HETATM    7  N   UNL     1      -9.291   0.307  -1.492  1.00  0.00    -0.300 N 
HETATM    8  N   UNL     1      -9.673   1.444  -1.870  1.00  0.00    -0.297 N 
ATOM      9  HN  UNL     1      -9.054   2.211  -2.131  1.00  0.00     0.187 HD
ATOM     10  HN  UNL     1      -9.931  -0.480  -1.389  1.00  0.00     0.187 HD
BRANCH   8  11
HETATM   11  C   UNL     1     -11.100   1.505  -1.881  1.00  0.00     0.092 C 
HETATM   12  C   UNL     1     -11.785   1.824  -3.069  1.00  0.00     0.094 C 
HETATM   13  C   UNL     1     -13.184   1.895  -3.122  1.00  0.00     0.040 C 
HETATM   14  C   UNL     1     -13.922   1.488  -2.016  1.00  0.00     0.015 C 
HETATM   15  C   UNL     1     -13.275   1.159  -0.817  1.00  0.00    -0.024 C 
HETATM   16  C   UNL     1     -14.017   0.743   0.288  1.00  0.00     0.012 C 
HETATM   17  C   UNL     1     -11.870   1.323  -0.698  1.00  0.00     0.005 C 
HETATM   18  C   UNL     1     -13.500   0.904   1.567  1.00  0.00     0.001 C 
HETATM   19  C   UNL     1     -12.165   1.245   1.727  1.00  0.00     0.001 C 
HETATM   20  C   UNL     1     -11.338   1.336   0.607  1.00  0.00     0.014 C 
BRANCH  12  21
HETATM   21  O   UNL     1     -11.129   2.113  -4.228  1.00  0.00    -0.358 OA
HETATM   22  H   UNL     1     -10.190   1.929  -4.066  1.00  0.00     0.217 HD
ENDBRANCH  12  21
ENDBRANCH   8  11
ENDBRANCH   4   7
BRANCH   1  23
HETATM   23  N   UNL     1      -3.766  -0.494  -0.320  1.00  0.00    -0.300 N 
HETATM   24  N   UNL     1      -3.000   0.490  -0.439  1.00  0.00    -0.300 N 
ATOM     25  HN  UNL     1      -3.330   1.432  -0.651  1.00  0.00     0.187 HD
ATOM     26  HN  UNL     1      -3.446  -1.421  -0.041  1.00  0.00     0.187 HD
BRANCH  24  27
HETATM   27  C   UNL     1      -1.626   0.170  -0.251  1.00  0.00     0.048 A 
HETATM   28  C   UNL     1      -1.063  -1.078  -0.565  1.00  0.00     0.031 A 
HETATM   29  C   UNL     1       0.308  -1.299  -0.403  1.00  0.00     0.002 A 
HETATM   30  C   UNL     1       1.150  -0.286   0.045  1.00  0.00     0.000 A 
HETATM   31  C   UNL     1       0.601   0.955   0.366  1.00  0.00     0.002 A 
HETATM   32  C   UNL     1      -0.773   1.174   0.218  1.00  0.00     0.031 A 
ENDBRANCH  24  27
ENDBRANCH   1  23
TORSDOF 5
