REMARK  6 active torsions:
REMARK  status: ('A' for Active; 'I' for Inactive)
REMARK    1  A    between atoms: C_3  and  C_10 
REMARK    2  A    between atoms: C_11  and  C_12 
REMARK    3  A    between atoms: C_13  and  C_14 
REMARK    4  A    between atoms: C_15  and  C_16 
REMARK    5  A    between atoms: C_17  and  C_18 
REMARK    6  A    between atoms: C_18  and  O_20 
ROOT
HETATM    1  C   UNL     1       1.126  -4.687   0.907  1.00  0.00    -0.062 C 
HETATM    2  C   UNL     1       0.885  -5.424   2.017  1.00  0.00     0.007 C 
HETATM    3  C   UNL     1       1.363  -5.404  -0.402  1.00  0.00     0.048 C 
ENDROOT
BRANCH   1   4
HETATM    4  C   UNL     1       1.228  -3.218   0.881  1.00  0.00     0.007 C 
HETATM    5  C   UNL     1       0.493  -2.412   0.087  1.00  0.00     0.009 C 
BRANCH   5   6
HETATM    6  C   UNL     1       0.561  -0.938  -0.002  1.00  0.00    -0.048 C 
HETATM    7  C   UNL     1       1.680  -0.281  -0.400  1.00  0.00    -0.077 C 
HETATM    8  C   UNL     1       2.966  -0.937  -0.839  1.00  0.00     0.044 C 
HETATM    9  C   UNL     1       1.758   1.232  -0.526  1.00  0.00     0.034 C 
HETATM   10  C   UNL     1       0.587   2.004   0.062  1.00  0.00     0.005 C 
HETATM   11  C   UNL     1      -0.713   1.297  -0.269  1.00  0.00     0.014 C 
HETATM   12  C   UNL     1      -0.756  -0.160   0.281  1.00  0.00    -0.020 C 
HETATM   13  C   UNL     1      -1.983  -0.808  -0.401  1.00  0.00     0.020 C 
HETATM   14  C   UNL     1      -0.994  -0.096   1.805  1.00  0.00     0.020 C 
ENDBRANCH   5   6
ENDBRANCH   1   4
BRANCH   2  15
HETATM   15  C   UNL     1       0.647  -4.886   3.343  1.00  0.00     0.001 C 
HETATM   16  C   UNL     1       0.356  -5.562   4.472  1.00  0.00     0.007 C 
BRANCH  16  17
HETATM   17  C   UNL     1       0.096  -4.923   5.770  1.00  0.00    -0.056 C 
HETATM   18  C   UNL     1      -0.179  -5.548   6.937  1.00  0.00     0.087 C 
HETATM   19  C   UNL     1       0.106  -3.411   5.878  1.00  0.00     0.048 C 
BRANCH  18  20
HETATM   20  C   UNL     1      -0.304  -6.971   7.287  1.00  0.00     0.165 C 
HETATM   21  O   UNL     1      -0.202  -7.947   6.578  1.00  0.00    -0.647 OA
BRANCH  20  22
HETATM   22  O   UNL     1      -0.565  -7.062   8.610  1.00  0.00    -0.773 OA
HETATM   23  H   UNL     1      -0.644  -8.018   8.794  1.00  0.00     0.167 HD
ENDBRANCH  20  22
ENDBRANCH  18  20
ENDBRANCH  16  17
ENDBRANCH   2  15
TORSDOF 6
