REMARK  7 active torsions:
REMARK  status: ('A' for Active; 'I' for Inactive)
REMARK    1  A    between atoms: C_3  and  C_10 
REMARK    2  A    between atoms: C_11  and  C_12 
REMARK    3  A    between atoms: C_13  and  C_14 
REMARK    4  A    between atoms: C_15  and  C_16 
REMARK    5  A    between atoms: C_17  and  C_18 
REMARK    6  A    between atoms: C_18  and  O_19 
REMARK    7  A    between atoms: O_19  and  C_20 
ROOT
HETATM    1  C   UNL     1       1.060  -4.853   0.888  1.00  0.00    -0.062 C 
HETATM    2  C   UNL     1      -0.160  -5.350   1.194  1.00  0.00     0.007 C 
HETATM    3  C   UNL     1       2.229  -5.767   0.625  1.00  0.00     0.048 C 
ENDROOT
BRANCH   1   4
HETATM    4  C   UNL     1       1.362  -3.433   0.772  1.00  0.00     0.007 C 
HETATM    5  C   UNL     1       0.869  -2.659  -0.210  1.00  0.00     0.009 C 
BRANCH   5   6
HETATM    6  C   UNL     1       0.982  -1.199  -0.246  1.00  0.00    -0.048 C 
HETATM    7  C   UNL     1       2.143  -0.531  -0.436  1.00  0.00    -0.077 C 
HETATM    8  C   UNL     1       3.473  -1.180  -0.721  1.00  0.00     0.044 C 
HETATM    9  C   UNL     1       2.231   0.985  -0.390  1.00  0.00     0.034 C 
HETATM   10  C   UNL     1       0.987   1.709   0.113  1.00  0.00     0.005 C 
HETATM   11  C   UNL     1      -0.273   1.032  -0.388  1.00  0.00     0.014 C 
HETATM   12  C   UNL     1      -0.343  -0.461   0.018  1.00  0.00    -0.020 C 
HETATM   13  C   UNL     1      -1.515  -1.043  -0.798  1.00  0.00     0.020 C 
HETATM   14  C   UNL     1      -0.635  -0.581   1.531  1.00  0.00     0.020 C 
ENDBRANCH   5   6
ENDBRANCH   1   4
BRANCH   2  15
HETATM   15  C   UNL     1      -1.334  -4.584   1.586  1.00  0.00     0.001 C 
HETATM   16  C   UNL     1      -2.549  -4.757   1.038  1.00  0.00     0.006 C 
BRANCH  16  17
HETATM   17  C   UNL     1      -3.720  -3.934   1.307  1.00  0.00    -0.064 C 
HETATM   18  C   UNL     1      -4.465  -3.923   2.429  1.00  0.00     0.006 C 
HETATM   19  C   UNL     1      -4.167  -3.060   0.163  1.00  0.00     0.048 C 
BRANCH  18  20
HETATM   20  C   UNL     1      -4.356  -4.744   3.672  1.00  0.00     0.206 C 
BRANCH  20  21
HETATM   21  O   UNL     1      -5.658  -5.314   3.908  1.00  0.00    -0.318 OA
BRANCH  21  22
HETATM   22  C   UNL     1      -5.705  -6.649   4.167  1.00  0.00     0.255 C 
HETATM   23  O   UNL     1      -4.747  -7.403   4.200  1.00  0.00    -0.266 OA
HETATM   24  C   UNL     1      -7.120  -7.079   4.422  1.00  0.00     0.126 C 
ENDBRANCH  21  22
ENDBRANCH  20  21
ENDBRANCH  18  20
ENDBRANCH  16  17
ENDBRANCH   2  15
TORSDOF 7
