REMARK  21 active torsions:
REMARK  status: ('A' for Active; 'I' for Inactive)
REMARK    1  A    between atoms: C_2  and  C_3 
REMARK    2  A    between atoms: C_3  and  C_4 
REMARK    3  A    between atoms: C_4  and  C_5 
REMARK    4  A    between atoms: C_5  and  C_6 
REMARK    5  A    between atoms: C_6  and  C_7 
REMARK    6  A    between atoms: C_7  and  C_8 
REMARK    7  A    between atoms: C_8  and  C_9 
REMARK    8  A    between atoms: C_9  and  C_10 
REMARK    9  A    between atoms: C_10  and  C_11 
REMARK   10  A    between atoms: C_11  and  C_12 
REMARK   11  A    between atoms: C_12  and  C_13 
REMARK   12  A    between atoms: C_13  and  C_14 
REMARK   13  A    between atoms: C_14  and  C_15 
REMARK   14  A    between atoms: C_15  and  C_16 
REMARK   15  A    between atoms: C_16  and  O_18 
REMARK   16  A    between atoms: O_18  and  C_19 
REMARK   17  A    between atoms: C_19  and  C_20 
REMARK   18  A    between atoms: C_21  and  C_23 
REMARK   19  A    between atoms: C_24  and  C_25 
REMARK   20  A    between atoms: C_26  and  C_28 
REMARK   21  A    between atoms: C_29  and  C_30 
ROOT
HETATM    1  C   UNL     1      18.746  -5.434  -9.811  1.00  0.00     0.206 C 
ENDROOT
BRANCH   1   2
HETATM    2  O   UNL     1      17.311  -5.445  -9.780  1.00  0.00    -0.318 OA
BRANCH   2   3
HETATM    3  C   UNL     1      16.766  -4.800  -8.710  1.00  0.00     0.259 C 
HETATM    4  O   UNL     1      17.396  -4.287  -7.787  1.00  0.00    -0.265 OA
BRANCH   3   5
HETATM    5  C   UNL     1      15.269  -4.844  -8.743  1.00  0.00     0.111 C 
BRANCH   5   6
HETATM    6  C   UNL     1      14.761  -6.097  -8.057  1.00  0.00     0.010 C 
BRANCH   6   7
HETATM    7  C   UNL     1      13.237  -6.164  -8.069  1.00  0.00     0.000 C 
BRANCH   7   8
HETATM    8  C   UNL     1      12.759  -7.436  -7.380  1.00  0.00     0.000 C 
BRANCH   8   9
HETATM    9  C   UNL     1      11.239  -7.519  -7.385  1.00  0.00     0.000 C 
BRANCH   9  10
HETATM   10  C   UNL     1      10.771  -8.792  -6.693  1.00  0.00     0.000 C 
BRANCH  10  11
HETATM   11  C   UNL     1       9.252  -8.872  -6.702  1.00  0.00     0.000 C 
BRANCH  11  12
HETATM   12  C   UNL     1       8.782 -10.143  -6.011  1.00  0.00     0.000 C 
BRANCH  12  13
HETATM   13  C   UNL     1       7.262 -10.221  -6.023  1.00  0.00     0.000 C 
BRANCH  13  14
HETATM   14  C   UNL     1       6.791 -11.492  -5.334  1.00  0.00     0.000 C 
BRANCH  14  15
HETATM   15  C   UNL     1       5.271 -11.570  -5.347  1.00  0.00     0.000 C 
BRANCH  15  16
HETATM   16  C   UNL     1       4.796 -12.842  -4.657  1.00  0.00     0.000 C 
BRANCH  16  17
HETATM   17  C   UNL     1       3.274 -12.920  -4.669  1.00  0.00    -0.000 C 
BRANCH  17  18
HETATM   18  C   UNL     1       2.788 -14.189  -3.980  1.00  0.00    -0.005 C 
HETATM   19  C   UNL     1       1.270 -14.266  -3.994  1.00  0.00     0.005 C 
ENDBRANCH  17  18
ENDBRANCH  16  17
ENDBRANCH  15  16
ENDBRANCH  14  15
ENDBRANCH  13  14
ENDBRANCH  12  13
ENDBRANCH  11  12
ENDBRANCH  10  11
ENDBRANCH   9  10
ENDBRANCH   8   9
ENDBRANCH   7   8
ENDBRANCH   6   7
ENDBRANCH   5   6
ENDBRANCH   3   5
ENDBRANCH   2   3
ENDBRANCH   1   2
BRANCH   1  20
HETATM   20  C   UNL     1      19.322  -6.835  -9.854  1.00  0.00     0.006 C 
HETATM   21  C   UNL     1      20.651  -7.090  -9.855  1.00  0.00    -0.064 C 
HETATM   22  C   UNL     1      21.662  -5.961  -9.839  1.00  0.00     0.048 C 
BRANCH  21  23
HETATM   23  C   UNL     1      21.168  -8.472  -9.852  1.00  0.00     0.006 C 
HETATM   24  C   UNL     1      22.486  -8.775  -9.858  1.00  0.00     0.001 C 
BRANCH  24  25
HETATM   25  C   UNL     1      23.089 -10.097  -9.824  1.00  0.00     0.007 C 
HETATM   26  C   UNL     1      24.422 -10.342  -9.832  1.00  0.00    -0.062 C 
HETATM   27  C   UNL     1      25.490  -9.273  -9.923  1.00  0.00     0.048 C 
BRANCH  26  28
HETATM   28  C   UNL     1      24.900 -11.732  -9.802  1.00  0.00     0.007 C 
HETATM   29  C   UNL     1      26.191 -12.116  -9.804  1.00  0.00     0.009 C 
BRANCH  29  30
HETATM   30  C   UNL     1      26.672 -13.496  -9.922  1.00  0.00    -0.048 C 
HETATM   31  C   UNL     1      26.377 -14.249 -11.013  1.00  0.00    -0.077 C 
HETATM   32  C   UNL     1      26.839 -15.685 -11.167  1.00  0.00     0.034 C 
HETATM   33  C   UNL     1      25.622 -13.778 -12.236  1.00  0.00     0.044 C 
HETATM   34  C   UNL     1      27.421 -16.304  -9.907  1.00  0.00     0.005 C 
HETATM   35  C   UNL     1      28.353 -15.316  -9.230  1.00  0.00     0.014 C 
HETATM   36  C   UNL     1      27.621 -14.010  -8.802  1.00  0.00    -0.020 C 
HETATM   37  C   UNL     1      28.745 -13.001  -8.450  1.00  0.00     0.020 C 
HETATM   38  C   UNL     1      26.814 -14.292  -7.516  1.00  0.00     0.020 C 
ENDBRANCH  29  30
ENDBRANCH  26  28
ENDBRANCH  24  25
ENDBRANCH  21  23
ENDBRANCH   1  20
TORSDOF 21
