REMARK  3 active torsions:
REMARK  status: ('A' for Active; 'I' for Inactive)
REMARK    1  A    between atoms: C_4  and  O_10 
REMARK    2  A    between atoms: C_5  and  C_7 
REMARK    3  A    between atoms: C_7  and  O_9 
ROOT
HETATM    1  C   UNL     1      -1.843   0.060  -0.008  1.00  0.00     0.001 A 
HETATM    2  C   UNL     1      -1.178  -1.164  -0.006  1.00  0.00     0.003 A 
HETATM    3  C   UNL     1       0.217  -1.202   0.006  1.00  0.00     0.037 A 
HETATM    4  C   UNL     1       0.945  -0.009   0.016  1.00  0.00     0.082 A 
HETATM    5  C   UNL     1       0.290   1.231   0.020  1.00  0.00     0.070 A 
HETATM    6  C   UNL     1      -1.114   1.251   0.006  1.00  0.00     0.021 A 
ENDROOT
BRANCH   5   7
HETATM    7  C   UNL     1       0.991   2.549   0.040  1.00  0.00     0.178 C 
HETATM    8  O   UNL     1       0.388   3.612   0.042  1.00  0.00    -0.646 OA
BRANCH   7   9
HETATM    9  O   UNL     1       2.338   2.488   0.057  1.00  0.00    -0.773 OA
HETATM   10  H   UNL     1       2.668   1.562   0.051  1.00  0.00     0.167 HD
ENDBRANCH   7   9
ENDBRANCH   5   7
BRANCH   4  11
HETATM   11  O   UNL     1       2.316  -0.064   0.020  1.00  0.00    -0.360 OA
HETATM   12  H   UNL     1       2.589  -1.001  -0.014  1.00  0.00     0.217 HD
ENDBRANCH   4  11
TORSDOF 3
