REMARK  13 active torsions:
REMARK  status: ('A' for Active; 'I' for Inactive)
REMARK    1  A    between atoms: C_1  and  C_2 
REMARK    2  A    between atoms: C_1  and  O_12 
REMARK    3  A    between atoms: C_2  and  C_3 
REMARK    4  A    between atoms: C_2  and  O_11 
REMARK    5  A    between atoms: C_3  and  C_4 
REMARK    6  A    between atoms: C_3  and  O_10 
REMARK    7  A    between atoms: C_4  and  C_5 
REMARK    8  A    between atoms: C_4  and  O_9 
REMARK    9  A    between atoms: C_5  and  C_6 
REMARK   10  A    between atoms: C_5  and  O_8 
REMARK   11  A    between atoms: O_12  and  P_13 
REMARK   12  A    between atoms: P_13  and  O_15 
REMARK   13  A    between atoms: P_13  and  O_16 
ROOT
HETATM    1  C   UNL     1       0.413  -1.427   0.802  1.00  0.00     0.173 C 
ENDROOT
BRANCH   1   2
HETATM    2  C   UNL     1       0.939  -0.271  -0.049  1.00  0.00     0.213 C 
BRANCH   2   3
HETATM    3  O   UNL     1       2.360  -0.172  -0.167  1.00  0.00    -0.308 OA
BRANCH   3   4
HETATM    4  P   UNL     1       2.964   1.165  -1.084  1.00  0.00     0.349 P 
HETATM    5  O   UNL     1       1.712   1.294  -1.965  1.00  0.00    -0.645 OA
BRANCH   4   6
HETATM    6  O   UNL     1       2.579   2.216   0.126  1.00  0.00     0.000 OA
HETATM    7  H   UNL     1       3.353   2.318   0.726  1.00  0.00     0.000 HD
HETATM    8 NA   UNL     2       0.546   3.006  -0.739  1.00  0.00     0.000 Na
ENDBRANCH   4   6
BRANCH   4   9
HETATM    9  O   UNL     1       3.568   2.502  -2.000  1.00  0.00    -0.321 OA
HETATM   10  H   UNL     1       3.271   2.366  -2.925  1.00  0.00     0.220 HD
ENDBRANCH   4   9
ENDBRANCH   3   4
ENDBRANCH   2   3
ENDBRANCH   1   2
BRANCH   1  11
HETATM   11  C   UNL     1       0.920  -1.394   2.261  1.00  0.00     0.180 C 
BRANCH  11  12
HETATM   12  C   UNL     1       0.382  -2.593   3.083  1.00  0.00     0.184 C 
BRANCH  12  13
HETATM   13  C   UNL     1       0.877  -2.599   4.540  1.00  0.00     0.210 C 
BRANCH  13  14
HETATM   14  C   UNL     1       0.424  -1.363   5.297  1.00  0.00     0.265 C 
HETATM   15  O   UNL     1      -0.571  -0.707   4.971  1.00  0.00    -0.304 OA
ENDBRANCH  13  14
BRANCH  13  16
HETATM   16  O   UNL     1       0.381  -3.746   5.221  1.00  0.00    -0.386 OA
HETATM   17  H   UNL     1      -0.558  -3.848   4.968  1.00  0.00     0.210 HD
ENDBRANCH  13  16
ENDBRANCH  12  13
BRANCH  12  18
HETATM   18  O   UNL     1      -1.060  -2.651   3.042  1.00  0.00    -0.390 OA
HETATM   19  H   UNL     1      -1.397  -1.973   3.673  1.00  0.00     0.210 HD
ENDBRANCH  12  18
ENDBRANCH  11  12
BRANCH  11  20
HETATM   20  O   UNL     1       2.345  -1.372   2.334  1.00  0.00    -0.390 OA
HETATM   21  H   UNL     1       2.693  -2.000   1.673  1.00  0.00     0.210 HD
ENDBRANCH  11  20
ENDBRANCH   1  11
BRANCH   1  22
HETATM   22  O   UNL     1      -1.015  -1.315   0.752  1.00  0.00    -0.391 OA
HETATM   23  H   UNL     1      -1.387  -1.970   1.384  1.00  0.00     0.210 HD
ENDBRANCH   1  22
TORSDOF 13
