REMARK  2 active torsions:
REMARK  status: ('A' for Active; 'I' for Inactive)
REMARK    1  A    between atoms: C_1  and  O_3 
REMARK    2  A    between atoms: C_1  and  O_4 
ROOT
HETATM    1  C   UNL     1       1.067  -0.431  -0.213  1.00  0.00     0.329 C 
HETATM    2  O   UNL     1      -0.040  -0.160   0.334  1.00  0.00    -0.624 OA
ENDROOT
BRANCH   1   3
HETATM    3  O   UNL     1       1.233  -1.671  -0.592  1.00  0.00    -0.753 OA
HETATM    4  H   UNL     1       0.377  -2.034  -0.293  1.00  0.00     0.170 HD
ENDBRANCH   1   3
BRANCH   1   5
HETATM    5  O   UNL     1       1.922   0.459  -0.463  1.00  0.00    -0.121 OA
HETATM    6 NA   UNL     2       0.517   1.954   0.162  1.00  0.00     0.000 Na
ENDBRANCH   1   5
TORSDOF 2
