REMARK  13 active torsions:
REMARK  status: ('A' for Active; 'I' for Inactive)
REMARK       I    between atoms: C_2  and  N_4 
REMARK    1  A    between atoms: N_4  and  C_5 
REMARK    2  A    between atoms: C_6  and  O_18 
REMARK    3  A    between atoms: C_7  and  O_17 
REMARK    4  A    between atoms: C_8  and  O_12 
REMARK    5  A    between atoms: C_10  and  O_11 
REMARK    6  A    between atoms: O_12  and  S_13 
REMARK    7  A    between atoms: S_13  and  O_16 
REMARK    8  A    between atoms: O_18  and  C_19 
REMARK    9  A    between atoms: C_20  and  O_30 
REMARK   10  A    between atoms: C_21  and  O_29 
REMARK   11  A    between atoms: C_22  and  O_28 
REMARK   12  A    between atoms: C_23  and  C_25 
REMARK   13  A    between atoms: C_25  and  O_27 
ROOT
HETATM    1  C   UNL     1       4.482  -0.373  -1.686  1.00  0.00     0.171 C 
HETATM    2  C   UNL     1       5.108   1.018  -1.379  1.00  0.00     0.185 C 
HETATM    3  C   UNL     1       4.891   1.915  -2.624  1.00  0.00     0.205 C 
HETATM    4  C   UNL     1       5.461   1.263  -3.899  1.00  0.00     0.315 C 
HETATM    5  O   UNL     1       4.801   0.012  -4.116  1.00  0.00    -0.326 OA
HETATM    6  C   UNL     1       5.013  -0.909  -3.044  1.00  0.00     0.285 C 
ENDROOT
BRANCH   2   7
HETATM    7  O   UNL     1       6.516   0.984  -1.016  1.00  0.00    -0.348 OA
BRANCH   7   8
HETATM    8  C   UNL     1       6.848   0.186   0.137  1.00  0.00     0.292 C 
HETATM    9  C   UNL     1       6.212   0.672   1.469  1.00  0.00     0.204 C 
HETATM   10  C   UNL     1       7.007   1.854   2.038  1.00  0.00     0.183 C 
HETATM   11  C   UNL     1       8.477   1.461   2.190  1.00  0.00     0.189 C 
HETATM   12  C   UNL     1       8.986   1.151   0.779  1.00  0.00     0.253 C 
HETATM   13  O   UNL     1       8.291   0.028   0.214  1.00  0.00    -0.340 OA
BRANCH   9  14
HETATM   14  O   UNL     1       6.170  -0.414   2.418  1.00  0.00    -0.388 OA
HETATM   15  H   UNL     1       7.082  -0.528   2.765  1.00  0.00     0.210 HD
ENDBRANCH   9  14
BRANCH  10  16
HETATM   16  O   UNL     1       6.474   2.267   3.297  1.00  0.00    -0.390 OA
HETATM   17  H   UNL     1       6.375   1.456   3.834  1.00  0.00     0.210 HD
ENDBRANCH  10  16
BRANCH  11  18
HETATM   18  O   UNL     1       8.557   0.287   3.033  1.00  0.00    -0.390 OA
HETATM   19  H   UNL     1       9.504   0.103   3.197  1.00  0.00     0.210 HD
ENDBRANCH  11  18
BRANCH  12  20
HETATM   20  C   UNL     1      10.500   0.899   0.862  1.00  0.00     0.172 C 
HETATM   21  O   UNL     1      11.265   1.536   1.572  1.00  0.00    -0.648 OA
BRANCH  20  22
HETATM   22  O   UNL     1      10.905  -0.114   0.073  1.00  0.00    -0.774 OA
HETATM   23  H   UNL     1      10.136  -0.517  -0.396  1.00  0.00     0.167 HD
ENDBRANCH  20  22
ENDBRANCH  12  20
ENDBRANCH   7   8
ENDBRANCH   2   7
BRANCH   1  24
HETATM   24  N   UNL     1       3.009  -0.341  -1.639  1.00  0.00    -0.349 N 
HETATM   25  C   UNL     1       2.361  -0.105  -0.444  1.00  0.00     0.214 C 
HETATM   26  C   UNL     1       0.861  -0.118  -0.513  1.00  0.00     0.117 C 
HETATM   27  O   UNL     1       2.965   0.130   0.595  1.00  0.00    -0.274 OA
HETATM   28  H   UNL     1       2.473  -0.565  -2.473  1.00  0.00     0.163 HD
ENDBRANCH   1  24
BRANCH   3  29
HETATM   29  O   UNL     1       5.406   3.227  -2.418  1.00  0.00    -0.388 OA
HETATM   30  H   UNL     1       6.332   3.128  -2.118  1.00  0.00     0.210 HD
ENDBRANCH   3  29
BRANCH   6  31
HETATM   31  O   UNL     1       4.378  -2.131  -3.402  1.00  0.00    -0.369 OA
HETATM   32  H   UNL     1       3.866  -2.446  -2.639  1.00  0.00     0.212 HD
ENDBRANCH   6  31
BRANCH   4  33
HETATM   33  O   UNL     1       6.860   1.111  -3.794  1.00  0.00    -0.228 OA
BRANCH  33  34
HETATM   34  S   UNL     1       7.711   0.714  -5.118  1.00  0.00     0.243 S 
HETATM   35  O   UNL     1       7.340   1.624  -6.178  1.00  0.00    -0.579 OA
HETATM   36  O   UNL     1       9.080   0.528  -4.708  1.00  0.00    -0.579 OA
BRANCH  34  37
HETATM   37  O   UNL     1       7.114  -0.727  -5.520  1.00  0.00    -0.273 OA
HETATM   38  H   UNL     1       6.182  -0.634  -5.810  1.00  0.00     0.234 HD
ENDBRANCH  34  37
ENDBRANCH  33  34
ENDBRANCH   4  33
TORSDOF 13
