REMARK  13 active torsions:
REMARK  status: ('A' for Active; 'I' for Inactive)
REMARK    1  A    between atoms: O_2  and  C_3 
REMARK    2  A    between atoms: C_7  and  C_10 
REMARK    3  A    between atoms: C_8  and  O_9 
REMARK    4  A    between atoms: C_10  and  C_11 
REMARK    5  A    between atoms: C_11  and  C_12 
REMARK    6  A    between atoms: C_11  and  O_17 
REMARK    7  A    between atoms: C_12  and  S_13 
REMARK    8  A    between atoms: O_17  and  C_18 
REMARK    9  A    between atoms: C_19  and  O_31 
REMARK   10  A    between atoms: C_21  and  C_24 
REMARK   11  A    between atoms: C_24  and  C_25 
REMARK   12  A    between atoms: C_25  and  C_26 
REMARK   13  A    between atoms: C_26  and  S_27 
ROOT
HETATM    1 NA   UNL     2       3.607   1.752   3.242  1.00  0.00     0.000 Na
ENDROOT
TORSDOF 13
