REMARK  7 active torsions:
REMARK  status: ('A' for Active; 'I' for Inactive)
REMARK    1  A    between atoms: C_1  and  C_2 
REMARK    2  A    between atoms: C_1  and  O_16 
REMARK    3  A    between atoms: C_2  and  C_3 
REMARK    4  A    between atoms: C_2  and  O_15 
REMARK    5  A    between atoms: C_5  and  O_9 
REMARK    6  A    between atoms: O_9  and  P_10 
REMARK    7  A    between atoms: P_10  and  O_11 
ROOT
HETATM    1 NA   UNL     3      -0.641  -2.614   2.636  1.00  0.00     0.000 Na
ENDROOT
TORSDOF 7
