REMARK  6 active torsions:
REMARK  status: ('A' for Active; 'I' for Inactive)
REMARK    1  A    between atoms: C_1  and  C_2 
REMARK    2  A    between atoms: C_1  and  O_12 
REMARK    3  A    between atoms: C_2  and  C_3 
REMARK    4  A    between atoms: C_2  and  O_11 
REMARK    5  A    between atoms: C_4  and  O_10 
REMARK    6  A    between atoms: C_5  and  O_9 
ROOT
HETATM    1  C   UNL     1       0.970  -2.362  -0.648  1.00  0.00     0.226 A 
HETATM    2  C   UNL     1       0.764  -2.788   0.790  1.00  0.00     0.156 A 
HETATM    3  C   UNL     1       0.098  -3.947   0.775  1.00  0.00     0.177 A 
HETATM    4  C   UNL     1      -0.154  -4.371  -0.610  1.00  0.00     0.320 A 
HETATM    5  O   UNL     1      -0.725  -5.379  -0.986  1.00  0.00    -0.257 OA
HETATM    6  O   UNL     1       0.363  -3.413  -1.433  1.00  0.00    -0.301 OA
ENDROOT
BRANCH   1   7
HETATM    7  C   UNL     1       0.357  -1.016  -1.133  1.00  0.00     0.177 C 
BRANCH   7   8
HETATM    8  C   UNL     1       0.911   0.229  -0.433  1.00  0.00     0.198 C 
BRANCH   8   9
HETATM    9  O   UNL     1       2.343   0.269  -0.374  1.00  0.00    -0.398 OA
HETATM   10  H   UNL     1       2.638   0.307  -1.308  1.00  0.00     0.209 HD
ENDBRANCH   8   9
ENDBRANCH   7   8
BRANCH   7  11
HETATM   11  O   UNL     1      -1.074  -0.968  -1.034  1.00  0.00    -0.390 OA
HETATM   12  H   UNL     1      -1.385  -1.876  -0.864  1.00  0.00     0.210 HD
ENDBRANCH   7  11
ENDBRANCH   1   7
BRANCH   2  13
HETATM   13  O   UNL     1       1.252  -2.092   1.717  1.00  0.00    -0.191 OA
HETATM   14 NA   UNL     2       2.578  -0.454   1.891  1.00  0.00     0.000 Na
ENDBRANCH   2  13
BRANCH   3  15
HETATM   15  O   UNL     1      -0.247  -4.645   1.900  1.00  0.00    -0.353 OA
HETATM   16  H   UNL     1       0.101  -4.069   2.610  1.00  0.00     0.218 HD
ENDBRANCH   3  15
TORSDOF 6
