REMARK  2 active torsions:
REMARK  status: ('A' for Active; 'I' for Inactive)
REMARK    1  A    between atoms: C_14  and  O_28 
REMARK    2  A    between atoms: C_20  and  O_25 
ROOT
HETATM    1  C   UNL     1       3.995  -0.778  -1.114  1.00  0.00     0.001 A 
HETATM    2  C   UNL     1       2.956  -0.554  -2.035  1.00  0.00     0.001 A 
HETATM    3  C   UNL     1       1.650  -0.316  -1.595  1.00  0.00     0.012 A 
HETATM    4  C   UNL     1       1.411  -0.304  -0.228  1.00  0.00     0.003 A 
HETATM    5  C   UNL     1       2.441  -0.530   0.665  1.00  0.00     0.049 A 
HETATM    6  C   UNL     1       3.741  -0.768   0.258  1.00  0.00     0.018 A 
HETATM    7  C   UNL     1       1.915  -0.460   2.021  1.00  0.00     0.295 A 
HETATM    8  O   UNL     1       2.540  -0.627   3.047  1.00  0.00    -0.259 OA
HETATM    9  O   UNL     1       0.583  -0.177   1.916  1.00  0.00    -0.291 OA
HETATM   10  C   UNL     1       0.149  -0.057   0.536  1.00  0.00     0.159 A 
HETATM   11  C   UNL     1      -0.894  -1.124   0.285  1.00  0.00     0.023 A 
HETATM   12  C   UNL     1      -0.623  -2.484   0.544  1.00  0.00     0.036 A 
HETATM   13  C   UNL     1      -1.567  -3.469   0.261  1.00  0.00     0.046 A 
HETATM   14  C   UNL     1      -2.807  -3.118  -0.270  1.00  0.00     0.103 A 
HETATM   15  C   UNL     1      -3.099  -1.771  -0.520  1.00  0.00     0.080 A 
HETATM   16  C   UNL     1      -2.141  -0.775  -0.246  1.00  0.00     0.106 A 
HETATM   17  O   UNL     1      -2.482   0.524  -0.540  1.00  0.00    -0.306 OA
HETATM   18  C   UNL     1      -1.635   1.557  -0.222  1.00  0.00     0.106 A 
HETATM   19  C   UNL     1      -2.082   2.864  -0.490  1.00  0.00     0.080 A 
HETATM   20  C   UNL     1      -1.265   3.967  -0.209  1.00  0.00     0.103 A 
HETATM   21  C   UNL     1      -0.006   3.768   0.351  1.00  0.00     0.046 A 
HETATM   22  C   UNL     1       0.435   2.473   0.625  1.00  0.00     0.036 A 
HETATM   23  C   UNL     1      -0.367   1.351   0.328  1.00  0.00     0.023 A 
HETATM   24 BR   UNL     1       1.160   5.213   0.733  1.00  0.00    -0.048 Br
HETATM   25 BR   UNL     1      -3.801   3.160  -1.260  1.00  0.00    -0.045 Br
HETATM   26 BR   UNL     1      -4.797  -1.290  -1.242  1.00  0.00    -0.045 Br
HETATM   27 BR   UNL     1      -1.121  -5.281   0.591  1.00  0.00    -0.048 Br
ENDROOT
BRANCH  14  28
HETATM   28  O   UNL     1      -3.739  -4.082  -0.555  1.00  0.00    -0.358 OA
HETATM   29  H   UNL     1      -3.368  -4.949  -0.309  1.00  0.00     0.217 HD
ENDBRANCH  14  28
BRANCH  20  30
HETATM   30  O   UNL     1      -1.678   5.245  -0.485  1.00  0.00    -0.358 OA
HETATM   31  H   UNL     1      -2.576   5.200  -0.858  1.00  0.00     0.217 HD
ENDBRANCH  20  30
TORSDOF 2
