REMARK  2 active torsions:
REMARK  status: ('A' for Active; 'I' for Inactive)
REMARK    1  A    between atoms: C_14  and  O_17 
REMARK    2  A    between atoms: C_24  and  O_27 
ROOT
HETATM    1  C   UNL     1       3.981  -0.760  -1.103  1.00  0.00     0.001 A 
HETATM    2  C   UNL     1       2.945  -0.541  -2.026  1.00  0.00     0.001 A 
HETATM    3  C   UNL     1       1.639  -0.304  -1.589  1.00  0.00     0.012 A 
HETATM    4  C   UNL     1       1.398  -0.297  -0.222  1.00  0.00     0.003 A 
HETATM    5  C   UNL     1       2.423  -0.522   0.675  1.00  0.00     0.049 A 
HETATM    6  C   UNL     1       3.722  -0.756   0.268  1.00  0.00     0.018 A 
HETATM    7  C   UNL     1       1.892  -0.453   2.029  1.00  0.00     0.295 A 
HETATM    8  O   UNL     1       2.517  -0.616   3.055  1.00  0.00    -0.259 OA
HETATM    9  O   UNL     1       0.565  -0.166   1.920  1.00  0.00    -0.291 OA
HETATM   10  C   UNL     1       0.134  -0.051   0.539  1.00  0.00     0.159 A 
HETATM   11  C   UNL     1      -0.902  -1.123   0.284  1.00  0.00     0.022 A 
HETATM   12  C   UNL     1      -2.152  -0.777  -0.244  1.00  0.00     0.106 A 
HETATM   13  C   UNL     1      -3.097  -1.782  -0.516  1.00  0.00     0.078 A 
HETATM   14  C   UNL     1      -2.786  -3.123  -0.270  1.00  0.00     0.085 A 
HETATM   15  C   UNL     1      -1.550  -3.477   0.252  1.00  0.00     0.039 A 
HETATM   16  C   UNL     1      -0.617  -2.483   0.534  1.00  0.00     0.017 A 
HETATM   17 BR   UNL     1      -4.807  -1.350  -1.231  1.00  0.00    -0.045 Br
HETATM   18  O   UNL     1      -2.503   0.520  -0.533  1.00  0.00    -0.306 OA
HETATM   19  C   UNL     1      -1.653   1.558  -0.228  1.00  0.00     0.106 A 
HETATM   20  C   UNL     1      -0.384   1.355   0.323  1.00  0.00     0.022 A 
HETATM   21  C   UNL     1       0.423   2.477   0.613  1.00  0.00     0.017 A 
HETATM   22  C   UNL     1      -0.013   3.771   0.336  1.00  0.00     0.039 A 
HETATM   23  C   UNL     1      -1.269   3.962  -0.227  1.00  0.00     0.085 A 
HETATM   24  C   UNL     1      -2.096   2.865  -0.506  1.00  0.00     0.078 A 
HETATM   25 BR   UNL     1      -3.813   3.153  -1.282  1.00  0.00    -0.045 Br
ENDROOT
BRANCH  14  26
HETATM   26  O   UNL     1      -3.655  -4.148  -0.526  1.00  0.00    -0.359 OA
HETATM   27  H   UNL     1      -4.479  -3.754  -0.867  1.00  0.00     0.217 HD
ENDBRANCH  14  26
BRANCH  23  28
HETATM   28  O   UNL     1      -1.686   5.234  -0.510  1.00  0.00    -0.359 OA
HETATM   29  H   UNL     1      -1.006   5.869  -0.228  1.00  0.00     0.217 HD
ENDBRANCH  23  28
TORSDOF 2
