REMARK  4 active torsions:
REMARK  status: ('A' for Active; 'I' for Inactive)
REMARK    1  A    between atoms: C_6  and  S_13 
REMARK    2  A    between atoms: C_8  and  S_9 
REMARK    3  A    between atoms: C_20  and  S_26 
REMARK    4  A    between atoms: C_22  and  O_25 
ROOT
HETATM    1 NA   UNL     2       1.356   2.750  -2.452  1.00  0.00     0.000 Na
ENDROOT
TORSDOF 4
