REMARK  1 active torsions:
REMARK  status: ('A' for Active; 'I' for Inactive)
REMARK    1  A    between atoms: C_9  and  C_12 
ROOT
HETATM    1  C   UNL     1       2.454  -0.659  -0.014  1.00  0.00     0.001 A 
HETATM    2  C   UNL     1       2.405   0.730  -0.030  1.00  0.00     0.002 A 
HETATM    3  C   UNL     1       1.170   1.387  -0.059  1.00  0.00     0.030 A 
HETATM    4  C   UNL     1      -0.031   0.690  -0.070  1.00  0.00     0.042 A 
HETATM    5  C   UNL     1       0.027  -0.719  -0.062  1.00  0.00    -0.009 A 
HETATM    6  C   UNL     1       1.266  -1.385  -0.035  1.00  0.00     0.013 A 
HETATM    7  C   UNL     1      -1.177  -1.426  -0.070  1.00  0.00     0.015 A 
HETATM    8  C   UNL     1      -2.383  -0.734  -0.057  1.00  0.00     0.027 A 
HETATM    9  C   UNL     1      -2.359   0.658  -0.038  1.00  0.00     0.029 A 
HETATM   10  N   UNL     1      -1.200   1.364  -0.067  1.00  0.00    -0.358 N 
ATOM     11  HN  UNL     1      -1.212   2.384  -0.086  1.00  0.00     0.166 HD
ENDROOT
BRANCH   9  12
HETATM   12  C   UNL     1      -3.647   1.418   0.093  1.00  0.00     0.185 A 
HETATM   13  C   UNL     1      -3.957   2.333  -1.071  1.00  0.00     0.177 A 
HETATM   14  O   UNL     1      -4.081   2.034  -2.247  1.00  0.00    -0.291 OA
HETATM   15  C   UNL     1      -4.204   3.680  -0.548  1.00  0.00     0.025 A 
HETATM   16  C   UNL     1      -4.635   4.806  -1.225  1.00  0.00     0.016 A 
HETATM   17  C   UNL     1      -4.005   3.691   0.825  1.00  0.00     0.025 A 
HETATM   18  C   UNL     1      -4.853   5.968  -0.477  1.00  0.00     0.001 A 
HETATM   19  C   UNL     1      -4.630   5.983   0.914  1.00  0.00     0.001 A 
HETATM   20  C   UNL     1      -4.200   4.833   1.581  1.00  0.00     0.016 A 
HETATM   21  C   UNL     1      -3.651   2.351   1.287  1.00  0.00     0.177 A 
HETATM   22  O   UNL     1      -3.481   2.067   2.460  1.00  0.00    -0.291 OA
ENDBRANCH   9  12
TORSDOF 1
