REMARK  2 active torsions:
REMARK  status: ('A' for Active; 'I' for Inactive)
REMARK    1  A    between atoms: C_5  and  O_8 
REMARK    2  A    between atoms: C_13  and  O_32 
ROOT
HETATM    1  C   UNL     1       0.440   2.470   0.610  1.00  0.00     0.036 A 
HETATM    2  C   UNL     1      -0.371   1.354   0.315  1.00  0.00     0.023 A 
HETATM    3  C   UNL     1      -1.648   1.562  -0.216  1.00  0.00     0.106 A 
HETATM    4  C   UNL     1      -2.085   2.873  -0.486  1.00  0.00     0.080 A 
HETATM    5  C   UNL     1      -1.255   3.971  -0.216  1.00  0.00     0.103 A 
HETATM    6  C   UNL     1       0.006   3.766   0.338  1.00  0.00     0.046 A 
HETATM    7 BR   UNL     1       1.189   5.200   0.712  1.00  0.00    -0.048 Br
HETATM    8 BR   UNL     1      -3.801   3.181  -1.253  1.00  0.00    -0.045 Br
HETATM    9  O   UNL     1      -2.504   0.526  -0.512  1.00  0.00    -0.306 OA
HETATM   10  C   UNL     1      -2.151  -0.776  -0.233  1.00  0.00     0.106 A 
HETATM   11  C   UNL     1      -3.096  -1.784  -0.501  1.00  0.00     0.080 A 
HETATM   12  C   UNL     1      -2.789  -3.132  -0.263  1.00  0.00     0.103 A 
HETATM   13  C   UNL     1      -1.543  -3.475   0.254  1.00  0.00     0.046 A 
HETATM   14  C   UNL     1      -0.608  -2.479   0.531  1.00  0.00     0.036 A 
HETATM   15  C   UNL     1      -0.895  -1.121   0.276  1.00  0.00     0.023 A 
HETATM   16  C   UNL     1       0.148  -0.053   0.504  1.00  0.00     0.161 A 
HETATM   17  C   UNL     1       1.418  -0.301  -0.256  1.00  0.00     0.028 A 
HETATM   18  C   UNL     1       2.451  -0.512   0.646  1.00  0.00     0.074 A 
HETATM   19  C   UNL     1       3.758  -0.736   0.236  1.00  0.00     0.074 A 
HETATM   20  C   UNL     1       4.021  -0.754  -1.147  1.00  0.00     0.080 A 
HETATM   21  C   UNL     1       2.972  -0.554  -2.078  1.00  0.00     0.080 A 
HETATM   22  C   UNL     1       1.660  -0.323  -1.626  1.00  0.00     0.068 A 
HETATM   23 CL   UNL     1       0.354  -0.064  -2.730  1.00  0.00    -0.082 Cl
HETATM   24 CL   UNL     1       3.299  -0.586  -3.787  1.00  0.00    -0.081 Cl
HETATM   25 CL   UNL     1       5.645  -1.018  -1.712  1.00  0.00    -0.081 Cl
HETATM   26 CL   UNL     1       5.015  -0.970   1.399  1.00  0.00    -0.081 Cl
HETATM   27  C   UNL     1       1.902  -0.440   1.999  1.00  0.00     0.297 A 
HETATM   28  O   UNL     1       2.489  -0.597   3.049  1.00  0.00    -0.259 OA
HETATM   29  O   UNL     1       0.574  -0.166   1.881  1.00  0.00    -0.291 OA
HETATM   30 BR   UNL     1      -1.048  -5.277   0.579  1.00  0.00    -0.048 Br
HETATM   31 BR   UNL     1      -4.808  -1.340  -1.210  1.00  0.00    -0.045 Br
ENDROOT
BRANCH   5  32
HETATM   32  O   UNL     1      -1.655   5.252  -0.492  1.00  0.00    -0.358 OA
HETATM   33  H   UNL     1      -2.551   5.222  -0.867  1.00  0.00     0.217 HD
ENDBRANCH   5  32
BRANCH  12  34
HETATM   34  O   UNL     1      -3.689  -4.129  -0.533  1.00  0.00    -0.358 OA
HETATM   35  H   UNL     1      -4.505  -3.724  -0.877  1.00  0.00     0.217 HD
ENDBRANCH  12  34
TORSDOF 2
