REMARK  3 active torsions:
REMARK  status: ('A' for Active; 'I' for Inactive)
REMARK    1  A    between atoms: C_3  and  C_4 
REMARK    2  A    between atoms: C_5  and  C_6 
REMARK    3  A    between atoms: C_6  and  O_8 
ROOT
HETATM    1  C   UNL     1       4.657   0.387  -1.189  1.00  0.00     0.006 C 
HETATM    2  C   UNL     1       5.372   0.666  -2.292  1.00  0.00     0.081 C 
ENDROOT
BRANCH   2   3
HETATM    3  C   UNL     1       6.848   0.646  -2.214  1.00  0.00     0.165 C 
HETATM    4  O   UNL     1       7.484   0.391  -1.206  1.00  0.00    -0.647 OA
BRANCH   3   5
HETATM    5  O   UNL     1       7.431   0.943  -3.391  1.00  0.00    -0.773 OA
HETATM    6  H   UNL     1       6.831   1.131  -4.134  1.00  0.00     0.167 HD
ENDBRANCH   3   5
ENDBRANCH   2   3
BRANCH   1   7
HETATM    7  C   UNL     1       3.210   0.379  -1.159  1.00  0.00    -0.004 C 
HETATM    8  C   UNL     1       2.506   0.100  -0.052  1.00  0.00    -0.031 C 
HETATM    9  C   UNL     1       1.010   0.091  -0.018  1.00  0.00     0.036 C 
ENDBRANCH   1   7
TORSDOF 3
