REMARK  22 active torsions:
REMARK  status: ('A' for Active; 'I' for Inactive)
REMARK    1  A    between atoms: C_2  and  C_3 
REMARK    2  A    between atoms: C_3  and  C_4 
REMARK    3  A    between atoms: C_4  and  C_5 
REMARK    4  A    between atoms: C_5  and  C_6 
REMARK    5  A    between atoms: C_6  and  C_7 
REMARK    6  A    between atoms: C_7  and  C_8 
REMARK    7  A    between atoms: C_8  and  C_9 
REMARK    8  A    between atoms: C_10  and  C_11 
REMARK    9  A    between atoms: C_11  and  C_12 
REMARK   10  A    between atoms: C_12  and  C_13 
REMARK   11  A    between atoms: C_13  and  C_14 
REMARK   12  A    between atoms: C_14  and  C_15 
REMARK   13  A    between atoms: C_15  and  C_16 
REMARK   14  A    between atoms: C_16  and  C_17 
REMARK   15  A    between atoms: C_17  and  C_18 
REMARK   16  A    between atoms: C_18  and  O_20 
REMARK   17  A    between atoms: O_20  and  C_21 
REMARK   18  A    between atoms: C_21  and  C_22 
REMARK   19  A    between atoms: C_22  and  C_23 
REMARK   20  A    between atoms: C_22  and  O_30 
REMARK   21  A    between atoms: C_24  and  O_29 
REMARK   22  A    between atoms: C_25  and  O_28 
ROOT
HETATM    1  C   UNL     1      17.042  -8.660  -7.855  1.00  0.00     0.111 C 
ENDROOT
BRANCH   1   2
HETATM    2  C   UNL     1      16.466  -7.614  -6.910  1.00  0.00     0.010 C 
BRANCH   2   3
HETATM    3  C   UNL     1      14.940  -7.606  -6.906  1.00  0.00     0.000 C 
BRANCH   3   4
HETATM    4  C   UNL     1      14.418  -6.550  -5.941  1.00  0.00     0.000 C 
BRANCH   4   5
HETATM    5  C   UNL     1      12.892  -6.525  -5.923  1.00  0.00     0.000 C 
BRANCH   5   6
HETATM    6  C   UNL     1      12.375  -5.460  -4.962  1.00  0.00     0.004 C 
BRANCH   6   7
HETATM    7  C   UNL     1      12.860  -4.076  -5.379  1.00  0.00     0.027 C 
BRANCH   7   8
HETATM    8  C   UNL     1      12.366  -3.028  -4.443  1.00  0.00    -0.031 C 
HETATM    9  C   UNL     1      13.197  -2.250  -3.740  1.00  0.00    -0.031 C 
BRANCH   9  10
HETATM   10  C   UNL     1      12.693  -1.202  -2.805  1.00  0.00     0.027 C 
BRANCH  10  11
HETATM   11  C   UNL     1      13.182   0.174  -3.230  1.00  0.00     0.004 C 
BRANCH  11  12
HETATM   12  C   UNL     1      12.661   1.236  -2.275  1.00  0.00     0.000 C 
BRANCH  12  13
HETATM   13  C   UNL     1      13.152   2.609  -2.702  1.00  0.00     0.000 C 
BRANCH  13  14
HETATM   14  C   UNL     1      12.631   3.672  -1.747  1.00  0.00     0.000 C 
BRANCH  14  15
HETATM   15  C   UNL     1      13.123   5.046  -2.174  1.00  0.00    -0.000 C 
BRANCH  15  16
HETATM   16  C   UNL     1      12.607   6.117  -1.221  1.00  0.00    -0.005 C 
HETATM   17  C   UNL     1      13.098   7.485  -1.649  1.00  0.00     0.005 C 
ENDBRANCH  15  16
ENDBRANCH  14  15
ENDBRANCH  13  14
ENDBRANCH  12  13
ENDBRANCH  11  12
ENDBRANCH  10  11
ENDBRANCH   9  10
ENDBRANCH   7   8
ENDBRANCH   6   7
ENDBRANCH   5   6
ENDBRANCH   4   5
ENDBRANCH   3   4
ENDBRANCH   2   3
ENDBRANCH   1   2
BRANCH   1  18
HETATM   18  C   UNL     1      18.567  -8.620  -7.818  1.00  0.00     0.258 C 
HETATM   19  O   UNL     1      19.218  -7.650  -8.140  1.00  0.00    -0.265 OA
BRANCH  18  20
HETATM   20  O   UNL     1      19.068  -9.843  -7.473  1.00  0.00    -0.319 OA
BRANCH  20  21
HETATM   21  C   UNL     1      20.402 -10.061  -7.948  1.00  0.00     0.213 C 
BRANCH  21  22
HETATM   22  C   UNL     1      21.369 -10.190  -6.774  1.00  0.00     0.174 C 
BRANCH  22  23
HETATM   23  C   UNL     1      22.803 -10.470  -7.242  1.00  0.00     0.183 C 
HETATM   24  C   UNL     1      23.800 -10.609  -6.085  1.00  0.00     0.180 C 
HETATM   25  C   UNL     1      25.107 -10.003  -6.630  1.00  0.00     0.173 C 
HETATM   26  C   UNL     1      24.757  -9.587  -8.054  1.00  0.00     0.202 C 
HETATM   27  O   UNL     1      23.328  -9.443  -8.099  1.00  0.00    -0.378 OA
BRANCH  24  28
HETATM   28  O   UNL     1      23.794 -11.951  -5.614  1.00  0.00    -0.390 OA
HETATM   29  H   UNL     1      23.965 -12.544  -6.363  1.00  0.00     0.210 HD
ENDBRANCH  24  28
BRANCH  25  30
HETATM   30  O   UNL     1      26.286 -10.791  -6.551  1.00  0.00    -0.391 OA
HETATM   31  H   UNL     1      26.210 -11.578  -7.119  1.00  0.00     0.210 HD
ENDBRANCH  25  30
ENDBRANCH  22  23
BRANCH  22  32
HETATM   32  O   UNL     1      21.318  -9.031  -5.936  1.00  0.00    -0.391 OA
HETATM   33  H   UNL     1      21.537  -8.241  -6.458  1.00  0.00     0.210 HD
ENDBRANCH  22  32
ENDBRANCH  21  22
ENDBRANCH  20  21
ENDBRANCH  18  20
ENDBRANCH   1  18
TORSDOF 22
