REMARK  22 active torsions:
REMARK  status: ('A' for Active; 'I' for Inactive)
REMARK    1  A    between atoms: C_2  and  C_3 
REMARK    2  A    between atoms: C_3  and  C_4 
REMARK    3  A    between atoms: C_4  and  C_5 
REMARK    4  A    between atoms: C_5  and  C_6 
REMARK    5  A    between atoms: C_6  and  C_7 
REMARK    6  A    between atoms: C_7  and  C_8 
REMARK    7  A    between atoms: C_8  and  C_9 
REMARK    8  A    between atoms: C_9  and  C_10 
REMARK    9  A    between atoms: C_10  and  C_11 
REMARK   10  A    between atoms: C_11  and  C_12 
REMARK   11  A    between atoms: C_12  and  O_14 
REMARK   12  A    between atoms: O_14  and  C_15 
REMARK   13  A    between atoms: C_15  and  C_16 
REMARK   14  A    between atoms: C_16  and  C_17 
REMARK   15  A    between atoms: C_16  and  O_25 
REMARK   16  A    between atoms: C_17  and  C_18 
REMARK   17  A    between atoms: C_17  and  O_24 
REMARK   18  A    between atoms: C_18  and  C_19 
REMARK   19  A    between atoms: C_18  and  O_23 
REMARK   20  A    between atoms: C_19  and  C_20 
REMARK   21  A    between atoms: C_19  and  O_22 
REMARK   22  A    between atoms: C_20  and  O_21 
ROOT
HETATM    1  C   UNL     1      14.219  -8.283   2.389  1.00  0.00     0.213 C 
ENDROOT
BRANCH   1   2
HETATM    2  O   UNL     1      13.313  -7.622   3.277  1.00  0.00    -0.319 OA
BRANCH   2   3
HETATM    3  C   UNL     1      12.797  -6.479   2.799  1.00  0.00     0.258 C 
HETATM    4  O   UNL     1      13.456  -5.533   2.346  1.00  0.00    -0.265 OA
BRANCH   3   5
HETATM    5  C   UNL     1      11.291  -6.543   2.813  1.00  0.00     0.111 C 
BRANCH   5   6
HETATM    6  C   UNL     1      10.716  -5.253   2.239  1.00  0.00     0.010 C 
BRANCH   6   7
HETATM    7  C   UNL     1       9.197  -5.248   2.235  1.00  0.00     0.000 C 
BRANCH   7   8
HETATM    8  C   UNL     1       8.683  -3.935   1.654  1.00  0.00     0.000 C 
BRANCH   8   9
HETATM    9  C   UNL     1       7.163  -3.923   1.644  1.00  0.00     0.000 C 
BRANCH   9  10
HETATM   10  C   UNL     1       6.649  -2.616   1.063  1.00  0.00     0.000 C 
BRANCH  10  11
HETATM   11  C   UNL     1       5.130  -2.609   1.058  1.00  0.00     0.000 C 
BRANCH  11  12
HETATM   12  C   UNL     1       4.618  -1.302   0.475  1.00  0.00     0.000 C 
BRANCH  12  13
HETATM   13  C   UNL     1       3.098  -1.292   0.471  1.00  0.00    -0.000 C 
BRANCH  13  14
HETATM   14  C   UNL     1       2.575   0.012  -0.113  1.00  0.00    -0.005 C 
HETATM   15  C   UNL     1       1.059   0.018  -0.113  1.00  0.00     0.005 C 
ENDBRANCH  13  14
ENDBRANCH  12  13
ENDBRANCH  11  12
ENDBRANCH  10  11
ENDBRANCH   9  10
ENDBRANCH   8   9
ENDBRANCH   7   8
ENDBRANCH   6   7
ENDBRANCH   5   6
ENDBRANCH   3   5
ENDBRANCH   2   3
ENDBRANCH   1   2
BRANCH   1  16
HETATM   16  C   UNL     1      15.638  -8.394   2.927  1.00  0.00     0.173 C 
BRANCH  16  17
HETATM   17  C   UNL     1      15.682  -9.163   4.271  1.00  0.00     0.180 C 
BRANCH  17  18
HETATM   18  C   UNL     1      17.115  -9.280   4.836  1.00  0.00     0.180 C 
BRANCH  18  19
HETATM   19  C   UNL     1      17.151 -10.049   6.184  1.00  0.00     0.173 C 
BRANCH  19  20
HETATM   20  C   UNL     1      18.583 -10.151   6.711  1.00  0.00     0.198 C 
BRANCH  20  21
HETATM   21  O   UNL     1      18.654 -10.856   7.950  1.00  0.00    -0.398 OA
HETATM   22  H   UNL     1      17.970 -10.478   8.534  1.00  0.00     0.209 HD
ENDBRANCH  20  21
ENDBRANCH  19  20
BRANCH  19  23
HETATM   23  O   UNL     1      16.361  -9.430   7.204  1.00  0.00    -0.391 OA
HETATM   24  H   UNL     1      16.578  -8.482   7.221  1.00  0.00     0.210 HD
ENDBRANCH  19  23
ENDBRANCH  18  19
BRANCH  18  25
HETATM   25  O   UNL     1      17.968  -9.930   3.892  1.00  0.00    -0.390 OA
HETATM   26  H   UNL     1      17.650 -10.843   3.789  1.00  0.00     0.210 HD
ENDBRANCH  18  25
ENDBRANCH  17  18
BRANCH  17  27
HETATM   27  O   UNL     1      14.834  -8.538   5.231  1.00  0.00    -0.390 OA
HETATM   28  H   UNL     1      15.130  -7.620   5.353  1.00  0.00     0.210 HD
ENDBRANCH  17  27
ENDBRANCH  16  17
BRANCH  16  29
HETATM   29  O   UNL     1      16.441  -8.991   1.900  1.00  0.00    -0.391 OA
HETATM   30  H   UNL     1      16.297  -9.954   1.890  1.00  0.00     0.210 HD
ENDBRANCH  16  29
ENDBRANCH   1  16
TORSDOF 22
