REMARK  15 active torsions:
REMARK  status: ('A' for Active; 'I' for Inactive)
REMARK    1  A    between atoms: C_3  and  C_4 
REMARK    2  A    between atoms: C_4  and  C_5 
REMARK    3  A    between atoms: C_5  and  C_6 
REMARK    4  A    between atoms: C_7  and  C_8 
REMARK    5  A    between atoms: C_8  and  C_9 
REMARK    6  A    between atoms: C_9  and  C_10 
REMARK    7  A    between atoms: C_11  and  C_12 
REMARK    8  A    between atoms: C_12  and  C_13 
REMARK    9  A    between atoms: C_13  and  C_14 
REMARK   10  A    between atoms: C_15  and  C_17 
REMARK   11  A    between atoms: C_17  and  C_18 
REMARK   12  A    between atoms: C_18  and  C_19 
REMARK   13  A    between atoms: C_20  and  C_22 
REMARK   14  A    between atoms: C_22  and  C_23 
REMARK   15  A    between atoms: C_23  and  C_24 
ROOT
HETATM    1  C   UNL     1       0.256   0.990   1.488  1.00  0.00     0.031 C 
ENDROOT
BRANCH   1   2
HETATM    2  C   UNL     1      -1.204   0.660   1.638  1.00  0.00    -0.024 C 
HETATM    3  C   UNL     1      -2.008   0.630   2.731  1.00  0.00    -0.087 C 
HETATM    4  C   UNL     1      -3.427   0.152   2.480  1.00  0.00     0.043 C 
BRANCH   3   5
HETATM    5  C   UNL     1      -1.614   0.949   4.190  1.00  0.00     0.037 C 
BRANCH   5   6
HETATM    6  C   UNL     1      -2.793   0.770   5.202  1.00  0.00     0.031 C 
BRANCH   6   7
HETATM    7  C   UNL     1      -2.570   0.930   6.687  1.00  0.00    -0.024 C 
HETATM    8  C   UNL     1      -3.350   0.385   7.656  1.00  0.00    -0.087 C 
HETATM    9  C   UNL     1      -2.987   0.684   9.094  1.00  0.00     0.043 C 
BRANCH   8  10
HETATM   10  C   UNL     1      -4.574  -0.522   7.387  1.00  0.00     0.037 C 
BRANCH  10  11
HETATM   11  C   UNL     1      -5.713  -0.438   8.423  1.00  0.00     0.031 C 
BRANCH  11  12
HETATM   12  C   UNL     1      -6.922  -1.348   8.441  1.00  0.00    -0.024 C 
HETATM   13  C   UNL     1      -7.472  -2.292   7.646  1.00  0.00    -0.091 C 
HETATM   14  C   UNL     1      -6.985  -2.756   6.308  1.00  0.00     0.042 C 
HETATM   15  C   UNL     1      -8.728  -2.998   8.114  1.00  0.00     0.042 C 
ENDBRANCH  11  12
ENDBRANCH  10  11
ENDBRANCH   8  10
ENDBRANCH   6   7
ENDBRANCH   5   6
ENDBRANCH   3   5
ENDBRANCH   1   2
BRANCH   1  16
HETATM   16  C   UNL     1       0.613   1.609   0.101  1.00  0.00     0.031 C 
BRANCH  16  17
HETATM   17  C   UNL     1       2.112   1.757  -0.041  1.00  0.00    -0.024 C 
HETATM   18  C   UNL     1       2.866   1.833  -1.164  1.00  0.00    -0.087 C 
HETATM   19  C   UNL     1       2.315   1.990  -2.553  1.00  0.00     0.043 C 
BRANCH  18  20
HETATM   20  C   UNL     1       4.397   1.745  -1.108  1.00  0.00     0.037 C 
BRANCH  20  21
HETATM   21  C   UNL     1       4.935   0.861   0.031  1.00  0.00     0.031 C 
BRANCH  21  22
HETATM   22  C   UNL     1       6.430   0.688   0.056  1.00  0.00    -0.024 C 
HETATM   23  C   UNL     1       7.310   1.438   0.756  1.00  0.00    -0.087 C 
HETATM   24  C   UNL     1       6.911   2.705   1.472  1.00  0.00     0.043 C 
BRANCH  23  25
HETATM   25  C   UNL     1       8.788   1.089   0.922  1.00  0.00     0.037 C 
BRANCH  25  26
HETATM   26  C   UNL     1       9.223  -0.254   0.319  1.00  0.00     0.031 C 
BRANCH  26  27
HETATM   27  C   UNL     1      10.675  -0.610   0.507  1.00  0.00    -0.024 C 
HETATM   28  C   UNL     1      11.228  -1.744   0.032  1.00  0.00    -0.091 C 
HETATM   29  C   UNL     1      10.458  -2.797  -0.727  1.00  0.00     0.042 C 
HETATM   30  C   UNL     1      12.684  -2.060   0.222  1.00  0.00     0.042 C 
ENDBRANCH  26  27
ENDBRANCH  25  26
ENDBRANCH  23  25
ENDBRANCH  21  22
ENDBRANCH  20  21
ENDBRANCH  18  20
ENDBRANCH  16  17
ENDBRANCH   1  16
TORSDOF 15
