REMARK  17 active torsions:
REMARK  status: ('A' for Active; 'I' for Inactive)
REMARK    1  A    between atoms: C_2  and  C_3 
REMARK    2  A    between atoms: C_3  and  C_4 
REMARK    3  A    between atoms: C_4  and  C_5 
REMARK    4  A    between atoms: C_5  and  C_6 
REMARK    5  A    between atoms: C_6  and  C_7 
REMARK    6  A    between atoms: C_7  and  C_8 
REMARK    7  A    between atoms: C_8  and  C_9 
REMARK    8  A    between atoms: C_9  and  C_10 
REMARK    9  A    between atoms: C_10  and  C_11 
REMARK   10  A    between atoms: C_11  and  C_12 
REMARK   11  A    between atoms: C_12  and  C_13 
REMARK   12  A    between atoms: C_13  and  C_14 
REMARK   13  A    between atoms: C_14  and  C_15 
REMARK   14  A    between atoms: C_15  and  C_16 
REMARK   15  A    between atoms: C_16  and  C_17 
REMARK   16  A    between atoms: C_17  and  C_18 
REMARK   17  A    between atoms: C_18  and  N_19 
ROOT
HETATM    1  C   UNL     1      11.206   2.907  -6.591  1.00  0.00     0.000 C 
ENDROOT
BRANCH   1   2
HETATM    2  C   UNL     1      10.698   2.339  -5.281  1.00  0.00     0.000 C 
BRANCH   2   3
HETATM    3  C   UNL     1       9.182   2.340  -5.278  1.00  0.00     0.000 C 
BRANCH   3   4
HETATM    4  C   UNL     1       8.672   1.771  -3.968  1.00  0.00     0.000 C 
BRANCH   4   5
HETATM    5  C   UNL     1       7.155   1.773  -3.963  1.00  0.00     0.000 C 
BRANCH   5   6
HETATM    6  C   UNL     1       6.644   1.205  -2.651  1.00  0.00     0.000 C 
BRANCH   6   7
HETATM    7  C   UNL     1       5.127   1.205  -2.644  1.00  0.00     0.000 C 
BRANCH   7   8
HETATM    8  C   UNL     1       4.614   0.638  -1.331  1.00  0.00     0.000 C 
BRANCH   8   9
HETATM    9  C   UNL     1       3.094   0.634  -1.322  1.00  0.00    -0.000 C 
BRANCH   9  10
HETATM   10  C   UNL     1       2.572   0.067  -0.011  1.00  0.00    -0.005 C 
HETATM   11  C   UNL     1       1.055   0.062  -0.005  1.00  0.00     0.005 C 
ENDBRANCH   9  10
ENDBRANCH   8   9
ENDBRANCH   7   8
ENDBRANCH   6   7
ENDBRANCH   5   6
ENDBRANCH   4   5
ENDBRANCH   3   4
ENDBRANCH   2   3
ENDBRANCH   1   2
BRANCH   1  12
HETATM   12  C   UNL     1      12.721   2.908  -6.595  1.00  0.00     0.000 C 
BRANCH  12  13
HETATM   13  C   UNL     1      13.229   3.475  -7.904  1.00  0.00     0.000 C 
BRANCH  13  14
HETATM   14  C   UNL     1      14.742   3.472  -7.897  1.00  0.00     0.000 C 
BRANCH  14  15
HETATM   15  C   UNL     1      15.254   4.037  -9.204  1.00  0.00     0.000 C 
BRANCH  15  16
HETATM   16  C   UNL     1      16.776   4.025  -9.176  1.00  0.00     0.002 C 
BRANCH  16  17
HETATM   17  C   UNL     1      17.274   4.587 -10.481  1.00  0.00     0.036 C 
BRANCH  17  18
HETATM   18  C   UNL     1      18.796   4.621 -10.537  1.00  0.00     0.311 C 
BRANCH  18  19
HETATM   19  N   UNL     1      19.299   5.174 -11.841  1.00  0.00     0.005 N 
HETATM   20  C   UNL     1      18.828   6.597 -12.032  1.00  0.00     0.355 C 
HETATM   21  C   UNL     1      20.803   5.143 -11.879  1.00  0.00     0.355 C 
HETATM   22  O   UNL     1      18.825   4.408 -12.882  1.00  0.00    -0.065 OA
ENDBRANCH  18  19
ENDBRANCH  17  18
ENDBRANCH  16  17
ENDBRANCH  15  16
ENDBRANCH  14  15
ENDBRANCH  13  14
ENDBRANCH  12  13
ENDBRANCH   1  12
TORSDOF 17
