REMARK  23 active torsions:
REMARK  status: ('A' for Active; 'I' for Inactive)
REMARK    1  A    between atoms: C_2  and  C_3 
REMARK    2  A    between atoms: C_3  and  C_4 
REMARK    3  A    between atoms: C_4  and  C_5 
REMARK    4  A    between atoms: C_5  and  C_6 
REMARK    5  A    between atoms: C_6  and  C_7 
REMARK    6  A    between atoms: C_7  and  C_8 
REMARK    7  A    between atoms: C_8  and  C_9 
REMARK    8  A    between atoms: C_9  and  C_10 
REMARK    9  A    between atoms: C_10  and  C_11 
REMARK   10  A    between atoms: C_11  and  C_12 
REMARK   11  A    between atoms: C_12  and  C_13 
REMARK   12  A    between atoms: C_13  and  C_14 
REMARK   13  A    between atoms: C_14  and  C_15 
REMARK   14  A    between atoms: C_15  and  C_16 
REMARK   15  A    between atoms: C_16  and  C_17 
REMARK   16  A    between atoms: C_17  and  C_18 
REMARK       I    between atoms: C_18  and  N_20 
REMARK   17  A    between atoms: N_20  and  CA_21 
REMARK   18  A    between atoms: CA_21  and  CB_22 
REMARK   19  A    between atoms: CA_21  and  C_27 
REMARK   20  A    between atoms: CB_22  and  CG_23 
REMARK   21  A    between atoms: CG_23  and  CD_24 
REMARK   22  A    between atoms: CD_24  and  OE2_26 
REMARK   23  A    between atoms: C_27  and  OXT_29 
ROOT
HETATM    1  C   UNK A   0      16.649   0.506  10.169  1.00  0.00     0.009 C 
ENDROOT
BRANCH   1   2
HETATM    2  C   UNK A   0      15.126   0.504  10.146  1.00  0.00     0.000 C 
BRANCH   2   3
HETATM    3  C   UNK A   0      14.630   0.435   8.706  1.00  0.00     0.000 C 
BRANCH   3   4
HETATM    4  C   UNK A   0      13.112   0.431   8.679  1.00  0.00     0.000 C 
BRANCH   4   5
HETATM    5  C   UNK A   0      12.606   0.360   7.248  1.00  0.00     0.000 C 
BRANCH   5   6
HETATM    6  C   UNK A   0      11.087   0.359   7.240  1.00  0.00     0.000 C 
BRANCH   6   7
HETATM    7  C   UNK A   0      10.575   0.289   5.813  1.00  0.00     0.000 C 
BRANCH   7   8
HETATM    8  C   UNK A   0       9.058   0.286   5.808  1.00  0.00     0.000 C 
BRANCH   8   9
HETATM    9  C   UNK A   0       8.546   0.217   4.381  1.00  0.00     0.000 C 
BRANCH   9  10
HETATM   10  C   UNK A   0       7.028   0.216   4.375  1.00  0.00     0.000 C 
BRANCH  10  11
HETATM   11  C   UNK A   0       6.516   0.145   2.947  1.00  0.00     0.000 C 
BRANCH  11  12
HETATM   12  C   UNK A   0       4.997   0.146   2.938  1.00  0.00     0.000 C 
BRANCH  12  13
HETATM   13  C   UNK A   0       4.482   0.076   1.509  1.00  0.00     0.000 C 
BRANCH  13  14
HETATM   14  C   UNK A   0       2.960   0.076   1.497  1.00  0.00    -0.000 C 
BRANCH  14  15
HETATM   15  C   UNK A   0       2.433   0.004   0.070  1.00  0.00    -0.005 C 
HETATM   16  C   UNK A   0       0.916   0.005   0.061  1.00  0.00     0.005 C 
ENDBRANCH  14  15
ENDBRANCH  13  14
ENDBRANCH  12  13
ENDBRANCH  11  12
ENDBRANCH  10  11
ENDBRANCH   9  10
ENDBRANCH   8   9
ENDBRANCH   7   8
ENDBRANCH   6   7
ENDBRANCH   5   6
ENDBRANCH   4   5
ENDBRANCH   3   4
ENDBRANCH   2   3
ENDBRANCH   1   2
BRANCH   1  17
HETATM   17  C   UNK A   0      17.204   0.582  11.588  1.00  0.00     0.103 C 
BRANCH  17  18
HETATM   18  C   UNK A   0      18.718   0.576  11.528  1.00  0.00     0.218 C 
HETATM   19  O   UNK A   0      19.338  -0.489  11.545  1.00  0.00    -0.274 OA
ATOM     20  N   GLU A   1      19.286   1.827  11.351  1.00  0.00    -0.347 N 
ATOM     21  H   GLU A   1      18.702   2.654  11.478  1.00  0.00     0.163 HD
BRANCH  20  22
ATOM     22  CA  GLU A   1      20.735   2.069  11.180  1.00  0.00     0.182 C 
BRANCH  22  23
ATOM     23  CB  GLU A   1      21.288   1.343   9.932  1.00  0.00     0.046 C 
BRANCH  23  24
ATOM     24  CG  GLU A   1      20.630   1.816   8.634  1.00  0.00     0.112 C 
BRANCH  24  25
ATOM     25  CD  GLU A   1      21.145   1.136   7.392  1.00  0.00     0.139 C 
ATOM     26  OE1 GLU A   1      21.998   0.271   7.345  1.00  0.00    -0.650 OA
BRANCH  25  27
ATOM     27  OE2 GLU A   1      20.497   1.631   6.302  1.00  0.00    -0.776 OA
ATOM     28  HE2 GLU A   1      19.828   2.321   6.500  1.00  0.00     0.167 HD
ENDBRANCH  25  27
ENDBRANCH  24  25
ENDBRANCH  23  24
ENDBRANCH  22  23
BRANCH  22  29
ATOM     29  C   GLU A   1      21.040   3.589  11.087  1.00  0.00     0.163 C 
ATOM     30  O   GLU A   1      20.182   4.460  11.102  1.00  0.00    -0.648 OA
BRANCH  29  31
ATOM     31  OXT GLU A   1      22.344   3.878  10.869  1.00  0.00    -0.775 OA
ATOM     32  HXT GLU A   1      22.946   3.113  10.916  1.00  0.00     0.167 HD
ENDBRANCH  29  31
ENDBRANCH  22  29
ENDBRANCH  20  22
ENDBRANCH  17  18
ENDBRANCH   1  17
TORSDOF 23
