REMARK WARNING: 32 MAX_TORS EXCEEDED!!!
REMARK  37 active torsions:
REMARK  status: ('A' for Active; 'I' for Inactive)
REMARK    1  A    between atoms: C_2  and  C_3 
REMARK    2  A    between atoms: C_3  and  C_4 
REMARK    3  A    between atoms: C_4  and  C_5 
REMARK    4  A    between atoms: C_5  and  C_6 
REMARK    5  A    between atoms: C_6  and  C_7 
REMARK    6  A    between atoms: C_7  and  C_8 
REMARK    7  A    between atoms: C_8  and  C_9 
REMARK    8  A    between atoms: C_9  and  C_10 
REMARK    9  A    between atoms: C_10  and  C_11 
REMARK   10  A    between atoms: C_11  and  C_12 
REMARK   11  A    between atoms: C_12  and  C_13 
REMARK   12  A    between atoms: C_13  and  C_14 
REMARK   13  A    between atoms: C_14  and  C_15 
REMARK   14  A    between atoms: C_15  and  C_16 
REMARK   15  A    between atoms: C_16  and  C_17 
REMARK   16  A    between atoms: C_17  and  C_18 
REMARK       I    between atoms: C_18  and  N_20 
REMARK   17  A    between atoms: N_20  and  C_21 
REMARK   18  A    between atoms: C_21  and  C_22 
REMARK   19  A    between atoms: C_22  and  C_23 
REMARK   20  A    between atoms: C_23  and  N_24 
REMARK   21  A    between atoms: C_29  and  C_30 
REMARK   22  A    between atoms: C_30  and  C_31 
REMARK   23  A    between atoms: C_31  and  C_32 
REMARK   24  A    between atoms: C_32  and  C_33 
REMARK   25  A    between atoms: C_33  and  C_34 
REMARK   26  A    between atoms: C_34  and  C_35 
REMARK   27  A    between atoms: C_35  and  C_36 
REMARK   28  A    between atoms: C_36  and  C_37 
REMARK   29  A    between atoms: C_37  and  C_38 
REMARK   30  A    between atoms: C_38  and  C_39 
REMARK   31  A    between atoms: C_39  and  C_40 
REMARK   32  A    between atoms: C_40  and  C_41 
REMARK   33  A    between atoms: C_41  and  C_42 
REMARK   34  A    between atoms: C_42  and  C_43 
REMARK   35  A    between atoms: C_43  and  C_44 
REMARK   36  A    between atoms: C_44  and  C_45 
REMARK   37  A    between atoms: C_45  and  O_47 
ROOT
HETATM    1  C   UNL     2       4.792  -7.287   9.498  1.00  0.00     0.000 C 
ENDROOT
BRANCH   1   2
HETATM    2  C   UNL     2       3.927  -7.355   8.254  1.00  0.00     0.000 C 
BRANCH   2   3
HETATM    3  C   UNL     2       4.075  -6.069   7.478  1.00  0.00     0.000 C 
BRANCH   3   4
HETATM    4  C   UNL     2       3.219  -6.103   6.226  1.00  0.00     0.000 C 
BRANCH   4   5
HETATM    5  C   UNL     2       3.434  -4.787   5.522  1.00  0.00     0.000 C 
BRANCH   5   6
HETATM    6  C   UNL     2       2.642  -4.667   4.241  1.00  0.00     0.000 C 
BRANCH   6   7
HETATM    7  C   UNL     2       2.987  -3.298   3.683  1.00  0.00     0.000 C 
BRANCH   7   8
HETATM    8  C   UNL     2       2.274  -3.037   2.385  1.00  0.00     0.000 C 
BRANCH   8   9
HETATM    9  C   UNL     2       2.628  -1.654   1.890  1.00  0.00    -0.000 C 
BRANCH   9  10
HETATM   10  C   UNL     2       1.924  -1.363   0.586  1.00  0.00    -0.005 C 
HETATM   11  C   UNL     2       0.408  -1.378   0.621  1.00  0.00     0.005 C 
ENDBRANCH   9  10
ENDBRANCH   8   9
ENDBRANCH   7   8
ENDBRANCH   6   7
ENDBRANCH   5   6
ENDBRANCH   4   5
ENDBRANCH   3   4
ENDBRANCH   2   3
ENDBRANCH   1   2
BRANCH   1  12
HETATM   12  C   UNL     2       4.646  -8.577  10.279  1.00  0.00     0.000 C 
BRANCH  12  13
HETATM   13  C   UNL     2       5.502  -8.537  11.532  1.00  0.00     0.000 C 
BRANCH  13  14
HETATM   14  C   UNL     2       5.343  -9.838  12.303  1.00  0.00     0.000 C 
BRANCH  14  15
HETATM   15  C   UNL     2       6.191  -9.822  13.567  1.00  0.00     0.001 C 
BRANCH  15  16
HETATM   16  C   UNL     2       6.025 -11.127  14.337  1.00  0.00     0.010 C 
BRANCH  16  17
HETATM   17  C   UNL     2       6.863 -11.118  15.610  1.00  0.00     0.110 C 
BRANCH  17  18
HETATM   18  C   UNL     2       6.709 -12.425  16.376  1.00  0.00     0.139 C 
HETATM   19  O   UNL     2       6.014 -13.360  16.041  1.00  0.00    -0.650 OA
BRANCH  18  20
HETATM   20  O   UNL     2       7.465 -12.414  17.508  1.00  0.00    -0.776 OA
HETATM   21  H   UNL     2       7.966 -11.586  17.654  1.00  0.00     0.167 HD
ENDBRANCH  18  20
ENDBRANCH  17  18
ENDBRANCH  16  17
ENDBRANCH  15  16
ENDBRANCH  14  15
ENDBRANCH  13  14
ENDBRANCH  12  13
ENDBRANCH   1  12
TORSDOF 37
