REMARK  20 active torsions:
REMARK  status: ('A' for Active; 'I' for Inactive)
REMARK    1  A    between atoms: C_2  and  C_3 
REMARK    2  A    between atoms: C_3  and  C_4 
REMARK    3  A    between atoms: C_4  and  C_5 
REMARK    4  A    between atoms: C_5  and  C_6 
REMARK    5  A    between atoms: C_6  and  C_7 
REMARK    6  A    between atoms: C_7  and  C_8 
REMARK    7  A    between atoms: C_8  and  C_9 
REMARK    8  A    between atoms: C_9  and  C_10 
REMARK    9  A    between atoms: C_10  and  C_11 
REMARK   10  A    between atoms: C_11  and  C_12 
REMARK   11  A    between atoms: C_12  and  C_13 
REMARK   12  A    between atoms: C_13  and  C_14 
REMARK   13  A    between atoms: C_14  and  C_15 
REMARK   14  A    between atoms: C_15  and  C_16 
REMARK   15  A    between atoms: C_16  and  C_17 
REMARK   16  A    between atoms: C_17  and  C_18 
REMARK       I    between atoms: C_18  and  N_20 
REMARK   17  A    between atoms: N_20  and  C_21 
REMARK   18  A    between atoms: C_21  and  C_22 
REMARK   19  A    between atoms: C_22  and  C_23 
REMARK   20  A    between atoms: C_23  and  N_24 
ROOT
HETATM    1  C   UNL     1      14.707   6.415  -5.639  1.00  0.00     0.000 C 
ENDROOT
BRANCH   1   2
HETATM    2  C   UNL     1      13.187   6.402  -5.625  1.00  0.00     0.000 C 
BRANCH   2   3
HETATM    3  C   UNL     1      12.674   5.334  -4.674  1.00  0.00     0.000 C 
BRANCH   3   4
HETATM    4  C   UNL     1      11.155   5.329  -4.669  1.00  0.00     0.000 C 
BRANCH   4   5
HETATM    5  C   UNL     1      10.642   4.264  -3.717  1.00  0.00     0.000 C 
BRANCH   5   6
HETATM    6  C   UNL     1       9.125   4.261  -3.712  1.00  0.00     0.000 C 
BRANCH   6   7
HETATM    7  C   UNL     1       8.613   3.194  -2.762  1.00  0.00     0.000 C 
BRANCH   7   8
HETATM    8  C   UNL     1       7.095   3.189  -2.758  1.00  0.00     0.000 C 
BRANCH   8   9
HETATM    9  C   UNL     1       6.584   2.123  -1.806  1.00  0.00     0.000 C 
BRANCH   9  10
HETATM   10  C   UNL     1       5.066   2.117  -1.800  1.00  0.00     0.000 C 
BRANCH  10  11
HETATM   11  C   UNL     1       4.552   1.050  -0.847  1.00  0.00     0.000 C 
BRANCH  11  12
HETATM   12  C   UNL     1       3.032   1.042  -0.840  1.00  0.00    -0.000 C 
BRANCH  12  13
HETATM   13  C   UNL     1       2.506  -0.024   0.112  1.00  0.00    -0.005 C 
HETATM   14  C   UNL     1       0.990  -0.028   0.119  1.00  0.00     0.005 C 
ENDBRANCH  12  13
ENDBRANCH  11  12
ENDBRANCH  10  11
ENDBRANCH   9  10
ENDBRANCH   8   9
ENDBRANCH   7   8
ENDBRANCH   6   7
ENDBRANCH   5   6
ENDBRANCH   4   5
ENDBRANCH   3   4
ENDBRANCH   2   3
ENDBRANCH   1   2
BRANCH   1  15
HETATM   15  C   UNL     1      15.220   7.489  -6.596  1.00  0.00     0.000 C 
BRANCH  15  16
HETATM   16  C   UNL     1      16.731   7.502  -6.607  1.00  0.00     0.009 C 
BRANCH  16  17
HETATM   17  C   UNL     1      17.313   8.559  -7.551  1.00  0.00     0.103 C 
BRANCH  17  18
HETATM   18  C   UNL     1      18.816   8.519  -7.511  1.00  0.00     0.217 C 
HETATM   19  O   UNL     1      19.430   7.705  -6.815  1.00  0.00    -0.274 OA
HETATM   20  N   UNL     1      19.453   9.449  -8.303  1.00  0.00    -0.361 N 
HETATM   21  H   UNL     1      18.926  10.093  -8.884  1.00  0.00     0.162 HD
BRANCH  20  22
HETATM   22  C   UNL     1      20.898   9.468  -8.368  1.00  0.00     0.124 C 
BRANCH  22  23
HETATM   23  C   UNL     1      21.444   8.516  -9.434  1.00  0.00     0.050 C 
BRANCH  23  24
HETATM   24  C   UNL     1      20.981   8.895 -10.850  1.00  0.00     0.273 C 
BRANCH  24  25
HETATM   25  N   UNL     1      21.363  10.269 -11.221  1.00  0.00     0.080 N 
HETATM   26  C   UNL     1      22.825  10.436 -11.219  1.00  0.00     0.309 C 
HETATM   27  C   UNL     1      20.857  10.589 -12.562  1.00  0.00     0.309 C 
ENDBRANCH  24  25
ENDBRANCH  23  24
ENDBRANCH  22  23
ENDBRANCH  20  22
ENDBRANCH  17  18
ENDBRANCH  16  17
ENDBRANCH  15  16
ENDBRANCH   1  15
TORSDOF 20
