REMARK  13 active torsions:
REMARK  status: ('A' for Active; 'I' for Inactive)
REMARK    1  A    between atoms: C_1  and  C_2 
REMARK    2  A    between atoms: C_1  and  O_23 
REMARK    3  A    between atoms: C_3  and  O_22 
REMARK    4  A    between atoms: C_4  and  O_21 
REMARK    5  A    between atoms: C_5  and  O_20 
REMARK    6  A    between atoms: C_6  and  O_8 
REMARK    7  A    between atoms: O_8  and  C_9 
REMARK    8  A    between atoms: C_9  and  C_18 
REMARK    9  A    between atoms: C_10  and  O_17 
REMARK   10  A    between atoms: C_11  and  O_16 
REMARK   11  A    between atoms: C_12  and  C_14 
REMARK   12  A    between atoms: C_14  and  O_15 
REMARK   13  A    between atoms: C_18  and  O_19 
ROOT
HETATM    1  O   UNL     1      -0.716   3.789   0.705  1.00  0.00    -0.318 OA
ENDROOT
BRANCH   1   2
HETATM    2  C   UNL     1       0.292   2.823   0.403  1.00  0.00     0.295 C 
HETATM    3  C   UNL     1      -0.348   1.947  -0.700  1.00  0.00     0.204 C 
HETATM    4  C   UNL     1       0.554   0.768  -1.056  1.00  0.00     0.183 C 
HETATM    5  C   UNL     1       0.911  -0.029   0.208  1.00  0.00     0.180 C 
HETATM    6  C   UNL     1       1.439   0.892   1.330  1.00  0.00     0.179 C 
HETATM    7  O   UNL     1       0.585   2.033   1.550  1.00  0.00    -0.348 OA
BRANCH   3   8
HETATM    8  O   UNL     1      -1.613   1.415  -0.221  1.00  0.00    -0.388 OA
HETATM    9  H   UNL     1      -2.008   2.149   0.295  1.00  0.00     0.210 HD
ENDBRANCH   3   8
BRANCH   4  10
HETATM   10  O   UNL     1      -0.103  -0.080  -2.006  1.00  0.00    -0.390 OA
HETATM   11  H   UNL     1      -0.953  -0.328  -1.587  1.00  0.00     0.210 HD
ENDBRANCH   4  10
BRANCH   5  12
HETATM   12  O   UNL     1      -0.260  -0.717   0.695  1.00  0.00    -0.390 OA
HETATM   13  H   UNL     1      -0.989  -0.061   0.711  1.00  0.00     0.210 HD
ENDBRANCH   5  12
BRANCH   6  14
HETATM   14  C   UNL     1       2.903   1.317   1.138  1.00  0.00     0.198 C 
BRANCH  14  15
HETATM   15  O   UNL     1       3.120   1.977  -0.105  1.00  0.00    -0.398 OA
HETATM   16  H   UNL     1       3.626   1.372  -0.679  1.00  0.00     0.209 HD
ENDBRANCH  14  15
ENDBRANCH   6  14
ENDBRANCH   1   2
BRANCH   1  17
HETATM   17  C   UNL     1      -0.440   4.832   1.644  1.00  0.00     0.217 C 
HETATM   18  C   UNL     1       0.776   5.735   1.292  1.00  0.00     0.214 C 
HETATM   19  C   UNL     1       1.795   5.408   2.374  1.00  0.00     0.183 C 
HETATM   20  C   UNL     1       0.960   4.887   3.536  1.00  0.00     0.180 C 
HETATM   21  O   UNL     1      -0.239   4.319   2.975  1.00  0.00    -0.341 OA
BRANCH  18  22
HETATM   22  O   UNL     1       0.553   7.158   1.318  1.00  0.00    -0.387 OA
HETATM   23  H   UNL     1      -0.246   7.347   1.854  1.00  0.00     0.210 HD
ENDBRANCH  18  22
BRANCH  19  24
HETATM   24  O   UNL     1       2.611   6.524   2.711  1.00  0.00    -0.390 OA
HETATM   25  H   UNL     1       2.207   7.298   2.251  1.00  0.00     0.210 HD
ENDBRANCH  19  24
BRANCH  20  26
HETATM   26  C   UNL     1       0.602   5.934   4.602  1.00  0.00     0.198 C 
BRANCH  26  27
HETATM   27  O   UNL     1      -0.359   5.412   5.525  1.00  0.00    -0.398 OA
HETATM   28  H   UNL     1      -0.247   4.446   5.555  1.00  0.00     0.209 HD
ENDBRANCH  26  27
ENDBRANCH  20  26
BRANCH  17  29
HETATM   29  C   UNL     1      -1.778   5.617   1.683  1.00  0.00     0.235 C 
BRANCH  29  30
HETATM   30  O   UNL     1      -1.747   6.721   2.589  1.00  0.00    -0.395 OA
HETATM   31  H   UNL     1      -1.914   6.342   3.478  1.00  0.00     0.209 HD
ENDBRANCH  29  30
ENDBRANCH  17  29
ENDBRANCH   1  17
TORSDOF 13
