REMARK  7 active torsions:
REMARK  status: ('A' for Active; 'I' for Inactive)
REMARK    1  A    between atoms: C_1  and  C_2 
REMARK    2  A    between atoms: C_1  and  C_7 
REMARK    3  A    between atoms: C_1  and  O_10 
REMARK    4  A    between atoms: C_2  and  C_3 
REMARK    5  A    between atoms: C_2  and  O_6 
REMARK    6  A    between atoms: C_3  and  O_5 
REMARK    7  A    between atoms: C_7  and  O_9 
ROOT
HETATM    1  C   UNL     1       0.888  -0.002   0.025  1.00  0.00     0.254 C 
ENDROOT
BRANCH   1   2
HETATM    2  C   UNL     1       0.469  -0.003   1.503  1.00  0.00     0.254 C 
BRANCH   2   3
HETATM    3  C   UNL     1       1.179   1.099   2.276  1.00  0.00     0.172 C 
HETATM    4  O   UNL     1       2.293   1.516   1.995  1.00  0.00    -0.648 OA
BRANCH   3   5
HETATM    5  O   UNL     1       0.454   1.529   3.336  1.00  0.00    -0.774 OA
HETATM    6  H   UNL     1      -0.412   1.060   3.353  1.00  0.00     0.167 HD
ENDBRANCH   3   5
ENDBRANCH   2   3
BRANCH   2   7
HETATM    7  O   UNL     1      -0.947   0.125   1.700  1.00  0.00    -0.382 OA
HETATM    8  H   UNL     1      -1.253   0.883   1.149  1.00  0.00     0.210 HD
ENDBRANCH   2   7
ENDBRANCH   1   2
BRANCH   1   9
HETATM    9  C   UNL     1       0.463   1.286  -0.667  1.00  0.00     0.172 C 
HETATM   10  O   UNL     1      -0.524   1.936  -0.349  1.00  0.00    -0.648 OA
BRANCH   9  11
HETATM   11  O   UNL     1       1.276   1.602  -1.701  1.00  0.00    -0.774 OA
HETATM   12  H   UNL     1       2.009   0.945  -1.757  1.00  0.00     0.167 HD
ENDBRANCH   9  11
ENDBRANCH   1   9
BRANCH   1  13
HETATM   13  O   UNL     1       2.295  -0.200  -0.175  1.00  0.00    -0.382 OA
HETATM   14  H   UNL     1       2.768   0.425   0.424  1.00  0.00     0.210 HD
ENDBRANCH   1  13
TORSDOF 7
