REMARK WARNING: 32 MAX_TORS EXCEEDED!!!
REMARK  62 active torsions:
REMARK  status: ('A' for Active; 'I' for Inactive)
REMARK    1  A    between atoms: C_2  and  C_3 
REMARK    2  A    between atoms: C_3  and  C_4 
REMARK    3  A    between atoms: C_4  and  C_5 
REMARK    4  A    between atoms: C_5  and  C_6 
REMARK    5  A    between atoms: C_6  and  C_7 
REMARK    6  A    between atoms: C_7  and  C_8 
REMARK    7  A    between atoms: C_8  and  C_9 
REMARK    8  A    between atoms: C_9  and  C_10 
REMARK    9  A    between atoms: C_9  and  C_16 
REMARK   10  A    between atoms: C_10  and  C_11 
REMARK   11  A    between atoms: C_11  and  C_12 
REMARK   12  A    between atoms: C_12  and  C_13 
REMARK   13  A    between atoms: C_13  and  C_14 
REMARK   14  A    between atoms: C_16  and  O_18 
REMARK   15  A    between atoms: O_18  and  C_19 
REMARK   16  A    between atoms: C_19  and  C_20 
REMARK   17  A    between atoms: C_20  and  C_21 
REMARK   18  A    between atoms: C_20  and  O_63 
REMARK   19  A    between atoms: C_22  and  O_45 
REMARK   20  A    between atoms: C_23  and  O_27 
REMARK   21  A    between atoms: O_27  and  C_28 
REMARK   22  A    between atoms: C_28  and  C_30 
REMARK   23  A    between atoms: C_30  and  C_31 
REMARK   24  A    between atoms: C_30  and  C_37 
REMARK   25  A    between atoms: C_31  and  C_32 
REMARK   26  A    between atoms: C_32  and  C_33 
REMARK   27  A    between atoms: C_33  and  C_34 
REMARK   28  A    between atoms: C_34  and  C_35 
REMARK   29  A    between atoms: C_37  and  C_38 
REMARK   30  A    between atoms: C_38  and  C_39 
REMARK   31  A    between atoms: C_39  and  C_40 
REMARK   32  A    between atoms: C_40  and  C_41 
REMARK   33  A    between atoms: C_41  and  C_42 
REMARK   34  A    between atoms: C_42  and  C_43 
REMARK   35  A    between atoms: O_45  and  C_46 
REMARK   36  A    between atoms: C_46  and  C_48 
REMARK   37  A    between atoms: C_48  and  C_49 
REMARK   38  A    between atoms: C_48  and  C_55 
REMARK   39  A    between atoms: C_49  and  C_50 
REMARK   40  A    between atoms: C_50  and  C_51 
REMARK   41  A    between atoms: C_51  and  C_52 
REMARK   42  A    between atoms: C_52  and  C_53 
REMARK   43  A    between atoms: C_55  and  C_56 
REMARK   44  A    between atoms: C_56  and  C_57 
REMARK   45  A    between atoms: C_57  and  C_58 
REMARK   46  A    between atoms: C_58  and  C_59 
REMARK   47  A    between atoms: C_59  and  C_60 
REMARK   48  A    between atoms: C_60  and  C_61 
REMARK   49  A    between atoms: O_63  and  C_64 
REMARK   50  A    between atoms: C_64  and  C_66 
REMARK   51  A    between atoms: C_66  and  C_67 
REMARK   52  A    between atoms: C_66  and  C_73 
REMARK   53  A    between atoms: C_67  and  C_68 
REMARK   54  A    between atoms: C_68  and  C_69 
REMARK   55  A    between atoms: C_69  and  C_70 
REMARK   56  A    between atoms: C_70  and  C_71 
REMARK   57  A    between atoms: C_73  and  C_74 
REMARK   58  A    between atoms: C_74  and  C_75 
REMARK   59  A    between atoms: C_75  and  C_76 
REMARK   60  A    between atoms: C_76  and  C_77 
REMARK   61  A    between atoms: C_77  and  C_78 
REMARK   62  A    between atoms: C_78  and  C_79 
ROOT
HETATM    1  C   UNL     1      12.446  -4.829   7.784  1.00  0.00     0.224 C 
HETATM    2  C   UNL     1      12.899  -5.860   6.803  1.00  0.00     0.129 C 
HETATM    3  C   UNL     1      12.859  -7.076   7.341  1.00  0.00     0.186 C 
HETATM    4  C   UNL     1      12.638  -6.892   8.783  1.00  0.00     0.321 C 
HETATM    5  O   UNL     1      12.671  -7.761   9.627  1.00  0.00    -0.257 OA
HETATM    6  O   UNL     1      12.478  -5.550   9.028  1.00  0.00    -0.301 OA
ENDROOT
BRANCH   1   7
HETATM    7  C   UNL     1      13.135  -3.450   7.965  1.00  0.00     0.192 C 
BRANCH   7   8
HETATM    8  C   UNL     1      12.991  -2.545   6.715  1.00  0.00     0.214 C 
BRANCH   8   9
HETATM    9  O   UNL     1      11.610  -2.330   6.288  1.00  0.00    -0.319 OA
BRANCH   9  10
HETATM   10  C   UNL     1      10.830  -1.580   7.126  1.00  0.00     0.263 C 
HETATM   11  O   UNL     1      11.238  -1.128   8.187  1.00  0.00    -0.265 OA
BRANCH  10  12
HETATM   12  C   UNL     1       9.360  -1.485   6.678  1.00  0.00     0.085 C 
BRANCH  12  13
HETATM   13  C   UNL     1       8.534  -0.830   7.821  1.00  0.00     0.014 C 
BRANCH  13  14
HETATM   14  C   UNL     1       7.014  -0.792   7.655  1.00  0.00     0.001 C 
BRANCH  14  15
HETATM   15  C   UNL     1       6.331  -2.155   7.562  1.00  0.00     0.000 C 
BRANCH  15  16
HETATM   16  C   UNL     1       4.827  -1.931   7.388  1.00  0.00     0.000 C 
BRANCH  16  17
HETATM   17  C   UNL     1       4.049  -3.235   7.297  1.00  0.00     0.000 C 
BRANCH  17  18
HETATM   18  C   UNL     1       2.557  -2.954   7.118  1.00  0.00    -0.000 C 
BRANCH  18  19
HETATM   19  C   UNL     1       1.772  -4.259   7.029  1.00  0.00    -0.005 C 
HETATM   20  C   UNL     1       0.286  -4.003   6.852  1.00  0.00     0.005 C 
ENDBRANCH  18  19
ENDBRANCH  17  18
ENDBRANCH  16  17
ENDBRANCH  15  16
ENDBRANCH  14  15
ENDBRANCH  13  14
ENDBRANCH  12  13
BRANCH  12  21
HETATM   21  C   UNL     1       9.143  -0.790   5.312  1.00  0.00     0.014 C 
BRANCH  21  22
HETATM   22  C   UNL     1       9.531   0.695   5.283  1.00  0.00     0.001 C 
BRANCH  22  23
HETATM   23  C   UNL     1       9.199   1.458   3.991  1.00  0.00     0.000 C 
BRANCH  23  24
HETATM   24  C   UNL     1       7.709   1.453   3.643  1.00  0.00    -0.000 C 
BRANCH  24  25
HETATM   25  C   UNL     1       7.405   2.268   2.386  1.00  0.00    -0.005 C 
HETATM   26  C   UNL     1       5.918   2.229   2.063  1.00  0.00     0.005 C 
ENDBRANCH  24  25
ENDBRANCH  23  24
ENDBRANCH  22  23
ENDBRANCH  21  22
ENDBRANCH  12  21
ENDBRANCH  10  12
ENDBRANCH   9  10
ENDBRANCH   8   9
ENDBRANCH   7   8
BRANCH   7  27
HETATM   27  O   UNL     1      14.525  -3.594   8.378  1.00  0.00    -0.310 OA
BRANCH  27  28
HETATM   28  C   UNL     1      15.007  -2.567   9.153  1.00  0.00     0.263 C 
HETATM   29  O   UNL     1      14.393  -1.535   9.388  1.00  0.00    -0.265 OA
BRANCH  28  30
HETATM   30  C   UNL     1      16.427  -2.833   9.641  1.00  0.00     0.085 C 
BRANCH  30  31
HETATM   31  C   UNL     1      17.386  -2.317   8.553  1.00  0.00     0.014 C 
BRANCH  31  32
HETATM   32  C   UNL     1      18.859  -2.545   8.884  1.00  0.00     0.001 C 
BRANCH  32  33
HETATM   33  C   UNL     1      19.768  -1.998   7.789  1.00  0.00     0.000 C 
BRANCH  33  34
HETATM   34  C   UNL     1      21.226  -2.223   8.176  1.00  0.00    -0.000 C 
BRANCH  34  35
HETATM   35  C   UNL     1      22.171  -1.691   7.107  1.00  0.00    -0.005 C 
HETATM   36  C   UNL     1      23.616  -1.932   7.507  1.00  0.00     0.005 C 
ENDBRANCH  34  35
ENDBRANCH  33  34
ENDBRANCH  32  33
ENDBRANCH  31  32
ENDBRANCH  30  31
BRANCH  30  37
HETATM   37  C   UNL     1      16.698  -2.122  10.987  1.00  0.00     0.014 C 
BRANCH  37  38
HETATM   38  C   UNL     1      15.812  -2.599  12.134  1.00  0.00     0.001 C 
BRANCH  38  39
HETATM   39  C   UNL     1      16.144  -1.841  13.421  1.00  0.00     0.000 C 
BRANCH  39  40
HETATM   40  C   UNL     1      15.236  -2.296  14.559  1.00  0.00     0.000 C 
BRANCH  40  41
HETATM   41  C   UNL     1      15.554  -1.552  15.852  1.00  0.00     0.000 C 
BRANCH  41  42
HETATM   42  C   UNL     1      14.649  -2.030  16.985  1.00  0.00    -0.000 C 
BRANCH  42  43
HETATM   43  C   UNL     1      14.954  -1.286  18.282  1.00  0.00    -0.005 C 
HETATM   44  C   UNL     1      14.053  -1.760  19.410  1.00  0.00     0.005 C 
ENDBRANCH  42  43
ENDBRANCH  41  42
ENDBRANCH  40  41
ENDBRANCH  39  40
ENDBRANCH  38  39
ENDBRANCH  37  38
ENDBRANCH  30  37
ENDBRANCH  28  30
ENDBRANCH  27  28
ENDBRANCH   7  27
ENDBRANCH   1   7
BRANCH   2  45
HETATM   45  O   UNL     1      13.034  -5.548   5.448  1.00  0.00    -0.277 OA
BRANCH  45  46
HETATM   46  C   UNL     1      13.792  -6.412   4.683  1.00  0.00     0.268 C 
HETATM   47  O   UNL     1      14.806  -6.978   5.059  1.00  0.00    -0.264 OA
BRANCH  46  48
HETATM   48  C   UNL     1      13.143  -6.590   3.319  1.00  0.00     0.086 C 
BRANCH  48  49
HETATM   49  C   UNL     1      12.633  -5.240   2.774  1.00  0.00     0.014 C 
BRANCH  49  50
HETATM   50  C   UNL     1      11.882  -5.321   1.437  1.00  0.00     0.001 C 
BRANCH  50  51
HETATM   51  C   UNL     1      10.582  -6.118   1.516  1.00  0.00     0.000 C 
BRANCH  51  52
HETATM   52  C   UNL     1       9.614  -5.588   2.576  1.00  0.00    -0.000 C 
BRANCH  52  53
HETATM   53  C   UNL     1       9.242  -4.149   2.243  1.00  0.00    -0.005 C 
HETATM   54  C   UNL     1       8.349  -3.549   3.297  1.00  0.00     0.005 C 
ENDBRANCH  52  53
ENDBRANCH  51  52
ENDBRANCH  50  51
ENDBRANCH  49  50
ENDBRANCH  48  49
BRANCH  48  55
HETATM   55  C   UNL     1      13.999  -7.338   2.270  1.00  0.00     0.014 C 
BRANCH  55  56
HETATM   56  C   UNL     1      14.763  -8.650   2.581  1.00  0.00     0.001 C 
BRANCH  56  57
HETATM   57  C   UNL     1      14.032  -9.936   3.065  1.00  0.00     0.000 C 
BRANCH  57  58
HETATM   58  C   UNL     1      13.190 -10.674   2.054  1.00  0.00     0.000 C 
BRANCH  58  59
HETATM   59  C   UNL     1      11.793 -11.980   1.837  1.00  0.00     0.000 C 
BRANCH  59  60
HETATM   60  C   UNL     1      10.439 -11.793   0.534  1.00  0.00    -0.000 C 
BRANCH  60  61
HETATM   61  C   UNL     1       9.384 -12.801   0.574  1.00  0.00    -0.005 C 
HETATM   62  C   UNL     1       8.663 -12.727  -0.770  1.00  0.00     0.005 C 
ENDBRANCH  60  61
ENDBRANCH  59  60
ENDBRANCH  58  59
ENDBRANCH  57  58
ENDBRANCH  56  57
ENDBRANCH  55  56
ENDBRANCH  48  55
ENDBRANCH  46  48
ENDBRANCH  45  46
ENDBRANCH   2  45
BRANCH   3  63
HETATM   63  O   UNL     1      13.025  -8.320   6.717  1.00  0.00    -0.270 OA
BRANCH  63  64
HETATM   64  C   UNL     1      11.907  -9.140   6.837  1.00  0.00     0.268 C 
HETATM   65  O   UNL     1      10.918  -8.869   7.377  1.00  0.00    -0.264 OA
BRANCH  64  66
HETATM   66  C   UNL     1      12.138 -10.397   5.939  1.00  0.00     0.086 C 
BRANCH  66  67
HETATM   67  C   UNL     1      12.840 -11.557   6.655  1.00  0.00     0.014 C 
BRANCH  67  68
HETATM   68  C   UNL     1      13.234 -12.796   5.791  1.00  0.00     0.001 C 
BRANCH  68  69
HETATM   69  C   UNL     1      14.243 -12.510   4.690  1.00  0.00     0.000 C 
BRANCH  69  70
HETATM   70  C   UNL     1      15.532 -11.842   5.169  1.00  0.00    -0.000 C 
BRANCH  70  71
HETATM   71  C   UNL     1      16.277 -12.792   6.088  1.00  0.00    -0.005 C 
HETATM   72  C   UNL     1      17.526 -12.166   6.661  1.00  0.00     0.005 C 
ENDBRANCH  70  71
ENDBRANCH  69  70
ENDBRANCH  68  69
ENDBRANCH  67  68
ENDBRANCH  66  67
BRANCH  66  73
HETATM   73  C   UNL     1      10.837 -10.824   5.228  1.00  0.00     0.014 C 
BRANCH  73  74
HETATM   74  C   UNL     1       9.961  -9.797   4.426  1.00  0.00     0.001 C 
BRANCH  74  75
HETATM   75  C   UNL     1      10.534  -8.948   3.212  1.00  0.00     0.000 C 
BRANCH  75  76
HETATM   76  C   UNL     1      10.773  -9.787   1.975  1.00  0.00     0.000 C 
BRANCH  76  77
HETATM   77  C   UNL     1      11.792  -9.826   0.323  1.00  0.00     0.000 C 
BRANCH  77  78
HETATM   78  C   UNL     1      12.701 -11.368  -0.298  1.00  0.00    -0.000 C 
BRANCH  78  79
HETATM   79  C   UNL     1      13.552 -11.159  -1.508  1.00  0.00    -0.005 C 
HETATM   80  C   UNL     1      13.837 -12.518  -2.135  1.00  0.00     0.005 C 
ENDBRANCH  78  79
ENDBRANCH  77  78
ENDBRANCH  76  77
ENDBRANCH  75  76
ENDBRANCH  74  75
ENDBRANCH  73  74
ENDBRANCH  66  73
ENDBRANCH  64  66
ENDBRANCH  63  64
ENDBRANCH   3  63
TORSDOF 62
