REMARK  12 active torsions:
REMARK  status: ('A' for Active; 'I' for Inactive)
REMARK    1  A    between atoms: C_1  and  C_2 
REMARK    2  A    between atoms: C_1  and  N_12 
REMARK    3  A    between atoms: C_2  and  N_3 
REMARK    4  A    between atoms: N_3  and  C_4 
REMARK    5  A    between atoms: N_3  and  C_8 
REMARK    6  A    between atoms: C_4  and  C_5 
REMARK    7  A    between atoms: C_8  and  C_9 
REMARK    8  A    between atoms: N_12  and  C_13 
REMARK    9  A    between atoms: N_12  and  C_17 
REMARK   10  A    between atoms: C_13  and  C_14 
REMARK   11  A    between atoms: C_17  and  C_18 
REMARK   12  A    between atoms: C_18  and  O_19 
ROOT
HETATM    1 NA   UNL     3       3.779   0.137   2.141  1.00  0.00     0.000 Na
ENDROOT
TORSDOF 12
