REMARK  14 active torsions:
REMARK  status: ('A' for Active; 'I' for Inactive)
REMARK    1  A    between atoms: C_2  and  C_4 
REMARK    2  A    between atoms: C_4  and  C_5 
REMARK    3  A    between atoms: C_5  and  C_6 
REMARK    4  A    between atoms: C_5  and  N_18 
REMARK       I    between atoms: C_6  and  N_8 
REMARK    5  A    between atoms: N_8  and  C_9 
REMARK    6  A    between atoms: C_9  and  C_10 
REMARK    7  A    between atoms: C_9  and  C_15 
REMARK    8  A    between atoms: C_10  and  C_11 
REMARK    9  A    between atoms: C_11  and  C_12 
REMARK       I    between atoms: C_12  and  N_14 
REMARK       I    between atoms: C_15  and  N_17 
REMARK       I    between atoms: N_18  and  C_19 
REMARK   10  A    between atoms: C_19  and  C_21 
REMARK       I    between atoms: N_25  and  C_26 
REMARK   11  A    between atoms: C_26  and  CA_28 
REMARK   12  A    between atoms: CA_28  and  C_29 
REMARK   13  A    between atoms: CA_28  and  N_31 
REMARK   14  A    between atoms: C_29  and  O_30 
ROOT
HETATM    1  C   UNL     1       4.591  -1.216  -0.022  1.00  0.00     0.177 C 
ENDROOT
BRANCH   1   2
HETATM    2  C   UNL     1       3.039  -1.266   0.134  1.00  0.00     0.038 C 
BRANCH   2   3
HETATM    3  C   UNL     1       2.235  -0.005  -0.262  1.00  0.00    -0.020 C 
HETATM    4  C   UNL     1       2.388   0.365  -1.739  1.00  0.00     0.009 C 
HETATM    5  C   UNL     1       0.738  -0.153   0.060  1.00  0.00     0.009 C 
ENDBRANCH   2   3
ENDBRANCH   1   2
BRANCH   1   6
HETATM    6  C   UNL     1       5.211  -0.147   0.932  1.00  0.00     0.241 C 
HETATM    7  O   UNL     1       5.791  -0.487   1.964  1.00  0.00    -0.271 OA
HETATM    8  N   UNL     1       5.053   1.190   0.605  1.00  0.00    -0.346 N 
HETATM    9  H   UNL     1       4.508   1.470  -0.205  1.00  0.00     0.163 HD
BRANCH   8  10
HETATM   10  C   UNL     1       5.388   2.253   1.564  1.00  0.00     0.176 C 
BRANCH  10  11
HETATM   11  C   UNL     1       6.857   2.686   1.478  1.00  0.00     0.044 C 
BRANCH  11  12
HETATM   12  C   UNL     1       7.240   3.355   0.155  1.00  0.00     0.105 C 
BRANCH  12  13
HETATM   13  C   UNL     1       8.700   3.757   0.141  1.00  0.00     0.215 C 
HETATM   14  O   UNL     1       9.474   3.610   1.078  1.00  0.00    -0.274 OA
HETATM   15  N   UNL     1       9.111   4.334  -1.024  1.00  0.00    -0.370 N 
HETATM   16  H   UNL     1       8.494   4.517  -1.803  1.00  0.00     0.159 HD
HETATM   17  H   UNL     1      10.076   4.635  -1.085  1.00  0.00     0.159 HD
ENDBRANCH  12  13
ENDBRANCH  11  12
ENDBRANCH  10  11
BRANCH  10  18
HETATM   18  C   UNL     1       4.426   3.456   1.431  1.00  0.00     0.238 C 
HETATM   19  O   UNL     1       3.611   3.564   0.519  1.00  0.00    -0.271 OA
HETATM   20  N   UNL     1       4.538   4.423   2.391  1.00  0.00    -0.368 N 
HETATM   21  H   UNL     1       5.168   4.352   3.180  1.00  0.00     0.159 HD
HETATM   22  H   UNL     1       3.909   5.217   2.353  1.00  0.00     0.159 HD
ENDBRANCH  10  18
ENDBRANCH   8  10
ENDBRANCH   1   6
BRANCH   1  23
HETATM   23  N   UNL     1       5.186  -2.535   0.359  1.00  0.00    -0.346 N 
HETATM   24  C   UNL     1       5.294  -3.605  -0.502  1.00  0.00     0.241 C 
HETATM   25  O   UNL     1       4.936  -3.496  -1.681  1.00  0.00    -0.271 OA
HETATM   26  H   UNL     1       5.678  -2.572   1.249  1.00  0.00     0.163 HD
BRANCH  24  27
HETATM   27  C   UNL     1       5.635  -5.042   0.072  1.00  0.00     0.179 C 
HETATM   28  C   UNL     1       4.444  -5.364   1.011  1.00  0.00     0.037 C 
HETATM   29  C   UNL     1       4.789  -6.691   1.648  1.00  0.00     0.022 C 
HETATM   30  C   UNL     1       6.297  -6.663   1.735  1.00  0.00     0.127 C 
HETATM   31  N   UNL     1       6.773  -5.569   0.879  1.00  0.00    -0.337 N 
HETATM   32  C   UNL     1       8.122  -5.709   0.558  1.00  0.00     0.256 C 
HETATM   33  O   UNL     1       8.796  -6.588   1.126  1.00  0.00    -0.271 OA
BRANCH  32  34
HETATM   34  CA  UNL     1       8.882  -4.808  -0.419  1.00  0.00     0.332 C 
BRANCH  34  35
HETATM   35  C   UNL     1       9.541  -5.688  -1.500  1.00  0.00     0.209 C 
BRANCH  35  36
HETATM   36  O   UNL     1      10.281  -4.891  -2.428  1.00  0.00    -0.398 OA
HETATM   37  H   UNL     1       9.636  -4.372  -2.935  1.00  0.00     0.209 HD
ENDBRANCH  35  36
ENDBRANCH  34  35
BRANCH  34  38
HETATM   38  N   UNL     1       8.114  -3.693  -0.990  1.00  0.00     0.094 N 
HETATM   39  H1  UNL     1       7.566  -4.017  -1.785  1.00  0.00     0.314 HD
HETATM   40  H2  UNL     1       8.788  -3.022  -1.364  1.00  0.00     0.314 HD
ENDBRANCH  34  38
ENDBRANCH  32  34
ENDBRANCH  24  27
ENDBRANCH   1  23
TORSDOF 14
