REMARK  6 active torsions:
REMARK  status: ('A' for Active; 'I' for Inactive)
REMARK    1  A    between atoms: C_5  and  C_6 
REMARK    2  A    between atoms: C_6  and  C_7 
REMARK    3  A    between atoms: C_7  and  C_8 
REMARK    4  A    between atoms: C_8  and  C_9 
REMARK    5  A    between atoms: C_9  and  C_10 
REMARK    6  A    between atoms: C_10  and  O_12 
ROOT
HETATM    1  C   UNL     1      -1.451   2.541  -2.379  1.00  0.00     0.002 C 
ENDROOT
BRANCH   1   2
HETATM    2  C   UNL     1      -1.198   1.099  -1.928  1.00  0.00     0.016 C 
BRANCH   2   3
HETATM    3  C   UNL     1      -1.245   0.930  -0.401  1.00  0.00     0.059 C 
HETATM    4  C   UNL     1      -0.164   1.696   0.374  1.00  0.00     0.027 C 
HETATM    5  C   UNL     1       1.223   1.133   0.077  1.00  0.00     0.087 C 
HETATM    6  S   UNL     1       1.110  -0.676   0.139  1.00  0.00    -0.097 SA
HETATM    7  S   UNL     1      -0.936  -0.814   0.029  1.00  0.00    -0.093 SA
ENDBRANCH   2   3
ENDBRANCH   1   2
BRANCH   1   8
HETATM    8  C   UNL     1      -1.392   2.648  -3.903  1.00  0.00     0.010 C 
BRANCH   8   9
HETATM    9  C   UNL     1      -1.637   4.078  -4.379  1.00  0.00     0.110 C 
BRANCH   9  10
HETATM   10  C   UNL     1      -1.574   4.175  -5.885  1.00  0.00     0.139 C 
HETATM   11  O   UNL     1      -1.355   3.248  -6.646  1.00  0.00    -0.650 OA
BRANCH  10  12
HETATM   12  O   UNL     1      -1.788   5.436  -6.328  1.00  0.00    -0.776 OA
HETATM   13  H   UNL     1      -1.949   6.083  -5.616  1.00  0.00     0.167 HD
ENDBRANCH  10  12
ENDBRANCH   9  10
ENDBRANCH   8   9
ENDBRANCH   1   8
TORSDOF 6
