REMARK  5 active torsions:
REMARK  status: ('A' for Active; 'I' for Inactive)
REMARK    1  A    between atoms: CB_2  and  CA_3 
REMARK    2  A    between atoms: CB_2  and  OG1_8 
REMARK    3  A    between atoms: CA_3  and  C_4 
REMARK    4  A    between atoms: CA_3  and  N_7 
REMARK    5  A    between atoms: C_4  and  OXT_6 
ROOT
ATOM      1  CA  THR A   1       3.192   0.407  -1.390  1.00  0.00     0.342 C 
ENDROOT
BRANCH   1   2
ATOM      2  CB  THR A   1       2.706   0.018   0.021  1.00  0.00     0.157 C 
ATOM      3  CG2 THR A   1       3.120   1.030   1.086  1.00  0.00     0.042 C 
BRANCH   2   4
ATOM      4  OG1 THR A   1       3.237  -1.289   0.345  1.00  0.00    -0.393 OA
ATOM      5  HG1 THR A   1       3.437  -1.297   1.302  1.00  0.00     0.210 HD
ENDBRANCH   2   4
ENDBRANCH   1   2
BRANCH   1   6
ATOM      6  C   THR A   1       4.724   0.357  -1.457  1.00  0.00     0.176 C 
ATOM      7  O   THR A   1       5.430   1.306  -1.778  1.00  0.00    -0.648 OA
BRANCH   6   8
ATOM      8  OXT THR A   1       5.240  -0.867  -1.175  1.00  0.00    -0.775 OA
ATOM      9  HXT THR A   1       4.532  -1.447  -0.805  1.00  0.00     0.167 HD
ENDBRANCH   6   8
ENDBRANCH   1   6
BRANCH   1  10
ATOM     10  N   THR A   1       2.626  -0.502  -2.418  1.00  0.00     0.095 N 
ATOM     11  H1  THR A   1       2.851  -1.469  -2.185  1.00  0.00     0.314 HD
ATOM     12  H2  THR A   1       3.076  -0.307  -3.314  1.00  0.00     0.314 HD
ENDBRANCH   1  10
TORSDOF 5
