REMARK  12 active torsions:
REMARK  status: ('A' for Active; 'I' for Inactive)
REMARK    1  A    between atoms: C_1  and  C_2 
REMARK    2  A    between atoms: C_1  and  O_23 
REMARK    3  A    between atoms: C_3  and  O_22 
REMARK    4  A    between atoms: C_4  and  O_21 
REMARK    5  A    between atoms: C_5  and  O_20 
REMARK    6  A    between atoms: C_6  and  O_8 
REMARK    7  A    between atoms: O_8  and  C_9 
REMARK    8  A    between atoms: C_10  and  O_19 
REMARK    9  A    between atoms: C_11  and  O_18 
REMARK   10  A    between atoms: C_12  and  O_17 
REMARK   11  A    between atoms: C_13  and  C_15 
REMARK   12  A    between atoms: C_15  and  O_16 
ROOT
HETATM    1  O   UNL     1      -0.946   0.904   3.179  1.00  0.00    -0.326 OA
ENDROOT
BRANCH   1   2
HETATM    2  C   UNL     1      -0.283   1.209   1.934  1.00  0.00     0.294 C 
HETATM    3  C   UNL     1      -1.308   1.032   0.793  1.00  0.00     0.204 C 
HETATM    4  C   UNL     1      -0.669   1.453  -0.532  1.00  0.00     0.183 C 
HETATM    5  C   UNL     1       0.633   0.656  -0.789  1.00  0.00     0.180 C 
HETATM    6  C   UNL     1       1.545   0.636   0.455  1.00  0.00     0.179 C 
HETATM    7  O   UNL     1       0.827   0.345   1.680  1.00  0.00    -0.348 OA
BRANCH   3   8
HETATM    8  O   UNL     1      -1.697  -0.361   0.670  1.00  0.00    -0.388 OA
HETATM    9  H   UNL     1      -1.728  -0.709   1.583  1.00  0.00     0.210 HD
ENDBRANCH   3   8
BRANCH   4  10
HETATM   10  O   UNL     1      -1.607   1.250  -1.603  1.00  0.00    -0.390 OA
HETATM   11  H   UNL     1      -1.848   0.304  -1.561  1.00  0.00     0.210 HD
ENDBRANCH   4  10
BRANCH   5  12
HETATM   12  O   UNL     1       0.304  -0.699  -1.147  1.00  0.00    -0.390 OA
HETATM   13  H   UNL     1      -0.336  -1.016  -0.478  1.00  0.00     0.210 HD
ENDBRANCH   5  12
BRANCH   6  14
HETATM   14  C   UNL     1       2.401   1.905   0.583  1.00  0.00     0.198 C 
BRANCH  14  15
HETATM   15  O   UNL     1       1.608   3.086   0.514  1.00  0.00    -0.398 OA
HETATM   16  H   UNL     1       2.214   3.850   0.524  1.00  0.00     0.209 HD
ENDBRANCH  14  15
ENDBRANCH   6  14
ENDBRANCH   1   2
BRANCH   1  17
HETATM   17  C   UNL     1      -0.058   0.865   4.303  1.00  0.00     0.294 C 
HETATM   18  C   UNL     1      -0.844   0.600   5.613  1.00  0.00     0.204 C 
HETATM   19  C   UNL     1      -1.589   1.846   6.115  1.00  0.00     0.183 C 
HETATM   20  C   UNL     1      -0.700   3.099   6.113  1.00  0.00     0.180 C 
HETATM   21  C   UNL     1       0.069   3.231   4.793  1.00  0.00     0.179 C 
HETATM   22  O   UNL     1       0.765   2.025   4.438  1.00  0.00    -0.348 OA
BRANCH  18  23
HETATM   23  O   UNL     1       0.065   0.193   6.658  1.00  0.00    -0.388 OA
HETATM   24  H   UNL     1      -0.492   0.161   7.464  1.00  0.00     0.210 HD
ENDBRANCH  18  23
BRANCH  19  25
HETATM   25  O   UNL     1      -2.061   1.573   7.454  1.00  0.00    -0.390 OA
HETATM   26  H   UNL     1      -1.867   2.363   7.998  1.00  0.00     0.210 HD
ENDBRANCH  19  25
BRANCH  20  27
HETATM   27  O   UNL     1       0.183   3.050   7.244  1.00  0.00    -0.390 OA
HETATM   28  H   UNL     1       0.702   2.224   7.167  1.00  0.00     0.210 HD
ENDBRANCH  20  27
BRANCH  21  29
HETATM   29  C   UNL     1       1.143   4.324   4.868  1.00  0.00     0.198 C 
BRANCH  29  30
HETATM   30  O   UNL     1       1.835   4.395   3.617  1.00  0.00    -0.398 OA
HETATM   31  H   UNL     1       2.121   3.477   3.444  1.00  0.00     0.209 HD
ENDBRANCH  29  30
ENDBRANCH  21  29
ENDBRANCH   1  17
TORSDOF 12
