REMARK  8 active torsions:
REMARK  status: ('A' for Active; 'I' for Inactive)
REMARK    1  A    between atoms: C_2  and  O_4 
REMARK    2  A    between atoms: O_4  and  C_5 
REMARK    3  A    between atoms: C_5  and  C_6 
REMARK    4  A    between atoms: C_6  and  C_7 
REMARK    5  A    between atoms: C_6  and  O_12 
REMARK    6  A    between atoms: C_7  and  O_8 
REMARK    7  A    between atoms: O_8  and  C_9 
REMARK    8  A    between atoms: O_12  and  C_13 
ROOT
HETATM    1  C   UNL     1       5.038   1.597   2.170  1.00  0.00     0.180 C 
ENDROOT
BRANCH   1   2
HETATM    2  C   UNL     1       4.595   0.759   0.965  1.00  0.00     0.213 C 
BRANCH   2   3
HETATM    3  O   UNL     1       5.121   1.308  -0.258  1.00  0.00    -0.319 OA
BRANCH   3   4
HETATM    4  C   UNL     1       4.415   2.350  -0.778  1.00  0.00     0.254 C 
HETATM    5  C   UNL     1       5.094   2.860  -2.013  1.00  0.00     0.126 C 
HETATM    6  O   UNL     1       3.378   2.802  -0.313  1.00  0.00    -0.266 OA
ENDBRANCH   3   4
ENDBRANCH   2   3
ENDBRANCH   1   2
BRANCH   1   7
HETATM    7  C   UNL     1       4.481   1.022   3.474  1.00  0.00     0.213 C 
BRANCH   7   8
HETATM    8  O   UNL     1       3.048   1.038   3.488  1.00  0.00    -0.319 OA
BRANCH   8   9
HETATM    9  C   UNL     1       2.490   2.229   3.841  1.00  0.00     0.254 C 
HETATM   10  O   UNL     1       3.113   3.235   4.152  1.00  0.00    -0.266 OA
HETATM   11  C   UNL     1       0.994   2.157   3.773  1.00  0.00     0.126 C 
ENDBRANCH   8   9
ENDBRANCH   7   8
ENDBRANCH   1   7
BRANCH   1  12
HETATM   12  O   UNL     1       6.485   1.555   2.254  1.00  0.00    -0.312 OA
BRANCH  12  13
HETATM   13  C   UNL     1       7.142   2.725   2.027  1.00  0.00     0.255 C 
HETATM   14  O   UNL     1       6.620   3.805   1.793  1.00  0.00    -0.266 OA
HETATM   15  C   UNL     1       8.622   2.528   2.134  1.00  0.00     0.126 C 
ENDBRANCH  12  13
ENDBRANCH   1  12
TORSDOF 8
