REMARK  3 active torsions:
REMARK  status: ('A' for Active; 'I' for Inactive)
REMARK    1  A    between atoms: C_3  and  O_9 
REMARK    2  A    between atoms: C_4  and  O_8 
REMARK    3  A    between atoms: O_9  and  C_10 
ROOT
HETATM    1  C   UNL     1      -0.511   1.438   0.097  1.00  0.00     0.027 A 
HETATM    2  C   UNL     1       0.826   1.845   0.137  1.00  0.00     0.042 A 
HETATM    3  C   UNL     1       1.849   0.894   0.075  1.00  0.00     0.109 A 
HETATM    4  C   UNL     1       1.514  -0.464   0.098  1.00  0.00     0.101 A 
HETATM    5  C   UNL     1       0.189  -0.878   0.065  1.00  0.00     0.063 A 
HETATM    6  C   UNL     1      -0.820   0.080   0.042  1.00  0.00     0.036 A 
HETATM    7 CL   UNL     1      -2.468  -0.410  -0.045  1.00  0.00    -0.084 Cl
ENDROOT
BRANCH   3   8
HETATM    8  O   UNL     1       3.187   1.224   0.010  1.00  0.00    -0.306 OA
BRANCH   8   9
HETATM    9  C   UNL     1       3.554   2.353  -0.699  1.00  0.00     0.098 A 
HETATM   10  C   UNL     1       4.598   3.144  -0.200  1.00  0.00     0.069 A 
HETATM   11  C   UNL     1       4.981   4.310  -0.865  1.00  0.00     0.050 A 
HETATM   12 CL   UNL     1       5.430   2.714   1.250  1.00  0.00    -0.081 Cl
HETATM   13  C   UNL     1       4.324   4.687  -2.035  1.00  0.00     0.035 A 
HETATM   14  C   UNL     1       3.313   3.888  -2.566  1.00  0.00     0.026 A 
HETATM   15 CL   UNL     1       4.762   6.147  -2.833  1.00  0.00    -0.084 Cl
HETATM   16  C   UNL     1       2.948   2.708  -1.915  1.00  0.00     0.041 A 
ENDBRANCH   8   9
ENDBRANCH   3   8
BRANCH   4  17
HETATM   17  O   UNL     1       2.480  -1.432   0.161  1.00  0.00    -0.358 OA
HETATM   18  H   UNL     1       3.322  -0.986   0.371  1.00  0.00     0.217 HD
ENDBRANCH   4  17
TORSDOF 3
