REMARK  14 active torsions:
REMARK  status: ('A' for Active; 'I' for Inactive)
REMARK    1  A    between atoms: C_2  and  C_3 
REMARK    2  A    between atoms: C_3  and  C_4 
REMARK    3  A    between atoms: C_4  and  C_5 
REMARK    4  A    between atoms: C_5  and  C_6 
REMARK    5  A    between atoms: C_6  and  C_7 
REMARK    6  A    between atoms: C_7  and  C_8 
REMARK    7  A    between atoms: C_8  and  C_9 
REMARK    8  A    between atoms: C_9  and  C_10 
REMARK    9  A    between atoms: C_10  and  C_11 
REMARK   10  A    between atoms: C_11  and  C_12 
REMARK   11  A    between atoms: C_12  and  C_13 
REMARK   12  A    between atoms: C_13  and  O_14 
REMARK   13  A    between atoms: O_14  and  C_15 
REMARK   14  A    between atoms: C_15  and  C_17 
ROOT
HETATM    1  C   UNL     1      10.698   4.854   2.919  1.00  0.00     0.000 C 
ENDROOT
BRANCH   1   2
HETATM    2  C   UNL     1       9.176   4.841   2.903  1.00  0.00     0.000 C 
BRANCH   2   3
HETATM    3  C   UNL     1       8.666   3.619   2.172  1.00  0.00     0.000 C 
BRANCH   3   4
HETATM    4  C   UNL     1       7.148   3.617   2.174  1.00  0.00     0.000 C 
BRANCH   4   5
HETATM    5  C   UNL     1       6.636   2.393   1.439  1.00  0.00     0.000 C 
BRANCH   5   6
HETATM    6  C   UNL     1       5.119   2.389   1.434  1.00  0.00     0.000 C 
BRANCH   6   7
HETATM    7  C   UNL     1       4.608   1.163   0.699  1.00  0.00     0.000 C 
BRANCH   7   8
HETATM    8  C   UNL     1       3.090   1.155   0.694  1.00  0.00    -0.000 C 
BRANCH   8   9
HETATM    9  C   UNL     1       2.570  -0.069  -0.042  1.00  0.00    -0.005 C 
HETATM   10  C   UNL     1       1.055  -0.075  -0.043  1.00  0.00     0.005 C 
ENDBRANCH   8   9
ENDBRANCH   7   8
ENDBRANCH   6   7
ENDBRANCH   5   6
ENDBRANCH   4   5
ENDBRANCH   3   4
ENDBRANCH   2   3
ENDBRANCH   1   2
BRANCH   1  11
HETATM   11  C   UNL     1      11.221   6.077   3.658  1.00  0.00     0.002 C 
BRANCH  11  12
HETATM   12  C   UNL     1      10.739   6.088   5.109  1.00  0.00     0.027 C 
BRANCH  12  13
HETATM   13  C   UNL     1      11.259   7.299   5.862  1.00  0.00     0.178 C 
BRANCH  13  14
HETATM   14  O   UNL     1      12.702   7.317   5.882  1.00  0.00    -0.321 OA
BRANCH  14  15
HETATM   15  C   UNL     1      13.259   6.482   6.807  1.00  0.00     0.266 C 
HETATM   16  O   UNL     1      12.601   5.784   7.587  1.00  0.00    -0.264 OA
BRANCH  15  17
HETATM   17  C   UNL     1      14.789   6.493   6.766  1.00  0.00     0.037 C 
HETATM   18  C   UNL     1      15.321   7.898   7.063  1.00  0.00     0.025 C 
HETATM   19  C   UNL     1      15.356   5.518   7.814  1.00  0.00     0.025 C 
HETATM   20  C   UNL     1      15.277   6.052   5.383  1.00  0.00     0.025 C 
ENDBRANCH  15  17
ENDBRANCH  14  15
ENDBRANCH  13  14
ENDBRANCH  12  13
ENDBRANCH  11  12
ENDBRANCH   1  11
TORSDOF 14
