REMARK  10 active torsions:
REMARK  status: ('A' for Active; 'I' for Inactive)
REMARK    1  A    between atoms: C_2  and  C_3 
REMARK    2  A    between atoms: C_3  and  C_4 
REMARK    3  A    between atoms: C_4  and  C_5 
REMARK    4  A    between atoms: C_5  and  C_6 
REMARK    5  A    between atoms: C_6  and  C_7 
REMARK    6  A    between atoms: C_7  and  C_8 
REMARK    7  A    between atoms: C_8  and  C_9 
REMARK    8  A    between atoms: C_9  and  C_10 
REMARK    9  A    between atoms: C_10  and  C_11 
REMARK   10  A    between atoms: C_11  and  C_12 
ROOT
HETATM    1  C   UNL     1       7.153   3.152  -2.840  1.00  0.00     0.000 C 
ENDROOT
BRANCH   1   2
HETATM    2  C   UNL     1       6.636   2.102  -1.871  1.00  0.00     0.000 C 
BRANCH   2   3
HETATM    3  C   UNL     1       5.115   2.091  -1.867  1.00  0.00     0.000 C 
BRANCH   3   4
HETATM    4  C   UNL     1       4.598   1.041  -0.895  1.00  0.00     0.000 C 
BRANCH   4   5
HETATM    5  C   UNL     1       3.075   1.030  -0.889  1.00  0.00    -0.000 C 
BRANCH   5   6
HETATM    6  C   UNL     1       2.545  -0.016   0.083  1.00  0.00    -0.005 C 
HETATM    7  C   UNL     1       1.028  -0.024   0.084  1.00  0.00     0.005 C 
ENDBRANCH   5   6
ENDBRANCH   4   5
ENDBRANCH   3   4
ENDBRANCH   2   3
ENDBRANCH   1   2
BRANCH   1   8
HETATM    8  C   UNL     1       8.673   3.160  -2.845  1.00  0.00     0.000 C 
BRANCH   8   9
HETATM    9  C   UNL     1       9.189   4.210  -3.815  1.00  0.00     0.000 C 
BRANCH   9  10
HETATM   10  C   UNL     1      10.710   4.221  -3.821  1.00  0.00     0.000 C 
BRANCH  10  11
HETATM   11  C   UNL     1      11.225   5.273  -4.793  1.00  0.00    -0.000 C 
BRANCH  11  12
HETATM   12  C   UNL     1      12.749   5.293  -4.807  1.00  0.00    -0.005 C 
HETATM   13  C   UNL     1      13.262   6.345  -5.779  1.00  0.00     0.005 C 
ENDBRANCH  11  12
ENDBRANCH  10  11
ENDBRANCH   9  10
ENDBRANCH   8   9
ENDBRANCH   1   8
TORSDOF 10
