REMARK  12 active torsions:
REMARK  status: ('A' for Active; 'I' for Inactive)
REMARK    1  A    between atoms: C_2  and  O_3 
REMARK    2  A    between atoms: O_3  and  C_4 
REMARK    3  A    between atoms: C_4  and  C_6 
REMARK    4  A    between atoms: C_6  and  C_7 
REMARK    5  A    between atoms: C_7  and  C_8 
REMARK    6  A    between atoms: C_7  and  C_14 
REMARK    7  A    between atoms: C_7  and  O_19 
REMARK    8  A    between atoms: C_8  and  C_9 
REMARK    9  A    between atoms: C_9  and  O_11 
REMARK   10  A    between atoms: O_11  and  C_12 
REMARK   11  A    between atoms: C_14  and  O_16 
REMARK   12  A    between atoms: O_16  and  C_17 
ROOT
HETATM    1  C   UNL     1       6.302  -0.388   2.902  1.00  0.00     0.162 C 
ENDROOT
BRANCH   1   2
HETATM    2  C   UNL     1       4.767  -0.260   2.829  1.00  0.00     0.160 C 
BRANCH   2   3
HETATM    3  C   UNL     1       4.053  -1.492   3.300  1.00  0.00     0.262 C 
HETATM    4  O   UNL     1       4.597  -2.469   3.795  1.00  0.00    -0.265 OA
BRANCH   3   5
HETATM    5  O   UNL     1       2.720  -1.363   3.064  1.00  0.00    -0.322 OA
BRANCH   5   6
HETATM    6  C   UNL     1       1.960  -2.576   3.126  1.00  0.00     0.174 C 
HETATM    7  C   UNL     1       1.967  -3.184   1.737  1.00  0.00     0.034 C 
ENDBRANCH   5   6
ENDBRANCH   3   5
ENDBRANCH   2   3
ENDBRANCH   1   2
BRANCH   1   8
HETATM    8  C   UNL     1       6.951  -1.547   2.128  1.00  0.00     0.160 C 
BRANCH   8   9
HETATM    9  C   UNL     1       6.597  -1.559   0.669  1.00  0.00     0.262 C 
HETATM   10  O   UNL     1       5.902  -0.723   0.110  1.00  0.00    -0.265 OA
BRANCH   9  11
HETATM   11  O   UNL     1       7.064  -2.700   0.098  1.00  0.00    -0.322 OA
BRANCH  11  12
HETATM   12  C   UNL     1       6.422  -3.078  -1.131  1.00  0.00     0.174 C 
HETATM   13  C   UNL     1       5.218  -3.927  -0.769  1.00  0.00     0.034 C 
ENDBRANCH  11  12
ENDBRANCH   9  11
ENDBRANCH   8   9
ENDBRANCH   1   8
BRANCH   1  14
HETATM   14  C   UNL     1       6.980   0.928   2.473  1.00  0.00     0.294 C 
HETATM   15  O   UNL     1       8.109   1.003   2.000  1.00  0.00    -0.262 OA
BRANCH  14  16
HETATM   16  O   UNL     1       6.220   1.999   2.837  1.00  0.00    -0.319 OA
BRANCH  16  17
HETATM   17  C   UNL     1       6.935   3.218   3.057  1.00  0.00     0.174 C 
HETATM   18  C   UNL     1       7.426   3.207   4.493  1.00  0.00     0.034 C 
ENDBRANCH  16  17
ENDBRANCH  14  16
ENDBRANCH   1  14
BRANCH   1  19
HETATM   19  O   UNL     1       6.662  -0.540   4.300  1.00  0.00    -0.379 OA
HETATM   20  H   UNL     1       6.345  -1.425   4.590  1.00  0.00     0.211 HD
ENDBRANCH   1  19
TORSDOF 12
