REMARK WARNING: 32 MAX_TORS EXCEEDED!!!
REMARK  53 active torsions:
REMARK  status: ('A' for Active; 'I' for Inactive)
REMARK    1  A    between atoms: C_2  and  C_4 
REMARK    2  A    between atoms: C_4  and  C_5 
REMARK    3  A    between atoms: C_5  and  C_6 
REMARK    4  A    between atoms: C_6  and  C_7 
REMARK    5  A    between atoms: C_7  and  C_8 
REMARK    6  A    between atoms: C_8  and  C_9 
REMARK    7  A    between atoms: C_9  and  C_10 
REMARK    8  A    between atoms: C_10  and  C_11 
REMARK    9  A    between atoms: C_11  and  C_12 
REMARK   10  A    between atoms: C_12  and  C_13 
REMARK   11  A    between atoms: C_13  and  C_14 
REMARK   12  A    between atoms: C_14  and  C_15 
REMARK   13  A    between atoms: C_15  and  C_16 
REMARK   14  A    between atoms: C_16  and  C_17 
REMARK   15  A    between atoms: C_17  and  C_18 
REMARK   16  A    between atoms: C_18  and  O_20 
REMARK   17  A    between atoms: O_20  and  C_21 
REMARK   18  A    between atoms: C_21  and  C_22 
REMARK   19  A    between atoms: C_22  and  C_23 
REMARK   20  A    between atoms: C_22  and  O_44 
REMARK   21  A    between atoms: C_23  and  O_24 
REMARK   22  A    between atoms: O_24  and  C_25 
REMARK   23  A    between atoms: C_25  and  C_27 
REMARK   24  A    between atoms: C_27  and  C_28 
REMARK   25  A    between atoms: C_28  and  C_29 
REMARK   26  A    between atoms: C_29  and  C_30 
REMARK   27  A    between atoms: C_30  and  C_31 
REMARK   28  A    between atoms: C_31  and  C_32 
REMARK   29  A    between atoms: C_32  and  C_33 
REMARK   30  A    between atoms: C_33  and  C_34 
REMARK   31  A    between atoms: C_34  and  C_35 
REMARK   32  A    between atoms: C_35  and  C_36 
REMARK   33  A    between atoms: C_36  and  C_37 
REMARK   34  A    between atoms: C_37  and  C_38 
REMARK   35  A    between atoms: C_38  and  C_39 
REMARK   36  A    between atoms: C_39  and  C_40 
REMARK   37  A    between atoms: C_40  and  C_41 
REMARK   38  A    between atoms: O_44  and  C_45 
REMARK   39  A    between atoms: C_45  and  C_47 
REMARK   40  A    between atoms: C_47  and  C_48 
REMARK   41  A    between atoms: C_48  and  C_49 
REMARK   42  A    between atoms: C_49  and  C_50 
REMARK   43  A    between atoms: C_50  and  C_51 
REMARK   44  A    between atoms: C_51  and  C_52 
REMARK   45  A    between atoms: C_52  and  C_53 
REMARK   46  A    between atoms: C_53  and  C_54 
REMARK   47  A    between atoms: C_54  and  C_55 
REMARK   48  A    between atoms: C_55  and  C_56 
REMARK   49  A    between atoms: C_56  and  C_57 
REMARK   50  A    between atoms: C_57  and  C_58 
REMARK   51  A    between atoms: C_58  and  C_59 
REMARK   52  A    between atoms: C_59  and  C_60 
REMARK   53  A    between atoms: C_60  and  C_61 
ROOT
HETATM    1  C   UNL     1      20.544  12.880  -1.346  1.00  0.00     0.180 C 
ENDROOT
BRANCH   1   2
HETATM    2  C   UNL     1      19.019  12.939  -1.260  1.00  0.00     0.213 C 
BRANCH   2   3
HETATM    3  O   UNL     1      18.601  13.736  -0.129  1.00  0.00    -0.319 OA
BRANCH   3   4
HETATM    4  C   UNL     1      18.632  13.136   1.095  1.00  0.00     0.258 C 
HETATM    5  O   UNL     1      18.949  11.973   1.315  1.00  0.00    -0.265 OA
BRANCH   4   6
HETATM    6  C   UNL     1      18.201  14.108   2.168  1.00  0.00     0.111 C 
BRANCH   6   7
HETATM    7  C   UNL     1      18.929  13.795   3.470  1.00  0.00     0.010 C 
BRANCH   7   8
HETATM    8  C   UNL     1      18.544  14.741   4.601  1.00  0.00     0.000 C 
BRANCH   8   9
HETATM    9  C   UNL     1      19.308  14.367   5.869  1.00  0.00     0.000 C 
BRANCH   9  10
HETATM   10  C   UNL     1      18.949  15.293   7.023  1.00  0.00     0.000 C 
BRANCH  10  11
HETATM   11  C   UNL     1      19.722  14.905   8.277  1.00  0.00     0.000 C 
BRANCH  11  12
HETATM   12  C   UNL     1      19.361  15.831   9.428  1.00  0.00     0.000 C 
BRANCH  12  13
HETATM   13  C   UNL     1      20.133  15.445  10.680  1.00  0.00     0.000 C 
BRANCH  13  14
HETATM   14  C   UNL     1      19.771  16.372  11.828  1.00  0.00     0.000 C 
BRANCH  14  15
HETATM   15  C   UNL     1      20.544  15.982  13.077  1.00  0.00     0.000 C 
BRANCH  15  16
HETATM   16  C   UNL     1      20.183  16.907  14.226  1.00  0.00     0.000 C 
BRANCH  16  17
HETATM   17  C   UNL     1      20.951  16.520  15.482  1.00  0.00     0.000 C 
BRANCH  17  18
HETATM   18  C   UNL     1      20.576  17.461  16.616  1.00  0.00     0.000 C 
BRANCH  18  19
HETATM   19  C   UNL     1      21.328  17.114  17.896  1.00  0.00     0.004 C 
BRANCH  19  20
HETATM   20  C   UNL     1      20.966  18.046  19.062  1.00  0.00    -0.023 C 
HETATM   21  C   UNL     1      21.749  17.634  20.308  1.00  0.00     0.009 C 
HETATM   22  C   UNL     1      21.240  19.517  18.739  1.00  0.00     0.009 C 
ENDBRANCH  19  20
ENDBRANCH  18  19
ENDBRANCH  17  18
ENDBRANCH  16  17
ENDBRANCH  15  16
ENDBRANCH  14  15
ENDBRANCH  13  14
ENDBRANCH  12  13
ENDBRANCH  11  12
ENDBRANCH  10  11
ENDBRANCH   9  10
ENDBRANCH   8   9
ENDBRANCH   7   8
ENDBRANCH   6   7
ENDBRANCH   4   6
ENDBRANCH   3   4
ENDBRANCH   2   3
ENDBRANCH   1   2
BRANCH   1  23
HETATM   23  C   UNL     1      20.999  12.041  -2.533  1.00  0.00     0.213 C 
BRANCH  23  24
HETATM   24  O   UNL     1      22.433  12.017  -2.546  1.00  0.00    -0.319 OA
BRANCH  24  25
HETATM   25  C   UNL     1      23.019  11.122  -1.694  1.00  0.00     0.258 C 
HETATM   26  O   UNL     1      22.442  10.350  -0.943  1.00  0.00    -0.265 OA
BRANCH  25  27
HETATM   27  C   UNL     1      24.513  11.172  -1.837  1.00  0.00     0.111 C 
BRANCH  27  28
HETATM   28  C   UNL     1      25.024   9.800  -2.250  1.00  0.00     0.010 C 
BRANCH  28  29
HETATM   29  C   UNL     1      26.540   9.779  -2.399  1.00  0.00     0.000 C 
BRANCH  29  30
HETATM   30  C   UNL     1      26.992   8.382  -2.809  1.00  0.00     0.000 C 
BRANCH  30  31
HETATM   31  C   UNL     1      28.503   8.322  -2.966  1.00  0.00     0.000 C 
BRANCH  31  32
HETATM   32  C   UNL     1      28.934   6.922  -3.374  1.00  0.00     0.000 C 
BRANCH  32  33
HETATM   33  C   UNL     1      30.444   6.863  -3.532  1.00  0.00     0.000 C 
BRANCH  33  34
HETATM   34  C   UNL     1      30.877   5.466  -3.941  1.00  0.00     0.000 C 
BRANCH  34  35
HETATM   35  C   UNL     1      32.387   5.410  -4.099  1.00  0.00     0.000 C 
BRANCH  35  36
HETATM   36  C   UNL     1      32.815   4.010  -4.507  1.00  0.00     0.000 C 
BRANCH  36  37
HETATM   37  C   UNL     1      34.324   3.952  -4.667  1.00  0.00     0.000 C 
BRANCH  37  38
HETATM   38  C   UNL     1      34.761   2.554  -5.077  1.00  0.00     0.000 C 
BRANCH  38  39
HETATM   39  C   UNL     1      36.274   2.518  -5.226  1.00  0.00     0.000 C 
BRANCH  39  40
HETATM   40  C   UNL     1      36.757   1.131  -5.634  1.00  0.00     0.004 C 
BRANCH  40  41
HETATM   41  C   UNL     1      38.284   1.065  -5.796  1.00  0.00    -0.023 C 
HETATM   42  C   UNL     1      39.020   1.411  -4.499  1.00  0.00     0.009 C 
HETATM   43  C   UNL     1      38.689  -0.331  -6.267  1.00  0.00     0.009 C 
ENDBRANCH  40  41
ENDBRANCH  39  40
ENDBRANCH  38  39
ENDBRANCH  37  38
ENDBRANCH  36  37
ENDBRANCH  35  36
ENDBRANCH  34  35
ENDBRANCH  33  34
ENDBRANCH  32  33
ENDBRANCH  31  32
ENDBRANCH  30  31
ENDBRANCH  29  30
ENDBRANCH  28  29
ENDBRANCH  27  28
ENDBRANCH  25  27
ENDBRANCH  24  25
ENDBRANCH  23  24
ENDBRANCH   1  23
BRANCH   1  44
HETATM   44  O   UNL     1      21.065  14.220  -1.506  1.00  0.00    -0.312 OA
BRANCH  44  45
HETATM   45  C   UNL     1      21.905  14.681  -0.535  1.00  0.00     0.259 C 
HETATM   46  O   UNL     1      22.270  14.075   0.469  1.00  0.00    -0.265 OA
BRANCH  45  47
HETATM   47  C   UNL     1      22.364  16.081  -0.841  1.00  0.00     0.111 C 
BRANCH  47  48
HETATM   48  C   UNL     1      23.883  16.146  -0.962  1.00  0.00     0.010 C 
BRANCH  48  49
HETATM   49  C   UNL     1      24.418  15.275  -2.098  1.00  0.00     0.000 C 
BRANCH  49  50
HETATM   50  C   UNL     1      25.939  15.374  -2.171  1.00  0.00     0.000 C 
BRANCH  50  51
HETATM   51  C   UNL     1      26.492  14.508  -3.295  1.00  0.00     0.000 C 
BRANCH  51  52
HETATM   52  C   UNL     1      28.009  14.611  -3.357  1.00  0.00     0.000 C 
BRANCH  52  53
HETATM   53  C   UNL     1      28.552  13.740  -4.480  1.00  0.00     0.000 C 
BRANCH  53  54
HETATM   54  C   UNL     1      30.067  13.844  -4.546  1.00  0.00     0.000 C 
BRANCH  54  55
HETATM   55  C   UNL     1      30.608  12.973  -5.669  1.00  0.00     0.000 C 
BRANCH  55  56
HETATM   56  C   UNL     1      32.123  13.079  -5.729  1.00  0.00     0.000 C 
BRANCH  56  57
HETATM   57  C   UNL     1      32.665  12.211  -6.851  1.00  0.00     0.000 C 
BRANCH  57  58
HETATM   58  C   UNL     1      34.182  12.311  -6.917  1.00  0.00     0.000 C 
BRANCH  58  59
HETATM   59  C   UNL     1      34.701  11.439  -8.051  1.00  0.00     0.000 C 
BRANCH  59  60
HETATM   60  C   UNL     1      36.220  11.513  -8.155  1.00  0.00     0.004 C 
BRANCH  60  61
HETATM   61  C   UNL     1      36.774  10.639  -9.291  1.00  0.00    -0.023 C 
HETATM   62  C   UNL     1      36.230  11.052 -10.660  1.00  0.00     0.009 C 
HETATM   63  C   UNL     1      38.300  10.712  -9.296  1.00  0.00     0.009 C 
ENDBRANCH  60  61
ENDBRANCH  59  60
ENDBRANCH  58  59
ENDBRANCH  57  58
ENDBRANCH  56  57
ENDBRANCH  55  56
ENDBRANCH  54  55
ENDBRANCH  53  54
ENDBRANCH  52  53
ENDBRANCH  51  52
ENDBRANCH  50  51
ENDBRANCH  49  50
ENDBRANCH  48  49
ENDBRANCH  47  48
ENDBRANCH  45  47
ENDBRANCH  44  45
ENDBRANCH   1  44
TORSDOF 53
