REMARK  5 active torsions:
REMARK  status: ('A' for Active; 'I' for Inactive)
REMARK    1  A    between atoms: CG_7  and  CB_10 
REMARK    2  A    between atoms: CB_10  and  CA_11 
REMARK    3  A    between atoms: CA_11  and  C_12 
REMARK    4  A    between atoms: CA_11  and  N_15 
REMARK    5  A    between atoms: C_12  and  OXT_14 
ROOT
ATOM      1  CZ3 TRP A   1       2.266  -0.441  -0.325  1.00  0.00     0.001 A 
ATOM      2  CH2 TRP A   1       2.170   0.940  -0.164  1.00  0.00     0.002 A 
ATOM      3  CZ2 TRP A   1       0.925   1.570  -0.094  1.00  0.00     0.030 A 
ATOM      4  CE2 TRP A   1      -0.214   0.759  -0.152  1.00  0.00     0.042 A 
ATOM      5  CD2 TRP A   1      -0.155  -0.632  -0.268  1.00  0.00    -0.002 A 
ATOM      6  CE3 TRP A   1       1.114  -1.236  -0.385  1.00  0.00     0.014 A 
ATOM      7  CG  TRP A   1      -1.498  -1.122  -0.153  1.00  0.00    -0.028 A 
ATOM      8  CD1 TRP A   1      -2.322  -0.013  -0.089  1.00  0.00     0.096 A 
ATOM      9  NE1 TRP A   1      -1.542   1.107  -0.110  1.00  0.00    -0.365 N 
ATOM     10  HE1 TRP A   1      -1.886   2.059  -0.059  1.00  0.00     0.165 HD
ENDROOT
BRANCH   7  11
ATOM     11  CB  TRP A   1      -1.963  -2.544  -0.043  1.00  0.00     0.087 C 
BRANCH  11  12
ATOM     12  CA  TRP A   1      -1.422  -3.297   1.186  1.00  0.00     0.318 C 
BRANCH  12  13
ATOM     13  C   TRP A   1      -1.859  -2.686   2.538  1.00  0.00     0.174 C 
ATOM     14  O   TRP A   1      -2.603  -3.260   3.324  1.00  0.00    -0.648 OA
BRANCH  13  15
ATOM     15  OXT TRP A   1      -1.301  -1.495   2.847  1.00  0.00    -0.775 OA
ATOM     16  HXT TRP A   1      -0.727  -1.115   2.153  1.00  0.00     0.167 HD
ENDBRANCH  13  15
ENDBRANCH  12  13
BRANCH  12  17
ATOM     17  N   TRP A   1      -1.904  -4.707   1.127  1.00  0.00     0.093 N 
ATOM     18  H1  TRP A   1      -2.904  -4.694   1.359  1.00  0.00     0.314 HD
ATOM     19  H2  TRP A   1      -1.501  -5.207   1.924  1.00  0.00     0.314 HD
ENDBRANCH  12  17
ENDBRANCH  11  12
ENDBRANCH   7  11
TORSDOF 5
