REMARK  10 active torsions:
REMARK  status: ('A' for Active; 'I' for Inactive)
REMARK    1  A    between atoms: C_2  and  C_3 
REMARK    2  A    between atoms: C_3  and  C_4 
REMARK    3  A    between atoms: C_4  and  C_5 
REMARK    4  A    between atoms: C_5  and  C_6 
REMARK    5  A    between atoms: C_6  and  C_7 
REMARK    6  A    between atoms: C_7  and  C_8 
REMARK    7  A    between atoms: C_8  and  C_9 
REMARK    8  A    between atoms: C_9  and  C_10 
REMARK    9  A    between atoms: C_10  and  C_11 
REMARK   10  A    between atoms: C_11  and  O_13 
ROOT
HETATM    1  C   UNL     1       7.195   2.641  -3.346  1.00  0.00     0.000 C 
ENDROOT
BRANCH   1   2
HETATM    2  C   UNL     1       6.666   1.769  -2.211  1.00  0.00     0.000 C 
BRANCH   2   3
HETATM    3  C   UNL     1       5.139   1.760  -2.200  1.00  0.00     0.000 C 
BRANCH   3   4
HETATM    4  C   UNL     1       4.607   0.890  -1.064  1.00  0.00     0.000 C 
BRANCH   4   5
HETATM    5  C   UNL     1       3.081   0.880  -1.055  1.00  0.00    -0.000 C 
BRANCH   5   6
HETATM    6  C   UNL     1       2.542   0.013   0.080  1.00  0.00    -0.005 C 
HETATM    7  C   UNL     1       1.023   0.007   0.088  1.00  0.00     0.005 C 
ENDBRANCH   5   6
ENDBRANCH   4   5
ENDBRANCH   3   4
ENDBRANCH   2   3
ENDBRANCH   1   2
BRANCH   1   8
HETATM    8  C   UNL     1       8.723   2.659  -3.366  1.00  0.00     0.001 C 
BRANCH   8   9
HETATM    9  C   UNL     1       9.230   3.537  -4.508  1.00  0.00     0.010 C 
BRANCH   9  10
HETATM   10  C   UNL     1      10.753   3.581  -4.562  1.00  0.00     0.110 C 
BRANCH  10  11
HETATM   11  C   UNL     1      11.236   4.454  -5.697  1.00  0.00     0.139 C 
HETATM   12  O   UNL     1      10.519   5.056  -6.481  1.00  0.00    -0.650 OA
BRANCH  11  13
HETATM   13  O   UNL     1      12.586   4.508  -5.767  1.00  0.00    -0.776 OA
HETATM   14  H   UNL     1      13.035   3.981  -5.082  1.00  0.00     0.167 HD
ENDBRANCH  11  13
ENDBRANCH  10  11
ENDBRANCH   9  10
ENDBRANCH   8   9
ENDBRANCH   1   8
TORSDOF 10
