REMARK  0 active torsions:
REMARK  status: ('A' for Active; 'I' for Inactive)
REMARK       I    between atoms: C_1  and  N_3 
REMARK       I    between atoms: C_1  and  N_4 
ROOT
HETATM    1  C   UNL     1       0.939   0.080   0.028  1.00  0.00     0.311 C 
HETATM    2  O   UNL     1       0.329  -0.065   1.075  1.00  0.00    -0.248 OA
HETATM    3  N   UNL     1       0.327   0.245  -1.160  1.00  0.00    -0.352 N 
HETATM    4  N   UNL     1       2.283   0.090  -0.041  1.00  0.00    -0.352 N 
HETATM    5  H   UNL     1      -0.684   0.246  -1.165  1.00  0.00     0.160 HD
HETATM    6  H   UNL     1       0.824   0.365  -2.026  1.00  0.00     0.160 HD
HETATM    7  H   UNL     1       2.793  -0.030   0.823  1.00  0.00     0.160 HD
HETATM    8  H   UNL     1       2.792   0.209  -0.900  1.00  0.00     0.160 HD
ENDROOT
TORSDOF 0
