REMARK  4 active torsions:
REMARK  status: ('A' for Active; 'I' for Inactive)
REMARK    1  A    between atoms: CB_2  and  CA_4 
REMARK    2  A    between atoms: CA_4  and  C_5 
REMARK    3  A    between atoms: CA_4  and  N_8 
REMARK    4  A    between atoms: C_5  and  OXT_7 
ROOT
ATOM      1  CA  VAL A   1       3.035  -0.910   1.099  1.00  0.00     0.317 C 
ENDROOT
BRANCH   1   2
ATOM      2  CB  VAL A   1       2.551  -0.027  -0.074  1.00  0.00     0.021 C 
ATOM      3  CG1 VAL A   1       1.021   0.029  -0.160  1.00  0.00     0.012 C 
ATOM      4  CG2 VAL A   1       3.087   1.407   0.040  1.00  0.00     0.012 C 
ENDBRANCH   1   2
BRANCH   1   5
ATOM      5  C   VAL A   1       2.535  -2.364   0.959  1.00  0.00     0.174 C 
ATOM      6  O   VAL A   1       3.130  -3.236   0.339  1.00  0.00    -0.648 OA
BRANCH   5   7
ATOM      7  OXT VAL A   1       1.374  -2.609   1.608  1.00  0.00    -0.775 OA
ATOM      8  HXT VAL A   1       1.009  -1.839   2.084  1.00  0.00     0.167 HD
ENDBRANCH   5   7
ENDBRANCH   1   5
BRANCH   1   9
ATOM      9  N   VAL A   1       4.516  -0.927   1.159  1.00  0.00     0.093 N 
ATOM     10  H1  VAL A   1       4.854  -1.367   0.296  1.00  0.00     0.314 HD
ATOM     11  H2  VAL A   1       4.809  -1.577   1.891  1.00  0.00     0.314 HD
ENDBRANCH   1   9
TORSDOF 4
