REMARK  9 active torsions:
REMARK  status: ('A' for Active; 'I' for Inactive)
REMARK    1  A    between atoms: C_1  and  C_2 
REMARK    2  A    between atoms: C_1  and  O_10 
REMARK    3  A    between atoms: C_2  and  C_3 
REMARK    4  A    between atoms: C_2  and  O_9 
REMARK    5  A    between atoms: C_3  and  C_4 
REMARK    6  A    between atoms: C_3  and  O_8 
REMARK    7  A    between atoms: C_4  and  C_5 
REMARK    8  A    between atoms: C_4  and  O_7 
REMARK    9  A    between atoms: C_5  and  O_6 
ROOT
HETATM    1  C   UNL     1       1.046   1.292   2.078  1.00  0.00     0.179 C 
ENDROOT
BRANCH   1   2
HETATM    2  C   UNL     1       0.543   0.034   1.324  1.00  0.00     0.173 C 
BRANCH   2   3
HETATM    3  C   UNL     1       1.074  -0.023  -0.123  1.00  0.00     0.198 C 
BRANCH   3   4
HETATM    4  O   UNL     1       2.491  -0.094  -0.193  1.00  0.00    -0.398 OA
HETATM    5  H   UNL     1       2.840   0.677   0.302  1.00  0.00     0.209 HD
ENDBRANCH   3   4
ENDBRANCH   2   3
BRANCH   2   6
HETATM    6  O   UNL     1      -0.882  -0.025   1.297  1.00  0.00    -0.391 OA
HETATM    7  H   UNL     1      -1.216   0.660   0.695  1.00  0.00     0.210 HD
ENDBRANCH   2   6
ENDBRANCH   1   2
BRANCH   1   8
HETATM    8  C   UNL     1       0.573   1.390   3.550  1.00  0.00     0.173 C 
BRANCH   8   9
HETATM    9  C   UNL     1       1.138   2.647   4.236  1.00  0.00     0.198 C 
BRANCH   9  10
HETATM   10  O   UNL     1       0.658   2.713   5.579  1.00  0.00    -0.398 OA
HETATM   11  H   UNL     1      -0.268   2.397   5.546  1.00  0.00     0.209 HD
ENDBRANCH   9  10
ENDBRANCH   8   9
BRANCH   8  12
HETATM   12  O   UNL     1      -0.852   1.447   3.694  1.00  0.00    -0.391 OA
HETATM   13  H   UNL     1      -1.207   2.066   3.034  1.00  0.00     0.210 HD
ENDBRANCH   8  12
ENDBRANCH   1   8
BRANCH   1  14
HETATM   14  O   UNL     1       2.479   1.350   2.021  1.00  0.00    -0.390 OA
HETATM   15  H   UNL     1       2.827   0.603   2.550  1.00  0.00     0.210 HD
ENDBRANCH   1  14
TORSDOF 9
