REMARK  3 active torsions:
REMARK  status: ('A' for Active; 'I' for Inactive)
REMARK    1  A    between atoms: C_2  and  C_5 
REMARK    2  A    between atoms: C_8  and  N_9 
REMARK       I    between atoms: N_9  and  C_10 
REMARK       I    between atoms: C_10  and  N_12 
REMARK    3  A    between atoms: N_15  and  C_16 
ROOT
HETATM    1  N   UNL     1       4.068  -5.154   2.056  1.00  0.00    -0.309 N 
HETATM    2  C   UNL     1       4.732  -5.422   3.228  1.00  0.00     0.323 C 
HETATM    3  O   UNL     1       5.096  -4.561   4.027  1.00  0.00    -0.247 OA
HETATM    4  N   UNL     1       4.969  -6.764   3.488  1.00  0.00    -0.331 N 
HETATM    5  C   UNL     1       4.711  -7.904   2.578  1.00  0.00     0.147 C 
HETATM    6  C   UNL     1       4.427  -9.224   3.331  1.00  0.00     0.144 C 
HETATM    7  N   UNL     1       5.495  -9.418   4.313  1.00  0.00    -0.363 N 
HETATM    8  C   UNL     1       5.525  -8.356   5.324  1.00  0.00     0.144 C 
HETATM    9  C   UNL     1       5.896  -7.057   4.600  1.00  0.00     0.147 C 
HETATM   10  H   UNL     1       3.689  -5.929   1.546  1.00  0.00     0.170 HD
ENDROOT
BRANCH   1  11
HETATM   11  C   UNL     1       3.711  -3.885   1.557  1.00  0.00     0.036 A 
HETATM   12  C   UNL     1       4.180  -2.691   2.082  1.00  0.00     0.030 A 
HETATM   13  C   UNL     1       3.745  -1.465   1.563  1.00  0.00     0.010 A 
HETATM   14  C   UNL     1       2.842  -1.399   0.491  1.00  0.00    -0.051 A 
HETATM   15  C   UNL     1       2.388  -2.618  -0.035  1.00  0.00     0.010 A 
HETATM   16  C   UNL     1       2.824  -3.843   0.480  1.00  0.00     0.030 A 
BRANCH  14  17
HETATM   17  C   UNL     1       2.330  -0.049  -0.029  1.00  0.00    -0.024 C 
HETATM   18  C   UNL     1       3.374   1.077   0.148  1.00  0.00     0.019 C 
HETATM   19  C   UNL     1       1.062   0.321   0.765  1.00  0.00     0.019 C 
HETATM   20  C   UNL     1       1.979  -0.089  -1.533  1.00  0.00     0.019 C 
ENDBRANCH  14  17
ENDBRANCH   1  11
BRANCH   7  21
HETATM   21  C   UNL     1       5.899 -10.697   4.635  1.00  0.00     0.125 A 
HETATM   22  N   UNL     1       5.038 -11.709   4.361  1.00  0.00    -0.351 N 
HETATM   23  C   UNL     1       5.432 -12.980   4.601  1.00  0.00     0.090 A 
ATOM     24  HN  UNL     1       4.111 -11.515   3.981  1.00  0.00     0.166 HD
HETATM   25  C   UNL     1       6.668 -13.320   5.110  1.00  0.00     0.019 A 
HETATM   26  C   UNL     1       7.564 -12.296   5.381  1.00  0.00     0.029 A 
HETATM   27  C   UNL     1       7.189 -10.976   5.133  1.00  0.00     0.077 A 
HETATM   28 CL   UNL     1       8.427  -9.776   5.323  1.00  0.00    -0.080 Cl
ENDBRANCH   7  21
TORSDOF 3
