MODEL 1
REMARK VINA RESULT:      -8.5      0.000      0.000
REMARK  3 active torsions:
REMARK  status: ('A' for Active; 'I' for Inactive)
REMARK    1  A    between atoms: C_2  and  C_5 
REMARK    2  A    between atoms: C_8  and  N_9 
REMARK       I    between atoms: N_9  and  C_10 
REMARK       I    between atoms: C_10  and  N_12 
REMARK    3  A    between atoms: N_15  and  C_16 
ROOT
HETATM    1  N   UNL     1     -21.021  -7.596  -4.355  1.00  0.00    -0.309 N 
HETATM    2  C   UNL     1     -21.913  -6.598  -4.662  1.00  0.00     0.323 C 
HETATM    3  O   UNL     1     -22.779  -6.186  -3.892  1.00  0.00    -0.247 OA
HETATM    4  N   UNL     1     -21.777  -6.041  -5.925  1.00  0.00    -0.331 N 
HETATM    5  C   UNL     1     -20.879  -6.504  -7.008  1.00  0.00     0.147 C 
HETATM    6  C   UNL     1     -20.452  -5.368  -7.965  1.00  0.00     0.144 C 
HETATM    7  N   UNL     1     -21.663  -4.666  -8.394  1.00  0.00    -0.363 N 
HETATM    8  C   UNL     1     -22.368  -4.031  -7.276  1.00  0.00     0.144 C 
HETATM    9  C   UNL     1     -22.874  -5.156  -6.367  1.00  0.00     0.147 C 
HETATM   10  H   UNL     1     -20.266  -7.760  -4.994  1.00  0.00     0.170 HD
ENDROOT
BRANCH   1  11
HETATM   11  C   UNL     1     -20.948  -8.325  -3.151  1.00  0.00     0.036 A 
HETATM   12  C   UNL     1     -20.769  -7.740  -1.907  1.00  0.00     0.030 A 
HETATM   13  C   UNL     1     -20.659  -8.532  -0.757  1.00  0.00     0.010 A 
HETATM   14  C   UNL     1     -20.744  -9.932  -0.817  1.00  0.00    -0.051 A 
HETATM   15  C   UNL     1     -20.937 -10.504  -2.083  1.00  0.00     0.010 A 
HETATM   16  C   UNL     1     -21.050  -9.715  -3.232  1.00  0.00     0.030 A 
BRANCH  14  17
HETATM   17  C   UNL     1     -20.564 -10.789   0.443  1.00  0.00    -0.024 C 
HETATM   18  C   UNL     1     -21.759 -11.741   0.675  1.00  0.00     0.019 C 
HETATM   19  C   UNL     1     -20.441  -9.843   1.653  1.00  0.00     0.019 C 
HETATM   20  C   UNL     1     -19.301 -11.677   0.379  1.00  0.00     0.019 C 
ENDBRANCH  14  17
ENDBRANCH   1  11
BRANCH   7  21
HETATM   21  C   UNL     1     -21.716  -4.110  -9.656  1.00  0.00     0.125 A 
HETATM   22  N   UNL     1     -20.540  -3.745 -10.225  1.00  0.00    -0.351 N 
HETATM   23  C   UNL     1     -20.552  -3.261 -11.488  1.00  0.00     0.090 A 
ATOM     24  HN  UNL     1     -19.663  -3.833  -9.710  1.00  0.00     0.166 HD
HETATM   25  C   UNL     1     -21.695  -3.116 -12.246  1.00  0.00     0.019 A 
HETATM   26  C   UNL     1     -22.903  -3.500 -11.682  1.00  0.00     0.029 A 
HETATM   27  C   UNL     1     -22.920  -4.012 -10.385  1.00  0.00     0.077 A 
HETATM   28 CL   UNL     1     -24.437  -4.638  -9.825  1.00  0.00    -0.080 Cl
ENDBRANCH   7  21
TORSDOF 3
ENDMDL
MODEL 2
REMARK VINA RESULT:      -8.1      1.605      2.280
REMARK  3 active torsions:
REMARK  status: ('A' for Active; 'I' for Inactive)
REMARK    1  A    between atoms: C_2  and  C_5 
REMARK    2  A    between atoms: C_8  and  N_9 
REMARK       I    between atoms: N_9  and  C_10 
REMARK       I    between atoms: C_10  and  N_12 
REMARK    3  A    between atoms: N_15  and  C_16 
ROOT
HETATM    1  N   UNL     1     -22.083  -6.391  -4.780  1.00  0.00    -0.309 N 
HETATM    2  C   UNL     1     -21.259  -5.473  -5.383  1.00  0.00     0.323 C 
HETATM    3  O   UNL     1     -20.244  -5.011  -4.865  1.00  0.00    -0.247 OA
HETATM    4  N   UNL     1     -21.631  -5.085  -6.662  1.00  0.00    -0.331 N 
HETATM    5  C   UNL     1     -22.880  -5.446  -7.372  1.00  0.00     0.147 C 
HETATM    6  C   UNL     1     -22.718  -5.461  -8.909  1.00  0.00     0.144 C 
HETATM    7  N   UNL     1     -22.099  -4.195  -9.306  1.00  0.00    -0.363 N 
HETATM    8  C   UNL     1     -20.755  -4.029  -8.744  1.00  0.00     0.144 C 
HETATM    9  C   UNL     1     -20.915  -3.921  -7.223  1.00  0.00     0.147 C 
HETATM   10  H   UNL     1     -22.802  -6.812  -5.337  1.00  0.00     0.170 HD
ENDROOT
BRANCH   1  11
HETATM   11  C   UNL     1     -21.935  -6.942  -3.491  1.00  0.00     0.036 A 
HETATM   12  C   UNL     1     -21.419  -8.205  -3.247  1.00  0.00     0.030 A 
HETATM   13  C   UNL     1     -21.344  -8.704  -1.940  1.00  0.00     0.010 A 
HETATM   14  C   UNL     1     -21.768  -7.946  -0.838  1.00  0.00    -0.051 A 
HETATM   15  C   UNL     1     -22.276  -6.665  -1.104  1.00  0.00     0.010 A 
HETATM   16  C   UNL     1     -22.348  -6.164  -2.407  1.00  0.00     0.030 A 
BRANCH  14  17
HETATM   17  C   UNL     1     -21.734  -8.528   0.581  1.00  0.00    -0.024 C 
HETATM   18  C   UNL     1     -21.474 -10.052   0.580  1.00  0.00     0.019 C 
HETATM   19  C   UNL     1     -23.100  -8.259   1.242  1.00  0.00     0.019 C 
HETATM   20  C   UNL     1     -20.628  -7.895   1.454  1.00  0.00     0.019 C 
ENDBRANCH  14  17
ENDBRANCH   1  11
BRANCH   7  21
HETATM   21  C   UNL     1     -22.417  -3.637 -10.527  1.00  0.00     0.125 A 
HETATM   22  N   UNL     1     -21.462  -3.663 -11.491  1.00  0.00    -0.351 N 
HETATM   23  C   UNL     1     -21.766  -3.186 -12.719  1.00  0.00     0.090 A 
ATOM     24  HN  UNL     1     -20.533  -4.037 -11.293  1.00  0.00     0.166 HD
HETATM   25  C   UNL     1     -22.998  -2.669 -13.061  1.00  0.00     0.019 A 
HETATM   26  C   UNL     1     -23.988  -2.649 -12.090  1.00  0.00     0.029 A 
HETATM   27  C   UNL     1     -23.707  -3.145 -10.817  1.00  0.00     0.077 A 
HETATM   28 CL   UNL     1     -25.046  -3.255  -9.721  1.00  0.00    -0.080 Cl
ENDBRANCH   7  21
TORSDOF 3
ENDMDL
MODEL 3
REMARK VINA RESULT:      -7.9     17.892     20.156
REMARK  3 active torsions:
REMARK  status: ('A' for Active; 'I' for Inactive)
REMARK    1  A    between atoms: C_2  and  C_5 
REMARK    2  A    between atoms: C_8  and  N_9 
REMARK       I    between atoms: N_9  and  C_10 
REMARK       I    between atoms: C_10  and  N_12 
REMARK    3  A    between atoms: N_15  and  C_16 
ROOT
HETATM    1  N   UNL     1     -21.614   9.139   2.546  1.00  0.00    -0.309 N 
HETATM    2  C   UNL     1     -20.595   9.985   2.183  1.00  0.00     0.323 C 
HETATM    3  O   UNL     1     -20.685  10.832   1.297  1.00  0.00    -0.247 OA
HETATM    4  N   UNL     1     -19.417   9.846   2.903  1.00  0.00    -0.331 N 
HETATM    5  C   UNL     1     -19.106   8.801   3.905  1.00  0.00     0.147 C 
HETATM    6  C   UNL     1     -18.088   9.270   4.970  1.00  0.00     0.144 C 
HETATM    7  N   UNL     1     -16.940   9.846   4.268  1.00  0.00    -0.363 N 
HETATM    8  C   UNL     1     -17.301  11.030   3.482  1.00  0.00     0.144 C 
HETATM    9  C   UNL     1     -18.239  10.559   2.366  1.00  0.00     0.147 C 
HETATM   10  H   UNL     1     -21.489   8.585   3.373  1.00  0.00     0.170 HD
ENDROOT
BRANCH   1  11
HETATM   11  C   UNL     1     -22.901   9.070   1.976  1.00  0.00     0.036 A 
HETATM   12  C   UNL     1     -23.171   8.474   0.754  1.00  0.00     0.030 A 
HETATM   13  C   UNL     1     -24.469   8.485   0.228  1.00  0.00     0.010 A 
HETATM   14  C   UNL     1     -25.538   9.077   0.919  1.00  0.00    -0.051 A 
HETATM   15  C   UNL     1     -25.247   9.664   2.159  1.00  0.00     0.010 A 
HETATM   16  C   UNL     1     -23.952   9.651   2.688  1.00  0.00     0.030 A 
BRANCH  14  17
HETATM   17  C   UNL     1     -26.943   9.132   0.304  1.00  0.00    -0.024 C 
HETATM   18  C   UNL     1     -27.400  10.582   0.025  1.00  0.00     0.019 C 
HETATM   19  C   UNL     1     -27.927   8.483   1.297  1.00  0.00     0.019 C 
HETATM   20  C   UNL     1     -27.029   8.379  -1.042  1.00  0.00     0.019 C 
ENDBRANCH  14  17
ENDBRANCH   1  11
BRANCH   7  21
HETATM   21  C   UNL     1     -15.680   9.734   4.819  1.00  0.00     0.125 A 
HETATM   22  N   UNL     1     -15.522  10.149   6.101  1.00  0.00    -0.351 N 
HETATM   23  C   UNL     1     -14.317   9.988   6.692  1.00  0.00     0.090 A 
ATOM     24  HN  UNL     1     -16.298  10.574   6.610  1.00  0.00     0.166 HD
HETATM   25  C   UNL     1     -13.224   9.421   6.071  1.00  0.00     0.019 A 
HETATM   26  C   UNL     1     -13.375   8.979   4.765  1.00  0.00     0.029 A 
HETATM   27  C   UNL     1     -14.610   9.121   4.133  1.00  0.00     0.077 A 
HETATM   28 CL   UNL     1     -14.767   8.379   2.574  1.00  0.00    -0.080 Cl
ENDBRANCH   7  21
TORSDOF 3
ENDMDL
MODEL 4
REMARK VINA RESULT:      -7.8      4.107     10.851
REMARK  3 active torsions:
REMARK  status: ('A' for Active; 'I' for Inactive)
REMARK    1  A    between atoms: C_2  and  C_5 
REMARK    2  A    between atoms: C_8  and  N_9 
REMARK       I    between atoms: N_9  and  C_10 
REMARK       I    between atoms: C_10  and  N_12 
REMARK    3  A    between atoms: N_15  and  C_16 
ROOT
HETATM    1  N   UNL     1     -21.475  -8.822  -3.655  1.00  0.00    -0.309 N 
HETATM    2  C   UNL     1     -20.835  -8.938  -2.446  1.00  0.00     0.323 C 
HETATM    3  O   UNL     1     -19.963  -8.167  -2.051  1.00  0.00    -0.247 OA
HETATM    4  N   UNL     1     -21.244 -10.000  -1.652  1.00  0.00    -0.331 N 
HETATM    5  C   UNL     1     -22.181 -11.083  -2.030  1.00  0.00     0.147 C 
HETATM    6  C   UNL     1     -22.938 -11.675  -0.819  1.00  0.00     0.144 C 
HETATM    7  N   UNL     1     -21.950 -12.013   0.205  1.00  0.00    -0.363 N 
HETATM    8  C   UNL     1     -21.228 -10.835   0.697  1.00  0.00     0.144 C 
HETATM    9  C   UNL     1     -20.401 -10.294  -0.475  1.00  0.00     0.147 C 
HETATM   10  H   UNL     1     -22.268  -9.413  -3.823  1.00  0.00     0.170 HD
ENDROOT
BRANCH   1  11
HETATM   11  C   UNL     1     -21.246  -7.844  -4.644  1.00  0.00     0.036 A 
HETATM   12  C   UNL     1     -20.102  -7.790  -5.424  1.00  0.00     0.030 A 
HETATM   13  C   UNL     1     -19.923  -6.760  -6.356  1.00  0.00     0.010 A 
HETATM   14  C   UNL     1     -20.893  -5.764  -6.547  1.00  0.00    -0.051 A 
HETATM   15  C   UNL     1     -22.049  -5.842  -5.756  1.00  0.00     0.010 A 
HETATM   16  C   UNL     1     -22.231  -6.872  -4.828  1.00  0.00     0.030 A 
BRANCH  14  17
HETATM   17  C   UNL     1     -20.657  -4.610  -7.530  1.00  0.00    -0.024 C 
HETATM   18  C   UNL     1     -21.191  -4.931  -8.944  1.00  0.00     0.019 C 
HETATM   19  C   UNL     1     -19.139  -4.358  -7.618  1.00  0.00     0.019 C 
HETATM   20  C   UNL     1     -21.352  -3.303  -7.086  1.00  0.00     0.019 C 
ENDBRANCH  14  17
ENDBRANCH   1  11
BRANCH   7  21
HETATM   21  C   UNL     1     -22.174 -13.089   1.039  1.00  0.00     0.125 A 
HETATM   22  N   UNL     1     -23.395 -13.179   1.623  1.00  0.00    -0.351 N 
HETATM   23  C   UNL     1     -23.670 -14.258   2.390  1.00  0.00     0.090 A 
ATOM     24  HN  UNL     1     -24.093 -12.447   1.487  1.00  0.00     0.166 HD
HETATM   25  C   UNL     1     -22.781 -15.288   2.618  1.00  0.00     0.019 A 
HETATM   26  C   UNL     1     -21.534 -15.216   2.015  1.00  0.00     0.029 A 
HETATM   27  C   UNL     1     -21.226 -14.120   1.209  1.00  0.00     0.077 A 
HETATM   28 CL   UNL     1     -19.723 -14.197   0.347  1.00  0.00    -0.080 Cl
ENDBRANCH   7  21
TORSDOF 3
ENDMDL
MODEL 5
REMARK VINA RESULT:      -7.8      2.386      4.161
REMARK  3 active torsions:
REMARK  status: ('A' for Active; 'I' for Inactive)
REMARK    1  A    between atoms: C_2  and  C_5 
REMARK    2  A    between atoms: C_8  and  N_9 
REMARK       I    between atoms: N_9  and  C_10 
REMARK       I    between atoms: C_10  and  N_12 
REMARK    3  A    between atoms: N_15  and  C_16 
ROOT
HETATM    1  N   UNL     1     -21.686 -10.212  -1.947  1.00  0.00    -0.309 N 
HETATM    2  C   UNL     1     -21.823  -8.853  -1.801  1.00  0.00     0.323 C 
HETATM    3  O   UNL     1     -22.164  -8.302  -0.756  1.00  0.00    -0.247 OA
HETATM    4  N   UNL     1     -21.532  -8.098  -2.928  1.00  0.00    -0.331 N 
HETATM    5  C   UNL     1     -21.233  -8.609  -4.286  1.00  0.00     0.147 C 
HETATM    6  C   UNL     1     -20.326  -7.659  -5.101  1.00  0.00     0.144 C 
HETATM    7  N   UNL     1     -20.908  -6.317  -5.035  1.00  0.00    -0.363 N 
HETATM    8  C   UNL     1     -20.946  -5.790  -3.667  1.00  0.00     0.144 C 
HETATM    9  C   UNL     1     -21.915  -6.673  -2.873  1.00  0.00     0.147 C 
HETATM   10  H   UNL     1     -21.266 -10.551  -2.791  1.00  0.00     0.170 HD
ENDROOT
BRANCH   1  11
HETATM   11  C   UNL     1     -21.923 -11.196  -0.966  1.00  0.00     0.036 A 
HETATM   12  C   UNL     1     -20.925 -11.771  -0.194  1.00  0.00     0.030 A 
HETATM   13  C   UNL     1     -21.231 -12.778   0.730  1.00  0.00     0.010 A 
HETATM   14  C   UNL     1     -22.547 -13.225   0.922  1.00  0.00    -0.051 A 
HETATM   15  C   UNL     1     -23.544 -12.623   0.141  1.00  0.00     0.010 A 
HETATM   16  C   UNL     1     -23.242 -11.615  -0.780  1.00  0.00     0.030 A 
BRANCH  14  17
HETATM   17  C   UNL     1     -22.858 -14.369   1.897  1.00  0.00    -0.024 C 
HETATM   18  C   UNL     1     -21.716 -14.594   2.914  1.00  0.00     0.019 C 
HETATM   19  C   UNL     1     -23.052 -15.659   1.076  1.00  0.00     0.019 C 
HETATM   20  C   UNL     1     -24.137 -14.110   2.724  1.00  0.00     0.019 C 
ENDBRANCH  14  17
ENDBRANCH   1  11
BRANCH   7  21
HETATM   21  C   UNL     1     -20.766  -5.461  -6.107  1.00  0.00     0.125 A 
HETATM   22  N   UNL     1     -19.513  -5.274  -6.593  1.00  0.00    -0.351 N 
HETATM   23  C   UNL     1     -19.349  -4.495  -7.686  1.00  0.00     0.090 A 
ATOM     24  HN  UNL     1     -18.710  -5.714  -6.142  1.00  0.00     0.166 HD
HETATM   25  C   UNL     1     -20.386  -3.871  -8.349  1.00  0.00     0.019 A 
HETATM   26  C   UNL     1     -21.674  -4.065  -7.871  1.00  0.00     0.029 A 
HETATM   27  C   UNL     1     -21.874  -4.873  -6.753  1.00  0.00     0.077 A 
HETATM   28 CL   UNL     1     -23.523  -5.212  -6.334  1.00  0.00    -0.080 Cl
ENDBRANCH   7  21
TORSDOF 3
ENDMDL
MODEL 6
REMARK VINA RESULT:      -7.4      4.022     10.702
REMARK  3 active torsions:
REMARK  status: ('A' for Active; 'I' for Inactive)
REMARK    1  A    between atoms: C_2  and  C_5 
REMARK    2  A    between atoms: C_8  and  N_9 
REMARK       I    between atoms: N_9  and  C_10 
REMARK       I    between atoms: C_10  and  N_12 
REMARK    3  A    between atoms: N_15  and  C_16 
ROOT
HETATM    1  N   UNL     1     -21.514  -8.796  -3.743  1.00  0.00    -0.309 N 
HETATM    2  C   UNL     1     -21.522 -10.156  -3.929  1.00  0.00     0.323 C 
HETATM    3  O   UNL     1     -21.283 -10.707  -5.002  1.00  0.00    -0.247 OA
HETATM    4  N   UNL     1     -21.807 -10.913  -2.802  1.00  0.00    -0.331 N 
HETATM    5  C   UNL     1     -22.238 -10.407  -1.478  1.00  0.00     0.147 C 
HETATM    6  C   UNL     1     -21.829 -11.338  -0.314  1.00  0.00     0.144 C 
HETATM    7  N   UNL     1     -22.263 -12.695  -0.653  1.00  0.00    -0.363 N 
HETATM    8  C   UNL     1     -21.600 -13.210  -1.855  1.00  0.00     0.144 C 
HETATM    9  C   UNL     1     -22.072 -12.348  -3.032  1.00  0.00     0.147 C 
HETATM   10  H   UNL     1     -21.580  -8.452  -2.804  1.00  0.00     0.170 HD
ENDROOT
BRANCH   1  11
HETATM   11  C   UNL     1     -21.261  -7.810  -4.718  1.00  0.00     0.036 A 
HETATM   12  C   UNL     1     -20.082  -7.729  -5.443  1.00  0.00     0.030 A 
HETATM   13  C   UNL     1     -19.883  -6.692  -6.364  1.00  0.00     0.010 A 
HETATM   14  C   UNL     1     -20.864  -5.718  -6.599  1.00  0.00    -0.051 A 
HETATM   15  C   UNL     1     -22.055  -5.824  -5.864  1.00  0.00     0.010 A 
HETATM   16  C   UNL     1     -22.257  -6.860  -4.947  1.00  0.00     0.030 A 
BRANCH  14  17
HETATM   17  C   UNL     1     -20.609  -4.556  -7.568  1.00  0.00    -0.024 C 
HETATM   18  C   UNL     1     -19.111  -4.181  -7.645  1.00  0.00     0.019 C 
HETATM   19  C   UNL     1     -21.401  -3.332  -7.069  1.00  0.00     0.019 C 
HETATM   20  C   UNL     1     -21.054  -4.880  -9.011  1.00  0.00     0.019 C 
ENDBRANCH  14  17
ENDBRANCH   1  11
BRANCH   7  21
HETATM   21  C   UNL     1     -22.648 -13.556   0.353  1.00  0.00     0.125 A 
HETATM   22  N   UNL     1     -22.034 -13.423   1.556  1.00  0.00    -0.351 N 
HETATM   23  C   UNL     1     -22.437 -14.206   2.581  1.00  0.00     0.090 A 
ATOM     24  HN  UNL     1     -21.283 -12.745   1.684  1.00  0.00     0.166 HD
HETATM   25  C   UNL     1     -23.446 -15.142   2.485  1.00  0.00     0.019 A 
HETATM   26  C   UNL     1     -24.092 -15.279   1.265  1.00  0.00     0.029 A 
HETATM   27  C   UNL     1     -23.705 -14.477   0.192  1.00  0.00     0.077 A 
HETATM   28 CL   UNL     1     -24.682 -14.579  -1.237  1.00  0.00    -0.080 Cl
ENDBRANCH   7  21
TORSDOF 3
ENDMDL
MODEL 7
REMARK VINA RESULT:      -6.9      4.956     11.514
REMARK  3 active torsions:
REMARK  status: ('A' for Active; 'I' for Inactive)
REMARK    1  A    between atoms: C_2  and  C_5 
REMARK    2  A    between atoms: C_8  and  N_9 
REMARK       I    between atoms: N_9  and  C_10 
REMARK       I    between atoms: C_10  and  N_12 
REMARK    3  A    between atoms: N_15  and  C_16 
ROOT
HETATM    1  N   UNL     1     -21.555  -9.659  -2.249  1.00  0.00    -0.309 N 
HETATM    2  C   UNL     1     -22.338 -10.785  -2.319  1.00  0.00     0.323 C 
HETATM    3  O   UNL     1     -22.984 -11.116  -3.311  1.00  0.00    -0.247 OA
HETATM    4  N   UNL     1     -22.355 -11.573  -1.177  1.00  0.00    -0.331 N 
HETATM    5  C   UNL     1     -21.740 -11.253   0.132  1.00  0.00     0.147 C 
HETATM    6  C   UNL     1     -21.337 -12.513   0.932  1.00  0.00     0.144 C 
HETATM    7  N   UNL     1     -22.494 -13.409   0.970  1.00  0.00    -0.363 N 
HETATM    8  C   UNL     1     -22.890 -13.868  -0.365  1.00  0.00     0.144 C 
HETATM    9  C   UNL     1     -23.378 -12.638  -1.137  1.00  0.00     0.147 C 
HETATM   10  H   UNL     1     -20.957  -9.553  -1.452  1.00  0.00     0.170 HD
ENDROOT
BRANCH   1  11
HETATM   11  C   UNL     1     -21.369  -8.694  -3.260  1.00  0.00     0.036 A 
HETATM   12  C   UNL     1     -20.740  -8.954  -4.468  1.00  0.00     0.030 A 
HETATM   13  C   UNL     1     -20.550  -7.933  -5.407  1.00  0.00     0.010 A 
HETATM   14  C   UNL     1     -21.001  -6.625  -5.172  1.00  0.00    -0.051 A 
HETATM   15  C   UNL     1     -21.645  -6.383  -3.950  1.00  0.00     0.010 A 
HETATM   16  C   UNL     1     -21.839  -7.403  -3.012  1.00  0.00     0.030 A 
BRANCH  14  17
HETATM   17  C   UNL     1     -20.734  -5.504  -6.185  1.00  0.00    -0.024 C 
HETATM   18  C   UNL     1     -19.893  -4.358  -5.578  1.00  0.00     0.019 C 
HETATM   19  C   UNL     1     -22.093  -4.935  -6.639  1.00  0.00     0.019 C 
HETATM   20  C   UNL     1     -19.965  -6.001  -7.429  1.00  0.00     0.019 C 
ENDBRANCH  14  17
ENDBRANCH   1  11
BRANCH   7  21
HETATM   21  C   UNL     1     -22.695 -14.215   2.071  1.00  0.00     0.125 A 
HETATM   22  N   UNL     1     -23.909 -14.155   2.673  1.00  0.00    -0.351 N 
HETATM   23  C   UNL     1     -24.160 -14.983   3.712  1.00  0.00     0.090 A 
ATOM     24  HN  UNL     1     -24.619 -13.499   2.348  1.00  0.00     0.166 HD
HETATM   25  C   UNL     1     -23.253 -15.897   4.206  1.00  0.00     0.019 A 
HETATM   26  C   UNL     1     -22.012 -15.979   3.591  1.00  0.00     0.029 A 
HETATM   27  C   UNL     1     -21.729 -15.145   2.509  1.00  0.00     0.077 A 
HETATM   28 CL   UNL     1     -20.232 -15.438   1.684  1.00  0.00    -0.080 Cl
ENDBRANCH   7  21
TORSDOF 3
ENDMDL
MODEL 8
REMARK VINA RESULT:      -6.9     17.071     19.690
REMARK  3 active torsions:
REMARK  status: ('A' for Active; 'I' for Inactive)
REMARK    1  A    between atoms: C_2  and  C_5 
REMARK    2  A    between atoms: C_8  and  N_9 
REMARK       I    between atoms: N_9  and  C_10 
REMARK       I    between atoms: C_10  and  N_12 
REMARK    3  A    between atoms: N_15  and  C_16 
ROOT
HETATM    1  N   UNL     1     -22.679   8.540   1.221  1.00  0.00    -0.309 N 
HETATM    2  C   UNL     1     -21.871   9.630   1.433  1.00  0.00     0.323 C 
HETATM    3  O   UNL     1     -22.041  10.728   0.906  1.00  0.00    -0.247 OA
HETATM    4  N   UNL     1     -20.820   9.432   2.316  1.00  0.00    -0.331 N 
HETATM    5  C   UNL     1     -20.405   8.149   2.930  1.00  0.00     0.147 C 
HETATM    6  C   UNL     1     -19.716   8.333   4.302  1.00  0.00     0.144 C 
HETATM    7  N   UNL     1     -18.663   9.337   4.144  1.00  0.00    -0.363 N 
HETATM    8  C   UNL     1     -19.194  10.649   3.762  1.00  0.00     0.144 C 
HETATM    9  C   UNL     1     -19.799  10.499   2.361  1.00  0.00     0.147 C 
HETATM   10  H   UNL     1     -22.543   7.736   1.804  1.00  0.00     0.170 HD
ENDROOT
BRANCH   1  11
HETATM   11  C   UNL     1     -23.804   8.473   0.373  1.00  0.00     0.036 A 
HETATM   12  C   UNL     1     -23.751   8.043  -0.944  1.00  0.00     0.030 A 
HETATM   13  C   UNL     1     -24.903   8.047  -1.741  1.00  0.00     0.010 A 
HETATM   14  C   UNL     1     -26.144   8.463  -1.237  1.00  0.00    -0.051 A 
HETATM   15  C   UNL     1     -26.180   8.883   0.101  1.00  0.00     0.010 A 
HETATM   16  C   UNL     1     -25.032   8.877   0.899  1.00  0.00     0.030 A 
BRANCH  14  17
HETATM   17  C   UNL     1     -27.385   8.516  -2.139  1.00  0.00    -0.024 C 
HETATM   18  C   UNL     1     -28.691   8.281  -1.346  1.00  0.00     0.019 C 
HETATM   19  C   UNL     1     -27.248   7.415  -3.208  1.00  0.00     0.019 C 
HETATM   20  C   UNL     1     -27.543   9.880  -2.849  1.00  0.00     0.019 C 
ENDBRANCH  14  17
ENDBRANCH   1  11
BRANCH   7  21
HETATM   21  C   UNL     1     -17.516   9.245   4.904  1.00  0.00     0.125 A 
HETATM   22  N   UNL     1     -16.379   8.858   4.271  1.00  0.00    -0.351 N 
HETATM   23  C   UNL     1     -15.224   8.824   4.973  1.00  0.00     0.090 A 
ATOM     24  HN  UNL     1     -16.396   8.597   3.284  1.00  0.00     0.166 HD
HETATM   25  C   UNL     1     -15.123   9.164   6.306  1.00  0.00     0.019 A 
HETATM   26  C   UNL     1     -16.274   9.576   6.962  1.00  0.00     0.029 A 
HETATM   27  C   UNL     1     -17.478   9.631   6.260  1.00  0.00     0.077 A 
HETATM   28 CL   UNL     1     -18.826  10.329   7.099  1.00  0.00    -0.080 Cl
ENDBRANCH   7  21
TORSDOF 3
ENDMDL
MODEL 9
REMARK VINA RESULT:      -6.9      7.531     11.417
REMARK  3 active torsions:
REMARK  status: ('A' for Active; 'I' for Inactive)
REMARK    1  A    between atoms: C_2  and  C_5 
REMARK    2  A    between atoms: C_8  and  N_9 
REMARK       I    between atoms: N_9  and  C_10 
REMARK       I    between atoms: C_10  and  N_12 
REMARK    3  A    between atoms: N_15  and  C_16 
ROOT
HETATM    1  N   UNL     1     -14.306 -13.492   0.764  1.00  0.00    -0.309 N 
HETATM    2  C   UNL     1     -14.877 -13.471  -0.485  1.00  0.00     0.323 C 
HETATM    3  O   UNL     1     -14.382 -14.000  -1.479  1.00  0.00    -0.247 OA
HETATM    4  N   UNL     1     -16.096 -12.814  -0.574  1.00  0.00    -0.331 N 
HETATM    5  C   UNL     1     -16.759 -12.024   0.489  1.00  0.00     0.147 C 
HETATM    6  C   UNL     1     -18.299 -12.006   0.356  1.00  0.00     0.144 C 
HETATM    7  N   UNL     1     -18.624 -11.627  -1.020  1.00  0.00    -0.363 N 
HETATM    8  C   UNL     1     -18.129 -12.600  -2.000  1.00  0.00     0.144 C 
HETATM    9  C   UNL     1     -16.598 -12.558  -1.939  1.00  0.00     0.147 C 
HETATM   10  H   UNL     1     -14.854 -13.159   1.534  1.00  0.00     0.170 HD
ENDROOT
BRANCH   1  11
HETATM   11  C   UNL     1     -13.078 -14.084   1.123  1.00  0.00     0.036 A 
HETATM   12  C   UNL     1     -12.972 -15.288   1.801  1.00  0.00     0.030 A 
HETATM   13  C   UNL     1     -11.718 -15.793   2.165  1.00  0.00     0.010 A 
HETATM   14  C   UNL     1     -10.531 -15.116   1.844  1.00  0.00    -0.051 A 
HETATM   15  C   UNL     1     -10.658 -13.905   1.147  1.00  0.00     0.010 A 
HETATM   16  C   UNL     1     -11.909 -13.402   0.780  1.00  0.00     0.030 A 
BRANCH  14  17
HETATM   17  C   UNL     1      -9.167 -15.653   2.300  1.00  0.00    -0.024 C 
HETATM   18  C   UNL     1      -8.896 -15.360   3.793  1.00  0.00     0.019 C 
HETATM   19  C   UNL     1      -8.076 -14.968   1.454  1.00  0.00     0.019 C 
HETATM   20  C   UNL     1      -9.044 -17.182   2.124  1.00  0.00     0.019 C 
ENDBRANCH  14  17
ENDBRANCH   1  11
BRANCH   7  21
HETATM   21  C   UNL     1     -19.773 -10.907  -1.274  1.00  0.00     0.125 A 
HETATM   22  N   UNL     1     -20.865 -11.193  -0.521  1.00  0.00    -0.351 N 
HETATM   23  C   UNL     1     -21.986 -10.457  -0.698  1.00  0.00     0.090 A 
ATOM     24  HN  UNL     1     -20.841 -11.947   0.166  1.00  0.00     0.166 HD
HETATM   25  C   UNL     1     -22.093  -9.422  -1.603  1.00  0.00     0.019 A 
HETATM   26  C   UNL     1     -20.980  -9.110  -2.369  1.00  0.00     0.029 A 
HETATM   27  C   UNL     1     -19.806  -9.844  -2.200  1.00  0.00     0.077 A 
HETATM   28 CL   UNL     1     -18.411  -9.273  -3.059  1.00  0.00    -0.080 Cl
ENDBRANCH   7  21
TORSDOF 3
ENDMDL
