MODEL 1
REMARK VINA RESULT:      -8.0      0.000      0.000
REMARK  17 active torsions:
REMARK  status: ('A' for Active; 'I' for Inactive)
REMARK    1  A    between atoms: C_2  and  C_3 
REMARK    2  A    between atoms: C_3  and  C_4 
REMARK    3  A    between atoms: C_4  and  C_5 
REMARK    4  A    between atoms: C_5  and  C_6 
REMARK    5  A    between atoms: C_7  and  C_8 
REMARK    6  A    between atoms: C_8  and  C_9 
REMARK    7  A    between atoms: C_9  and  C_10 
REMARK    8  A    between atoms: C_9  and  O_23 
REMARK    9  A    between atoms: C_11  and  C_12 
REMARK   10  A    between atoms: C_13  and  C_14 
REMARK   11  A    between atoms: C_14  and  C_15 
REMARK   12  A    between atoms: C_16  and  C_17 
REMARK   13  A    between atoms: C_17  and  C_18 
REMARK   14  A    between atoms: C_18  and  C_19 
REMARK   15  A    between atoms: C_19  and  C_20 
REMARK   16  A    between atoms: C_20  and  O_22 
REMARK   17  A    between atoms: O_23  and  O_24 
ROOT
HETATM    1  C   UNL     1     -21.610  -5.933  -5.955  1.00  0.00     0.008 C 
HETATM    2  C   UNL     1     -20.712  -4.935  -6.032  1.00  0.00    -0.002 C 
ENDROOT
BRANCH   1   3
HETATM    3  C   UNL     1     -22.079  -6.540  -4.653  1.00  0.00     0.186 C 
BRANCH   3   4
HETATM    4  C   UNL     1     -21.248  -6.109  -3.422  1.00  0.00     0.066 C 
BRANCH   4   5
HETATM    5  C   UNL     1     -21.458  -6.973  -2.212  1.00  0.00    -0.028 C 
HETATM    6  C   UNL     1     -22.304  -6.660  -1.220  1.00  0.00    -0.031 C 
BRANCH   6   7
HETATM    7  C   UNL     1     -22.615  -7.587  -0.083  1.00  0.00     0.027 C 
BRANCH   7   8
HETATM    8  C   UNL     1     -21.435  -8.520   0.215  1.00  0.00     0.004 C 
BRANCH   8   9
HETATM    9  C   UNL     1     -21.850  -9.992   0.320  1.00  0.00    -0.000 C 
BRANCH   9  10
HETATM   10  C   UNL     1     -22.829 -10.375  -0.785  1.00  0.00    -0.005 C 
HETATM   11  C   UNL     1     -24.047 -11.086  -0.221  1.00  0.00     0.005 C 
ENDBRANCH   9  10
ENDBRANCH   8   9
ENDBRANCH   7   8
ENDBRANCH   6   7
ENDBRANCH   4   5
ENDBRANCH   3   4
BRANCH   3  12
HETATM   12  O   UNL     1     -21.961  -7.964  -4.803  1.00  0.00    -0.234 OA
BRANCH  12  13
HETATM   13  O   UNL     1     -21.237  -8.185  -6.050  1.00  0.00    -0.250 OA
HETATM   14  H   UNL     1     -21.819  -7.636  -6.605  1.00  0.00     0.253 HD
ENDBRANCH  12  13
ENDBRANCH   3  12
ENDBRANCH   1   3
BRANCH   2  15
HETATM   15  C   UNL     1     -20.264  -4.358  -7.279  1.00  0.00    -0.004 C 
HETATM   16  C   UNL     1     -20.583  -4.864  -8.483  1.00  0.00    -0.023 C 
BRANCH  16  17
HETATM   17  C   UNL     1     -20.146  -4.274  -9.796  1.00  0.00     0.054 C 
BRANCH  17  18
HETATM   18  C   UNL     1     -21.330  -3.932 -10.658  1.00  0.00    -0.027 C 
HETATM   19  C   UNL     1     -22.566  -3.711 -10.181  1.00  0.00    -0.030 C 
BRANCH  19  20
HETATM   20  C   UNL     1     -23.746  -3.335 -11.034  1.00  0.00     0.027 C 
BRANCH  20  21
HETATM   21  C   UNL     1     -23.319  -2.831 -12.415  1.00  0.00     0.014 C 
BRANCH  21  22
HETATM   22  C   UNL     1     -24.505  -2.598 -13.356  1.00  0.00     0.110 C 
BRANCH  22  23
HETATM   23  C   UNL     1     -24.135  -1.725 -14.531  1.00  0.00     0.139 C 
HETATM   24  O   UNL     1     -23.185  -1.902 -15.277  1.00  0.00    -0.650 OA
BRANCH  23  25
HETATM   25  O   UNL     1     -24.994  -0.690 -14.687  1.00  0.00    -0.776 OA
HETATM   26  H   UNL     1     -25.912  -0.967 -14.866  1.00  0.00     0.167 HD
ENDBRANCH  23  25
ENDBRANCH  22  23
ENDBRANCH  21  22
ENDBRANCH  20  21
ENDBRANCH  19  20
ENDBRANCH  17  18
ENDBRANCH  16  17
ENDBRANCH   2  15
TORSDOF 17
BEGIN_RES ARG D 557
REMARK  4 active torsions:
REMARK  status: ('A' for Active; 'I' for Inactive)
REMARK    1  A    between atoms: CA   and  CB  
REMARK    2  A    between atoms: CB   and  CG  
REMARK    3  A    between atoms: CG   and  CD  
REMARK    4  A    between atoms: CD   and  NE  
REMARK       I    between atoms: NE   and  CZ  
REMARK       I    between atoms: CZ   and  NH1 
REMARK       I    between atoms: CZ   and  NH2 
ROOT
ATOM      1  CA  ARG D 557     -26.217   2.705 -17.014  1.00 35.49     0.159 C 
ENDROOT
BRANCH   1   2
ATOM      2  CB  ARG D 557     -26.789   1.319 -17.183  1.00 35.49     0.034 C 
BRANCH   2   3
ATOM      3  CG  ARG D 557     -28.225   1.228 -17.472  1.00 35.49     0.027 C 
BRANCH   3   4
ATOM      4  CD  ARG D 557     -28.933   0.324 -16.536  1.00 35.49     0.116 C 
BRANCH   4   5
ATOM      5  NE  ARG D 557     -29.238  -0.948 -17.137  1.00 35.49    -0.212 N 
ATOM      6  CZ  ARG D 557     -28.553  -2.058 -16.975  1.00 35.49     0.666 C 
ATOM      7  NH1 ARG D 557     -27.467  -2.118 -16.228  1.00 35.49    -0.235 N 
ATOM      8  NH2 ARG D 557     -28.988  -3.125 -17.580  1.00 35.49    -0.235 N 
ATOM      9  HH  ARG D 557     -27.164  -1.429 -15.818  1.00 35.49     0.174 HD
ATOM     10  HH  ARG D 557     -27.063  -2.871 -16.157  1.00 35.49     0.174 HD
ATOM     11  HH  ARG D 557     -29.697  -3.058 -18.050  1.00 35.49     0.174 HD
ATOM     12  HH  ARG D 557     -28.575  -3.861 -17.496  1.00 35.49     0.174 HD
ATOM     13  HE  ARG D 557     -29.881  -0.983 -17.692  1.00 35.49     0.178 HD
ENDBRANCH   4   5
ENDBRANCH   3   4
ENDBRANCH   2   3
ENDBRANCH   1   2
END_RES ARG D 557
BEGIN_RES GLU D 570
REMARK  3 active torsions:
REMARK  status: ('A' for Active; 'I' for Inactive)
REMARK    5  A    between atoms: CA   and  CB  
REMARK    6  A    between atoms: CB   and  CG  
REMARK    7  A    between atoms: CG   and  CD  
ROOT
ATOM     14  CA  GLU D 570     -18.033  -6.348 -13.375  1.00 32.92     0.160 C 
ENDROOT
BRANCH  14  15
ATOM     15  CB  GLU D 570     -19.500  -6.345 -13.794  1.00 32.92     0.043 C 
BRANCH  15  16
ATOM     16  CG  GLU D 570     -20.095  -7.641 -14.211  1.00 32.92     0.100 C 
BRANCH  16  17
ATOM     17  CD  GLU D 570     -20.956  -7.523 -15.447  1.00 32.92     0.185 C 
ATOM     18  OE1 GLU D 570     -20.881  -8.406 -16.323  1.00 32.92    -0.647 OA
ATOM     19  OE2 GLU D 570     -21.701  -6.528 -15.549  1.00 32.92    -0.647 OA
ENDBRANCH  16  17
ENDBRANCH  15  16
ENDBRANCH  14  15
END_RES GLU D 570
ENDMDL
MODEL 2
REMARK VINA RESULT:      -7.8      1.714      2.114
REMARK  17 active torsions:
REMARK  status: ('A' for Active; 'I' for Inactive)
REMARK    1  A    between atoms: C_2  and  C_3 
REMARK    2  A    between atoms: C_3  and  C_4 
REMARK    3  A    between atoms: C_4  and  C_5 
REMARK    4  A    between atoms: C_5  and  C_6 
REMARK    5  A    between atoms: C_7  and  C_8 
REMARK    6  A    between atoms: C_8  and  C_9 
REMARK    7  A    between atoms: C_9  and  C_10 
REMARK    8  A    between atoms: C_9  and  O_23 
REMARK    9  A    between atoms: C_11  and  C_12 
REMARK   10  A    between atoms: C_13  and  C_14 
REMARK   11  A    between atoms: C_14  and  C_15 
REMARK   12  A    between atoms: C_16  and  C_17 
REMARK   13  A    between atoms: C_17  and  C_18 
REMARK   14  A    between atoms: C_18  and  C_19 
REMARK   15  A    between atoms: C_19  and  C_20 
REMARK   16  A    between atoms: C_20  and  O_22 
REMARK   17  A    between atoms: O_23  and  O_24 
ROOT
HETATM    1  C   UNL     1     -21.284  -6.390  -5.567  1.00  0.00     0.008 C 
HETATM    2  C   UNL     1     -20.513  -5.289  -5.564  1.00  0.00    -0.002 C 
ENDROOT
BRANCH   1   3
HETATM    3  C   UNL     1     -21.946  -6.954  -4.330  1.00  0.00     0.186 C 
BRANCH   3   4
HETATM    4  C   UNL     1     -21.343  -6.437  -3.003  1.00  0.00     0.066 C 
BRANCH   4   5
HETATM    5  C   UNL     1     -21.619  -7.323  -1.823  1.00  0.00    -0.028 C 
HETATM    6  C   UNL     1     -22.421  -6.972  -0.808  1.00  0.00    -0.031 C 
BRANCH   6   7
HETATM    7  C   UNL     1     -22.804  -7.909   0.299  1.00  0.00     0.027 C 
BRANCH   7   8
HETATM    8  C   UNL     1     -21.692  -8.926   0.578  1.00  0.00     0.004 C 
BRANCH   8   9
HETATM    9  C   UNL     1     -22.053 -10.345   0.122  1.00  0.00    -0.000 C 
BRANCH   9  10
HETATM   10  C   UNL     1     -23.560 -10.509  -0.049  1.00  0.00    -0.005 C 
HETATM   11  C   UNL     1     -23.890 -11.308  -1.297  1.00  0.00     0.005 C 
ENDBRANCH   9  10
ENDBRANCH   8   9
ENDBRANCH   7   8
ENDBRANCH   6   7
ENDBRANCH   4   5
ENDBRANCH   3   4
BRANCH   3  12
HETATM   12  O   UNL     1     -21.764  -8.378  -4.386  1.00  0.00    -0.234 OA
BRANCH  12  13
HETATM   13  O   UNL     1     -21.221  -8.670  -5.709  1.00  0.00    -0.250 OA
HETATM   14  H   UNL     1     -20.834  -9.532  -5.472  1.00  0.00     0.253 HD
ENDBRANCH  12  13
ENDBRANCH   3  12
ENDBRANCH   1   3
BRANCH   2  15
HETATM   15  C   UNL     1     -19.880  -4.753  -6.748  1.00  0.00    -0.004 C 
HETATM   16  C   UNL     1     -20.506  -4.640  -7.932  1.00  0.00    -0.023 C 
BRANCH  16  17
HETATM   17  C   UNL     1     -19.878  -4.071  -9.175  1.00  0.00     0.054 C 
BRANCH  17  18
HETATM   18  C   UNL     1     -20.718  -4.362 -10.389  1.00  0.00    -0.027 C 
HETATM   19  C   UNL     1     -21.181  -3.419 -11.225  1.00  0.00    -0.030 C 
BRANCH  19  20
HETATM   20  C   UNL     1     -21.991  -3.706 -12.459  1.00  0.00     0.027 C 
BRANCH  20  21
HETATM   21  C   UNL     1     -23.370  -4.279 -12.120  1.00  0.00     0.014 C 
BRANCH  21  22
HETATM   22  C   UNL     1     -24.301  -3.246 -11.478  1.00  0.00     0.110 C 
BRANCH  22  23
HETATM   23  C   UNL     1     -24.676  -3.620 -10.064  1.00  0.00     0.139 C 
HETATM   24  O   UNL     1     -23.971  -4.235  -9.281  1.00  0.00    -0.650 OA
BRANCH  23  25
HETATM   25  O   UNL     1     -25.917  -3.188  -9.736  1.00  0.00    -0.776 OA
HETATM   26  H   UNL     1     -26.050  -3.076  -8.776  1.00  0.00     0.167 HD
ENDBRANCH  23  25
ENDBRANCH  22  23
ENDBRANCH  21  22
ENDBRANCH  20  21
ENDBRANCH  19  20
ENDBRANCH  17  18
ENDBRANCH  16  17
ENDBRANCH   2  15
TORSDOF 17
BEGIN_RES ARG D 557
REMARK  4 active torsions:
REMARK  status: ('A' for Active; 'I' for Inactive)
REMARK    1  A    between atoms: CA   and  CB  
REMARK    2  A    between atoms: CB   and  CG  
REMARK    3  A    between atoms: CG   and  CD  
REMARK    4  A    between atoms: CD   and  NE  
REMARK       I    between atoms: NE   and  CZ  
REMARK       I    between atoms: CZ   and  NH1 
REMARK       I    between atoms: CZ   and  NH2 
ROOT
ATOM      1  CA  ARG D 557     -26.217   2.705 -17.014  1.00 35.49     0.159 C 
ENDROOT
BRANCH   1   2
ATOM      2  CB  ARG D 557     -26.789   1.319 -17.183  1.00 35.49     0.034 C 
BRANCH   2   3
ATOM      3  CG  ARG D 557     -28.221   1.157 -16.903  1.00 35.49     0.027 C 
BRANCH   3   4
ATOM      4  CD  ARG D 557     -28.603  -0.263 -16.723  1.00 35.49     0.116 C 
BRANCH   4   5
ATOM      5  NE  ARG D 557     -27.589  -1.014 -16.031  1.00 35.49    -0.212 N 
ATOM      6  CZ  ARG D 557     -27.418  -2.315 -16.096  1.00 35.49     0.666 C 
ATOM      7  NH1 ARG D 557     -28.198  -3.097 -16.819  1.00 35.49    -0.235 N 
ATOM      8  NH2 ARG D 557     -26.433  -2.826 -15.417  1.00 35.49    -0.235 N 
ATOM      9  HH  ARG D 557     -28.851  -2.782 -17.276  1.00 35.49     0.174 HD
ATOM     10  HH  ARG D 557     -28.037  -3.939 -16.826  1.00 35.49     0.174 HD
ATOM     11  HH  ARG D 557     -25.941  -2.296 -14.965  1.00 35.49     0.174 HD
ATOM     12  HH  ARG D 557     -26.288  -3.661 -15.437  1.00 35.49     0.174 HD
ATOM     13  HE  ARG D 557     -27.088  -0.598 -15.484  1.00 35.49     0.178 HD
ENDBRANCH   4   5
ENDBRANCH   3   4
ENDBRANCH   2   3
ENDBRANCH   1   2
END_RES ARG D 557
BEGIN_RES GLU D 570
REMARK  3 active torsions:
REMARK  status: ('A' for Active; 'I' for Inactive)
REMARK    5  A    between atoms: CA   and  CB  
REMARK    6  A    between atoms: CB   and  CG  
REMARK    7  A    between atoms: CG   and  CD  
ROOT
ATOM     14  CA  GLU D 570     -18.033  -6.348 -13.375  1.00 32.92     0.160 C 
ENDROOT
BRANCH  14  15
ATOM     15  CB  GLU D 570     -19.500  -6.345 -13.794  1.00 32.92     0.043 C 
BRANCH  15  16
ATOM     16  CG  GLU D 570     -19.796  -6.365 -15.250  1.00 32.92     0.100 C 
BRANCH  16  17
ATOM     17  CD  GLU D 570     -20.892  -7.339 -15.615  1.00 32.92     0.185 C 
ATOM     18  OE1 GLU D 570     -22.032  -6.902 -15.866  1.00 32.92    -0.647 OA
ATOM     19  OE2 GLU D 570     -20.613  -8.554 -15.633  1.00 32.92    -0.647 OA
ENDBRANCH  16  17
ENDBRANCH  15  16
ENDBRANCH  14  15
END_RES GLU D 570
ENDMDL
MODEL 3
REMARK VINA RESULT:      -7.6      3.579      6.892
REMARK  17 active torsions:
REMARK  status: ('A' for Active; 'I' for Inactive)
REMARK    1  A    between atoms: C_2  and  C_3 
REMARK    2  A    between atoms: C_3  and  C_4 
REMARK    3  A    between atoms: C_4  and  C_5 
REMARK    4  A    between atoms: C_5  and  C_6 
REMARK    5  A    between atoms: C_7  and  C_8 
REMARK    6  A    between atoms: C_8  and  C_9 
REMARK    7  A    between atoms: C_9  and  C_10 
REMARK    8  A    between atoms: C_9  and  O_23 
REMARK    9  A    between atoms: C_11  and  C_12 
REMARK   10  A    between atoms: C_13  and  C_14 
REMARK   11  A    between atoms: C_14  and  C_15 
REMARK   12  A    between atoms: C_16  and  C_17 
REMARK   13  A    between atoms: C_17  and  C_18 
REMARK   14  A    between atoms: C_18  and  C_19 
REMARK   15  A    between atoms: C_19  and  C_20 
REMARK   16  A    between atoms: C_20  and  O_22 
REMARK   17  A    between atoms: O_23  and  O_24 
ROOT
HETATM    1  C   UNL     1     -22.956  -4.895 -12.341  1.00  0.00     0.008 C 
HETATM    2  C   UNL     1     -22.904  -5.240 -13.639  1.00  0.00    -0.002 C 
ENDROOT
BRANCH   1   3
HETATM    3  C   UNL     1     -22.042  -3.871 -11.708  1.00  0.00     0.186 C 
BRANCH   3   4
HETATM    4  C   UNL     1     -20.964  -4.478 -10.780  1.00  0.00     0.066 C 
BRANCH   4   5
HETATM    5  C   UNL     1     -20.986  -3.930  -9.382  1.00  0.00    -0.028 C 
HETATM    6  C   UNL     1     -20.822  -4.688  -8.289  1.00  0.00    -0.031 C 
BRANCH   6   7
HETATM    7  C   UNL     1     -20.708  -4.122  -6.905  1.00  0.00     0.027 C 
BRANCH   7   8
HETATM    8  C   UNL     1     -20.019  -5.106  -5.953  1.00  0.00     0.004 C 
BRANCH   8   9
HETATM    9  C   UNL     1     -20.988  -5.738  -4.946  1.00  0.00    -0.000 C 
BRANCH   9  10
HETATM   10  C   UNL     1     -21.250  -7.205  -5.272  1.00  0.00    -0.005 C 
HETATM   11  C   UNL     1     -21.536  -8.007  -4.014  1.00  0.00     0.005 C 
ENDBRANCH   9  10
ENDBRANCH   8   9
ENDBRANCH   7   8
ENDBRANCH   6   7
ENDBRANCH   4   5
ENDBRANCH   3   4
BRANCH   3  12
HETATM   12  O   UNL     1     -22.881  -3.007 -10.924  1.00  0.00    -0.234 OA
BRANCH  12  13
HETATM   13  O   UNL     1     -24.253  -3.447 -11.157  1.00  0.00    -0.250 OA
HETATM   14  H   UNL     1     -24.539  -3.385 -10.228  1.00  0.00     0.253 HD
ENDBRANCH  12  13
ENDBRANCH   3  12
ENDBRANCH   1   3
BRANCH   2  15
HETATM   15  C   UNL     1     -23.778  -6.222 -14.241  1.00  0.00    -0.004 C 
HETATM   16  C   UNL     1     -24.654  -5.929 -15.218  1.00  0.00    -0.023 C 
BRANCH  16  17
HETATM   17  C   UNL     1     -25.562  -6.933 -15.874  1.00  0.00     0.054 C 
BRANCH  17  18
HETATM   18  C   UNL     1     -26.571  -6.254 -16.760  1.00  0.00    -0.027 C 
HETATM   19  C   UNL     1     -27.391  -5.274 -16.347  1.00  0.00    -0.030 C 
BRANCH  19  20
HETATM   20  C   UNL     1     -28.377  -4.567 -17.236  1.00  0.00     0.027 C 
BRANCH  20  21
HETATM   21  C   UNL     1     -28.886  -5.471 -18.362  1.00  0.00     0.014 C 
BRANCH  21  22
HETATM   22  C   UNL     1     -30.119  -6.286 -17.959  1.00  0.00     0.110 C 
BRANCH  22  23
HETATM   23  C   UNL     1     -29.911  -7.768 -18.160  1.00  0.00     0.139 C 
HETATM   24  O   UNL     1     -30.281  -8.414 -19.127  1.00  0.00    -0.650 OA
BRANCH  23  25
HETATM   25  O   UNL     1     -29.245  -8.333 -17.125  1.00  0.00    -0.776 OA
HETATM   26  H   UNL     1     -29.413  -9.290 -17.028  1.00  0.00     0.167 HD
ENDBRANCH  23  25
ENDBRANCH  22  23
ENDBRANCH  21  22
ENDBRANCH  20  21
ENDBRANCH  19  20
ENDBRANCH  17  18
ENDBRANCH  16  17
ENDBRANCH   2  15
TORSDOF 17
BEGIN_RES ARG D 557
REMARK  4 active torsions:
REMARK  status: ('A' for Active; 'I' for Inactive)
REMARK    1  A    between atoms: CA   and  CB  
REMARK    2  A    between atoms: CB   and  CG  
REMARK    3  A    between atoms: CG   and  CD  
REMARK    4  A    between atoms: CD   and  NE  
REMARK       I    between atoms: NE   and  CZ  
REMARK       I    between atoms: CZ   and  NH1 
REMARK       I    between atoms: CZ   and  NH2 
ROOT
ATOM      1  CA  ARG D 557     -26.217   2.705 -17.014  1.00 35.49     0.159 C 
ENDROOT
BRANCH   1   2
ATOM      2  CB  ARG D 557     -26.789   1.319 -17.183  1.00 35.49     0.034 C 
BRANCH   2   3
ATOM      3  CG  ARG D 557     -25.850   0.197 -17.061  1.00 35.49     0.027 C 
BRANCH   3   4
ATOM      4  CD  ARG D 557     -26.118  -0.635 -15.866  1.00 35.49     0.116 C 
BRANCH   4   5
ATOM      5  NE  ARG D 557     -24.968  -0.738 -15.007  1.00 35.49    -0.212 N 
ATOM      6  CZ  ARG D 557     -24.707  -1.732 -14.188  1.00 35.49     0.666 C 
ATOM      7  NH1 ARG D 557     -25.511  -2.771 -14.055  1.00 35.49    -0.235 N 
ATOM      8  NH2 ARG D 557     -23.604  -1.669 -13.499  1.00 35.49    -0.235 N 
ATOM      9  HH  ARG D 557     -26.240  -2.834 -14.500  1.00 35.49     0.174 HD
ATOM     10  HH  ARG D 557     -25.287  -3.391 -13.507  1.00 35.49     0.174 HD
ATOM     11  HH  ARG D 557     -23.101  -0.989 -13.611  1.00 35.49     0.174 HD
ATOM     12  HH  ARG D 557     -23.400  -2.293 -12.963  1.00 35.49     0.174 HD
ATOM     13  HE  ARG D 557     -24.433  -0.077 -14.975  1.00 35.49     0.178 HD
ENDBRANCH   4   5
ENDBRANCH   3   4
ENDBRANCH   2   3
ENDBRANCH   1   2
END_RES ARG D 557
BEGIN_RES GLU D 570
REMARK  3 active torsions:
REMARK  status: ('A' for Active; 'I' for Inactive)
REMARK    5  A    between atoms: CA   and  CB  
REMARK    6  A    between atoms: CB   and  CG  
REMARK    7  A    between atoms: CG   and  CD  
ROOT
ATOM     14  CA  GLU D 570     -18.033  -6.348 -13.375  1.00 32.92     0.160 C 
ENDROOT
BRANCH  14  15
ATOM     15  CB  GLU D 570     -19.500  -6.345 -13.794  1.00 32.92     0.043 C 
BRANCH  15  16
ATOM     16  CG  GLU D 570     -19.798  -6.198 -15.242  1.00 32.92     0.100 C 
BRANCH  16  17
ATOM     17  CD  GLU D 570     -20.651  -7.321 -15.785  1.00 32.92     0.185 C 
ATOM     18  OE1 GLU D 570     -20.606  -8.437 -15.233  1.00 32.92    -0.647 OA
ATOM     19  OE2 GLU D 570     -21.360  -7.086 -16.784  1.00 32.92    -0.647 OA
ENDBRANCH  16  17
ENDBRANCH  15  16
ENDBRANCH  14  15
END_RES GLU D 570
ENDMDL
MODEL 4
REMARK VINA RESULT:      -7.6      3.767      6.439
REMARK  17 active torsions:
REMARK  status: ('A' for Active; 'I' for Inactive)
REMARK    1  A    between atoms: C_2  and  C_3 
REMARK    2  A    between atoms: C_3  and  C_4 
REMARK    3  A    between atoms: C_4  and  C_5 
REMARK    4  A    between atoms: C_5  and  C_6 
REMARK    5  A    between atoms: C_7  and  C_8 
REMARK    6  A    between atoms: C_8  and  C_9 
REMARK    7  A    between atoms: C_9  and  C_10 
REMARK    8  A    between atoms: C_9  and  O_23 
REMARK    9  A    between atoms: C_11  and  C_12 
REMARK   10  A    between atoms: C_13  and  C_14 
REMARK   11  A    between atoms: C_14  and  C_15 
REMARK   12  A    between atoms: C_16  and  C_17 
REMARK   13  A    between atoms: C_17  and  C_18 
REMARK   14  A    between atoms: C_18  and  C_19 
REMARK   15  A    between atoms: C_19  and  C_20 
REMARK   16  A    between atoms: C_20  and  O_22 
REMARK   17  A    between atoms: O_23  and  O_24 
ROOT
HETATM    1  C   UNL     1     -23.393  -5.018 -12.496  1.00  0.00     0.008 C 
HETATM    2  C   UNL     1     -22.864  -4.936 -13.730  1.00  0.00    -0.002 C 
ENDROOT
BRANCH   1   3
HETATM    3  C   UNL     1     -22.733  -4.448 -11.261  1.00  0.00     0.186 C 
BRANCH   3   4
HETATM    4  C   UNL     1     -23.603  -4.538  -9.985  1.00  0.00     0.066 C 
BRANCH   4   5
HETATM    5  C   UNL     1     -22.911  -4.055  -8.743  1.00  0.00    -0.028 C 
HETATM    6  C   UNL     1     -21.671  -4.429  -8.397  1.00  0.00    -0.031 C 
BRANCH   6   7
HETATM    7  C   UNL     1     -20.932  -3.842  -7.231  1.00  0.00     0.027 C 
BRANCH   7   8
HETATM    8  C   UNL     1     -20.119  -4.909  -6.491  1.00  0.00     0.004 C 
BRANCH   8   9
HETATM    9  C   UNL     1     -20.672  -5.219  -5.094  1.00  0.00    -0.000 C 
BRANCH   9  10
HETATM   10  C   UNL     1     -21.811  -6.232  -5.158  1.00  0.00    -0.005 C 
HETATM   11  C   UNL     1     -21.309  -7.601  -5.583  1.00  0.00     0.005 C 
ENDBRANCH   9  10
ENDBRANCH   8   9
ENDBRANCH   7   8
ENDBRANCH   6   7
ENDBRANCH   4   5
ENDBRANCH   3   4
BRANCH   3  12
HETATM   12  O   UNL     1     -22.479  -3.061 -11.540  1.00  0.00    -0.234 OA
BRANCH  12  13
HETATM   13  O   UNL     1     -21.030  -2.925 -11.647  1.00  0.00    -0.250 OA
HETATM   14  H   UNL     1     -20.989  -2.011 -11.311  1.00  0.00     0.253 HD
ENDBRANCH  12  13
ENDBRANCH   3  12
ENDBRANCH   1   3
BRANCH   2  15
HETATM   15  C   UNL     1     -23.497  -5.483 -14.908  1.00  0.00    -0.004 C 
HETATM   16  C   UNL     1     -24.147  -6.660 -14.918  1.00  0.00    -0.023 C 
BRANCH  16  17
HETATM   17  C   UNL     1     -24.829  -7.244 -16.124  1.00  0.00     0.054 C 
BRANCH  17  18
HETATM   18  C   UNL     1     -26.093  -6.495 -16.449  1.00  0.00    -0.027 C 
HETATM   19  C   UNL     1     -27.266  -6.700 -15.831  1.00  0.00    -0.030 C 
BRANCH  19  20
HETATM   20  C   UNL     1     -28.524  -5.930 -16.127  1.00  0.00     0.027 C 
BRANCH  20  21
HETATM   21  C   UNL     1     -28.373  -5.036 -17.361  1.00  0.00     0.014 C 
BRANCH  21  22
HETATM   22  C   UNL     1     -29.298  -3.816 -17.328  1.00  0.00     0.110 C 
BRANCH  22  23
HETATM   23  C   UNL     1     -28.560  -2.553 -16.957  1.00  0.00     0.139 C 
HETATM   24  O   UNL     1     -27.519  -2.498 -16.320  1.00  0.00    -0.650 OA
BRANCH  23  25
HETATM   25  O   UNL     1     -29.185  -1.444 -17.417  1.00  0.00    -0.776 OA
HETATM   26  H   UNL     1     -28.967  -1.229 -18.344  1.00  0.00     0.167 HD
ENDBRANCH  23  25
ENDBRANCH  22  23
ENDBRANCH  21  22
ENDBRANCH  20  21
ENDBRANCH  19  20
ENDBRANCH  17  18
ENDBRANCH  16  17
ENDBRANCH   2  15
TORSDOF 17
BEGIN_RES ARG D 557
REMARK  4 active torsions:
REMARK  status: ('A' for Active; 'I' for Inactive)
REMARK    1  A    between atoms: CA   and  CB  
REMARK    2  A    between atoms: CB   and  CG  
REMARK    3  A    between atoms: CG   and  CD  
REMARK    4  A    between atoms: CD   and  NE  
REMARK       I    between atoms: NE   and  CZ  
REMARK       I    between atoms: CZ   and  NH1 
REMARK       I    between atoms: CZ   and  NH2 
ROOT
ATOM      1  CA  ARG D 557     -26.217   2.705 -17.014  1.00 35.49     0.159 C 
ENDROOT
BRANCH   1   2
ATOM      2  CB  ARG D 557     -26.789   1.319 -17.183  1.00 35.49     0.034 C 
BRANCH   2   3
ATOM      3  CG  ARG D 557     -25.833   0.205 -17.179  1.00 35.49     0.027 C 
BRANCH   3   4
ATOM      4  CD  ARG D 557     -24.694   0.443 -16.263  1.00 35.49     0.116 C 
BRANCH   4   5
ATOM      5  NE  ARG D 557     -24.799  -0.330 -15.054  1.00 35.49    -0.212 N 
ATOM      6  CZ  ARG D 557     -23.994  -1.304 -14.691  1.00 35.49     0.666 C 
ATOM      7  NH1 ARG D 557     -22.976  -1.696 -15.435  1.00 35.49    -0.235 N 
ATOM      8  NH2 ARG D 557     -24.227  -1.881 -13.549  1.00 35.49    -0.235 N 
ATOM      9  HH  ARG D 557     -22.803  -1.328 -16.190  1.00 35.49     0.174 HD
ATOM     10  HH  ARG D 557     -22.483  -2.335 -15.146  1.00 35.49     0.174 HD
ATOM     11  HH  ARG D 557     -24.887  -1.602 -13.086  1.00 35.49     0.174 HD
ATOM     12  HH  ARG D 557     -23.727  -2.511 -13.280  1.00 35.49     0.174 HD
ATOM     13  HE  ARG D 557     -25.470  -0.193 -14.549  1.00 35.49     0.178 HD
ENDBRANCH   4   5
ENDBRANCH   3   4
ENDBRANCH   2   3
ENDBRANCH   1   2
END_RES ARG D 557
BEGIN_RES GLU D 570
REMARK  3 active torsions:
REMARK  status: ('A' for Active; 'I' for Inactive)
REMARK    5  A    between atoms: CA   and  CB  
REMARK    6  A    between atoms: CB   and  CG  
REMARK    7  A    between atoms: CG   and  CD  
ROOT
ATOM     14  CA  GLU D 570     -18.033  -6.348 -13.375  1.00 32.92     0.160 C 
ENDROOT
BRANCH  14  15
ATOM     15  CB  GLU D 570     -19.500  -6.345 -13.794  1.00 32.92     0.043 C 
BRANCH  15  16
ATOM     16  CG  GLU D 570     -19.796  -6.300 -15.249  1.00 32.92     0.100 C 
BRANCH  16  17
ATOM     17  CD  GLU D 570     -20.604  -7.485 -15.723  1.00 32.92     0.185 C 
ATOM     18  OE1 GLU D 570     -21.260  -7.388 -16.778  1.00 32.92    -0.647 OA
ATOM     19  OE2 GLU D 570     -20.595  -8.517 -15.023  1.00 32.92    -0.647 OA
ENDBRANCH  16  17
ENDBRANCH  15  16
ENDBRANCH  14  15
END_RES GLU D 570
ENDMDL
MODEL 5
REMARK VINA RESULT:      -7.4      2.609      3.895
REMARK  17 active torsions:
REMARK  status: ('A' for Active; 'I' for Inactive)
REMARK    1  A    between atoms: C_2  and  C_3 
REMARK    2  A    between atoms: C_3  and  C_4 
REMARK    3  A    between atoms: C_4  and  C_5 
REMARK    4  A    between atoms: C_5  and  C_6 
REMARK    5  A    between atoms: C_7  and  C_8 
REMARK    6  A    between atoms: C_8  and  C_9 
REMARK    7  A    between atoms: C_9  and  C_10 
REMARK    8  A    between atoms: C_9  and  O_23 
REMARK    9  A    between atoms: C_11  and  C_12 
REMARK   10  A    between atoms: C_13  and  C_14 
REMARK   11  A    between atoms: C_14  and  C_15 
REMARK   12  A    between atoms: C_16  and  C_17 
REMARK   13  A    between atoms: C_17  and  C_18 
REMARK   14  A    between atoms: C_18  and  C_19 
REMARK   15  A    between atoms: C_19  and  C_20 
REMARK   16  A    between atoms: C_20  and  O_22 
REMARK   17  A    between atoms: O_23  and  O_24 
ROOT
HETATM    1  C   UNL     1     -20.738  -9.149  -5.003  1.00  0.00     0.008 C 
HETATM    2  C   UNL     1     -21.687  -8.196  -4.999  1.00  0.00    -0.002 C 
ENDROOT
BRANCH   1   3
HETATM    3  C   UNL     1     -21.035 -10.630  -4.948  1.00  0.00     0.186 C 
BRANCH   3   4
HETATM    4  C   UNL     1     -22.230 -10.998  -4.038  1.00  0.00     0.066 C 
BRANCH   4   5
HETATM    5  C   UNL     1     -22.087 -10.517  -2.623  1.00  0.00    -0.028 C 
HETATM    6  C   UNL     1     -22.965 -10.810  -1.652  1.00  0.00    -0.031 C 
BRANCH   6   7
HETATM    7  C   UNL     1     -22.750 -10.445  -0.213  1.00  0.00     0.027 C 
BRANCH   7   8
HETATM    8  C   UNL     1     -23.682  -9.308   0.220  1.00  0.00     0.004 C 
BRANCH   8   9
HETATM    9  C   UNL     1     -22.925  -8.054   0.673  1.00  0.00    -0.000 C 
BRANCH   9  10
HETATM   10  C   UNL     1     -21.827  -7.679  -0.317  1.00  0.00    -0.005 C 
HETATM   11  C   UNL     1     -22.341  -6.711  -1.370  1.00  0.00     0.005 C 
ENDBRANCH   9  10
ENDBRANCH   8   9
ENDBRANCH   7   8
ENDBRANCH   6   7
ENDBRANCH   4   5
ENDBRANCH   3   4
BRANCH   3  12
HETATM   12  O   UNL     1     -19.855 -11.261  -4.425  1.00  0.00    -0.234 OA
BRANCH  12  13
HETATM   13  O   UNL     1     -19.936 -12.665  -4.814  1.00  0.00    -0.250 OA
HETATM   14  H   UNL     1     -19.188 -12.642  -5.438  1.00  0.00     0.253 HD
ENDBRANCH  12  13
ENDBRANCH   3  12
ENDBRANCH   1   3
BRANCH   2  15
HETATM   15  C   UNL     1     -21.399  -6.781  -5.050  1.00  0.00    -0.004 C 
HETATM   16  C   UNL     1     -20.405  -6.256  -5.788  1.00  0.00    -0.023 C 
BRANCH  16  17
HETATM   17  C   UNL     1     -20.095  -4.787  -5.873  1.00  0.00     0.054 C 
BRANCH  17  18
HETATM   18  C   UNL     1     -19.914  -4.353  -7.302  1.00  0.00    -0.027 C 
HETATM   19  C   UNL     1     -20.769  -4.655  -8.292  1.00  0.00    -0.030 C 
BRANCH  19  20
HETATM   20  C   UNL     1     -20.612  -4.195  -9.715  1.00  0.00     0.027 C 
BRANCH  20  21
HETATM   21  C   UNL     1     -21.868  -3.492 -10.233  1.00  0.00     0.014 C 
BRANCH  21  22
HETATM   22  C   UNL     1     -23.127  -4.356 -10.111  1.00  0.00     0.110 C 
BRANCH  22  23
HETATM   23  C   UNL     1     -24.388  -3.526 -10.111  1.00  0.00     0.139 C 
HETATM   24  O   UNL     1     -25.042  -3.226 -11.098  1.00  0.00    -0.650 OA
BRANCH  23  25
HETATM   25  O   UNL     1     -24.740  -3.134  -8.864  1.00  0.00    -0.776 OA
HETATM   26  H   UNL     1     -24.648  -2.173  -8.716  1.00  0.00     0.167 HD
ENDBRANCH  23  25
ENDBRANCH  22  23
ENDBRANCH  21  22
ENDBRANCH  20  21
ENDBRANCH  19  20
ENDBRANCH  17  18
ENDBRANCH  16  17
ENDBRANCH   2  15
TORSDOF 17
BEGIN_RES ARG D 557
REMARK  4 active torsions:
REMARK  status: ('A' for Active; 'I' for Inactive)
REMARK    1  A    between atoms: CA   and  CB  
REMARK    2  A    between atoms: CB   and  CG  
REMARK    3  A    between atoms: CG   and  CD  
REMARK    4  A    between atoms: CD   and  NE  
REMARK       I    between atoms: NE   and  CZ  
REMARK       I    between atoms: CZ   and  NH1 
REMARK       I    between atoms: CZ   and  NH2 
ROOT
ATOM      1  CA  ARG D 557     -26.217   2.705 -17.014  1.00 35.49     0.159 C 
ENDROOT
BRANCH   1   2
ATOM      2  CB  ARG D 557     -26.789   1.319 -17.183  1.00 35.49     0.034 C 
BRANCH   2   3
ATOM      3  CG  ARG D 557     -25.861   0.195 -17.006  1.00 35.49     0.027 C 
BRANCH   3   4
ATOM      4  CD  ARG D 557     -26.210  -0.646 -15.839  1.00 35.49     0.116 C 
BRANCH   4   5
ATOM      5  NE  ARG D 557     -25.071  -0.906 -14.998  1.00 35.49    -0.212 N 
ATOM      6  CZ  ARG D 557     -24.877  -1.991 -14.282  1.00 35.49     0.666 C 
ATOM      7  NH1 ARG D 557     -25.746  -2.984 -14.249  1.00 35.49    -0.235 N 
ATOM      8  NH2 ARG D 557     -23.775  -2.066 -13.594  1.00 35.49    -0.235 N 
ATOM      9  HH  ARG D 557     -26.476  -2.957 -14.696  1.00 35.49     0.174 HD
ATOM     10  HH  ARG D 557     -25.564  -3.668 -13.766  1.00 35.49     0.174 HD
ATOM     11  HH  ARG D 557     -23.228  -1.413 -13.640  1.00 35.49     0.174 HD
ATOM     12  HH  ARG D 557     -23.612  -2.753 -13.123  1.00 35.49     0.174 HD
ATOM     13  HE  ARG D 557     -24.496  -0.288 -14.903  1.00 35.49     0.178 HD
ENDBRANCH   4   5
ENDBRANCH   3   4
ENDBRANCH   2   3
ENDBRANCH   1   2
END_RES ARG D 557
BEGIN_RES GLU D 570
REMARK  3 active torsions:
REMARK  status: ('A' for Active; 'I' for Inactive)
REMARK    5  A    between atoms: CA   and  CB  
REMARK    6  A    between atoms: CB   and  CG  
REMARK    7  A    between atoms: CG   and  CD  
ROOT
ATOM     14  CA  GLU D 570     -18.033  -6.348 -13.375  1.00 32.92     0.160 C 
ENDROOT
BRANCH  14  15
ATOM     15  CB  GLU D 570     -19.500  -6.345 -13.794  1.00 32.92     0.043 C 
BRANCH  15  16
ATOM     16  CG  GLU D 570     -20.415  -5.419 -13.077  1.00 32.92     0.100 C 
BRANCH  16  17
ATOM     17  CD  GLU D 570     -21.657  -5.086 -13.871  1.00 32.92     0.185 C 
ATOM     18  OE1 GLU D 570     -21.548  -4.826 -15.084  1.00 32.92    -0.647 OA
ATOM     19  OE2 GLU D 570     -22.748  -5.068 -13.268  1.00 32.92    -0.647 OA
ENDBRANCH  16  17
ENDBRANCH  15  16
ENDBRANCH  14  15
END_RES GLU D 570
ENDMDL
MODEL 6
REMARK VINA RESULT:      -7.4      1.201      1.670
REMARK  17 active torsions:
REMARK  status: ('A' for Active; 'I' for Inactive)
REMARK    1  A    between atoms: C_2  and  C_3 
REMARK    2  A    between atoms: C_3  and  C_4 
REMARK    3  A    between atoms: C_4  and  C_5 
REMARK    4  A    between atoms: C_5  and  C_6 
REMARK    5  A    between atoms: C_7  and  C_8 
REMARK    6  A    between atoms: C_8  and  C_9 
REMARK    7  A    between atoms: C_9  and  C_10 
REMARK    8  A    between atoms: C_9  and  O_23 
REMARK    9  A    between atoms: C_11  and  C_12 
REMARK   10  A    between atoms: C_13  and  C_14 
REMARK   11  A    between atoms: C_14  and  C_15 
REMARK   12  A    between atoms: C_16  and  C_17 
REMARK   13  A    between atoms: C_17  and  C_18 
REMARK   14  A    between atoms: C_18  and  C_19 
REMARK   15  A    between atoms: C_19  and  C_20 
REMARK   16  A    between atoms: C_20  and  O_22 
REMARK   17  A    between atoms: O_23  and  O_24 
ROOT
HETATM    1  C   UNL     1     -20.917  -6.205  -5.676  1.00  0.00     0.008 C 
HETATM    2  C   UNL     1     -20.852  -4.874  -5.860  1.00  0.00    -0.002 C 
ENDROOT
BRANCH   1   3
HETATM    3  C   UNL     1     -21.316  -6.852  -4.369  1.00  0.00     0.186 C 
BRANCH   3   4
HETATM    4  C   UNL     1     -21.754  -8.329  -4.507  1.00  0.00     0.066 C 
BRANCH   4   5
HETATM    5  C   UNL     1     -21.211  -9.227  -3.433  1.00  0.00    -0.028 C 
HETATM    6  C   UNL     1     -20.272  -8.844  -2.556  1.00  0.00    -0.031 C 
BRANCH   6   7
HETATM    7  C   UNL     1     -19.830  -9.694  -1.403  1.00  0.00     0.027 C 
BRANCH   7   8
HETATM    8  C   UNL     1     -20.899  -9.746  -0.305  1.00  0.00     0.004 C 
BRANCH   8   9
HETATM    9  C   UNL     1     -21.459  -8.362   0.049  1.00  0.00    -0.000 C 
BRANCH   9  10
HETATM   10  C   UNL     1     -22.945  -8.432   0.384  1.00  0.00    -0.005 C 
HETATM   11  C   UNL     1     -23.551  -9.751  -0.064  1.00  0.00     0.005 C 
ENDBRANCH   9  10
ENDBRANCH   8   9
ENDBRANCH   7   8
ENDBRANCH   6   7
ENDBRANCH   4   5
ENDBRANCH   3   4
BRANCH   3  12
HETATM   12  O   UNL     1     -22.428  -6.094  -3.864  1.00  0.00    -0.234 OA
BRANCH  12  13
HETATM   13  O   UNL     1     -22.219  -5.970  -2.426  1.00  0.00    -0.250 OA
HETATM   14  H   UNL     1     -22.895  -5.284  -2.283  1.00  0.00     0.253 HD
ENDBRANCH  12  13
ENDBRANCH   3  12
ENDBRANCH   1   3
BRANCH   2  15
HETATM   15  C   UNL     1     -20.468  -4.259  -7.110  1.00  0.00    -0.004 C 
HETATM   16  C   UNL     1     -20.423  -4.924  -8.277  1.00  0.00    -0.023 C 
BRANCH  16  17
HETATM   17  C   UNL     1     -20.044  -4.305  -9.595  1.00  0.00     0.054 C 
BRANCH  17  18
HETATM   18  C   UNL     1     -21.164  -4.426 -10.593  1.00  0.00    -0.027 C 
HETATM   19  C   UNL     1     -21.360  -3.569 -11.608  1.00  0.00    -0.030 C 
BRANCH  19  20
HETATM   20  C   UNL     1     -22.456  -3.704 -12.629  1.00  0.00     0.027 C 
BRANCH  20  21
HETATM   21  C   UNL     1     -23.604  -2.725 -12.371  1.00  0.00     0.014 C 
BRANCH  21  22
HETATM   22  C   UNL     1     -24.599  -2.657 -13.533  1.00  0.00     0.110 C 
BRANCH  22  23
HETATM   23  C   UNL     1     -24.154  -1.695 -14.608  1.00  0.00     0.139 C 
HETATM   24  O   UNL     1     -23.181  -1.838 -15.332  1.00  0.00    -0.650 OA
BRANCH  23  25
HETATM   25  O   UNL     1     -24.969  -0.617 -14.696  1.00  0.00    -0.776 OA
HETATM   26  H   UNL     1     -25.906  -0.848 -14.842  1.00  0.00     0.167 HD
ENDBRANCH  23  25
ENDBRANCH  22  23
ENDBRANCH  21  22
ENDBRANCH  20  21
ENDBRANCH  19  20
ENDBRANCH  17  18
ENDBRANCH  16  17
ENDBRANCH   2  15
TORSDOF 17
BEGIN_RES ARG D 557
REMARK  4 active torsions:
REMARK  status: ('A' for Active; 'I' for Inactive)
REMARK    1  A    between atoms: CA   and  CB  
REMARK    2  A    between atoms: CB   and  CG  
REMARK    3  A    between atoms: CG   and  CD  
REMARK    4  A    between atoms: CD   and  NE  
REMARK       I    between atoms: NE   and  CZ  
REMARK       I    between atoms: CZ   and  NH1 
REMARK       I    between atoms: CZ   and  NH2 
ROOT
ATOM      1  CA  ARG D 557     -26.217   2.705 -17.014  1.00 35.49     0.159 C 
ENDROOT
BRANCH   1   2
ATOM      2  CB  ARG D 557     -26.789   1.319 -17.183  1.00 35.49     0.034 C 
BRANCH   2   3
ATOM      3  CG  ARG D 557     -28.232   1.226 -17.436  1.00 35.49     0.027 C 
BRANCH   3   4
ATOM      4  CD  ARG D 557     -28.912   0.306 -16.496  1.00 35.49     0.116 C 
BRANCH   4   5
ATOM      5  NE  ARG D 557     -29.241  -0.952 -17.111  1.00 35.49    -0.212 N 
ATOM      6  CZ  ARG D 557     -28.561  -2.070 -16.985  1.00 35.49     0.666 C 
ATOM      7  NH1 ARG D 557     -27.457  -2.151 -16.266  1.00 35.49    -0.235 N 
ATOM      8  NH2 ARG D 557     -29.019  -3.123 -17.598  1.00 35.49    -0.235 N 
ATOM      9  HH  ARG D 557     -27.139  -1.471 -15.852  1.00 35.49     0.174 HD
ATOM     10  HH  ARG D 557     -27.057  -2.908 -16.218  1.00 35.49     0.174 HD
ATOM     11  HH  ARG D 557     -29.738  -3.043 -18.049  1.00 35.49     0.174 HD
ATOM     12  HH  ARG D 557     -28.609  -3.863 -17.537  1.00 35.49     0.174 HD
ATOM     13  HE  ARG D 557     -29.898  -0.973 -17.651  1.00 35.49     0.178 HD
ENDBRANCH   4   5
ENDBRANCH   3   4
ENDBRANCH   2   3
ENDBRANCH   1   2
END_RES ARG D 557
BEGIN_RES GLU D 570
REMARK  3 active torsions:
REMARK  status: ('A' for Active; 'I' for Inactive)
REMARK    5  A    between atoms: CA   and  CB  
REMARK    6  A    between atoms: CB   and  CG  
REMARK    7  A    between atoms: CG   and  CD  
ROOT
ATOM     14  CA  GLU D 570     -18.033  -6.348 -13.375  1.00 32.92     0.160 C 
ENDROOT
BRANCH  14  15
ATOM     15  CB  GLU D 570     -19.500  -6.345 -13.794  1.00 32.92     0.043 C 
BRANCH  15  16
ATOM     16  CG  GLU D 570     -19.796  -6.271 -15.248  1.00 32.92     0.100 C 
BRANCH  16  17
ATOM     17  CD  GLU D 570     -20.816  -7.292 -15.694  1.00 32.92     0.185 C 
ATOM     18  OE1 GLU D 570     -21.844  -6.904 -16.282  1.00 32.92    -0.647 OA
ATOM     19  OE2 GLU D 570     -20.593  -8.492 -15.439  1.00 32.92    -0.647 OA
ENDBRANCH  16  17
ENDBRANCH  15  16
ENDBRANCH  14  15
END_RES GLU D 570
ENDMDL
MODEL 7
REMARK VINA RESULT:      -7.3      3.439      6.341
REMARK  17 active torsions:
REMARK  status: ('A' for Active; 'I' for Inactive)
REMARK    1  A    between atoms: C_2  and  C_3 
REMARK    2  A    between atoms: C_3  and  C_4 
REMARK    3  A    between atoms: C_4  and  C_5 
REMARK    4  A    between atoms: C_5  and  C_6 
REMARK    5  A    between atoms: C_7  and  C_8 
REMARK    6  A    between atoms: C_8  and  C_9 
REMARK    7  A    between atoms: C_9  and  C_10 
REMARK    8  A    between atoms: C_9  and  O_23 
REMARK    9  A    between atoms: C_11  and  C_12 
REMARK   10  A    between atoms: C_13  and  C_14 
REMARK   11  A    between atoms: C_14  and  C_15 
REMARK   12  A    between atoms: C_16  and  C_17 
REMARK   13  A    between atoms: C_17  and  C_18 
REMARK   14  A    between atoms: C_18  and  C_19 
REMARK   15  A    between atoms: C_19  and  C_20 
REMARK   16  A    between atoms: C_20  and  O_22 
REMARK   17  A    between atoms: O_23  and  O_24 
ROOT
HETATM    1  C   UNL     1     -23.040  -4.734 -12.092  1.00  0.00     0.008 C 
HETATM    2  C   UNL     1     -22.788  -4.584 -13.404  1.00  0.00    -0.002 C 
ENDROOT
BRANCH   1   3
HETATM    3  C   UNL     1     -22.174  -4.151 -10.999  1.00  0.00     0.186 C 
BRANCH   3   4
HETATM    4  C   UNL     1     -22.866  -4.079  -9.618  1.00  0.00     0.066 C 
BRANCH   4   5
HETATM    5  C   UNL     1     -22.000  -4.534  -8.479  1.00  0.00    -0.028 C 
HETATM    6  C   UNL     1     -20.677  -4.729  -8.590  1.00  0.00    -0.031 C 
BRANCH   6   7
HETATM    7  C   UNL     1     -19.794  -5.050  -7.422  1.00  0.00     0.027 C 
BRANCH   7   8
HETATM    8  C   UNL     1     -20.374  -4.498  -6.114  1.00  0.00     0.004 C 
BRANCH   8   9
HETATM    9  C   UNL     1     -20.828  -5.601  -5.150  1.00  0.00    -0.000 C 
BRANCH   9  10
HETATM   10  C   UNL     1     -20.394  -6.980  -5.638  1.00  0.00    -0.005 C 
HETATM   11  C   UNL     1     -21.366  -8.056  -5.185  1.00  0.00     0.005 C 
ENDBRANCH   9  10
ENDBRANCH   8   9
ENDBRANCH   7   8
ENDBRANCH   6   7
ENDBRANCH   4   5
ENDBRANCH   3   4
BRANCH   3  12
HETATM   12  O   UNL     1     -21.846  -2.814 -11.412  1.00  0.00    -0.234 OA
BRANCH  12  13
HETATM   13  O   UNL     1     -20.392  -2.765 -11.524  1.00  0.00    -0.250 OA
HETATM   14  H   UNL     1     -20.266  -3.725 -11.635  1.00  0.00     0.253 HD
ENDBRANCH  12  13
ENDBRANCH   3  12
ENDBRANCH   1   3
BRANCH   2  15
HETATM   15  C   UNL     1     -23.617  -5.145 -14.446  1.00  0.00    -0.004 C 
HETATM   16  C   UNL     1     -23.638  -6.455 -14.748  1.00  0.00    -0.023 C 
BRANCH  16  17
HETATM   17  C   UNL     1     -24.503  -7.068 -15.815  1.00  0.00     0.054 C 
BRANCH  17  18
HETATM   18  C   UNL     1     -25.873  -6.445 -15.826  1.00  0.00    -0.027 C 
HETATM   19  C   UNL     1     -27.013  -7.140 -15.684  1.00  0.00    -0.030 C 
BRANCH  19  20
HETATM   20  C   UNL     1     -28.383  -6.519 -15.659  1.00  0.00     0.027 C 
BRANCH  20  21
HETATM   21  C   UNL     1     -29.402  -7.345 -16.448  1.00  0.00     0.014 C 
BRANCH  21  22
HETATM   22  C   UNL     1     -29.974  -6.592 -17.653  1.00  0.00     0.110 C 
BRANCH  22  23
HETATM   23  C   UNL     1     -28.889  -6.028 -18.538  1.00  0.00     0.139 C 
HETATM   24  O   UNL     1     -28.716  -4.846 -18.785  1.00  0.00    -0.650 OA
BRANCH  23  25
HETATM   25  O   UNL     1     -28.093  -6.998 -19.049  1.00  0.00    -0.776 OA
HETATM   26  H   UNL     1     -27.776  -6.808 -19.952  1.00  0.00     0.167 HD
ENDBRANCH  23  25
ENDBRANCH  22  23
ENDBRANCH  21  22
ENDBRANCH  20  21
ENDBRANCH  19  20
ENDBRANCH  17  18
ENDBRANCH  16  17
ENDBRANCH   2  15
TORSDOF 17
BEGIN_RES ARG D 557
REMARK  4 active torsions:
REMARK  status: ('A' for Active; 'I' for Inactive)
REMARK    1  A    between atoms: CA   and  CB  
REMARK    2  A    between atoms: CB   and  CG  
REMARK    3  A    between atoms: CG   and  CD  
REMARK    4  A    between atoms: CD   and  NE  
REMARK       I    between atoms: NE   and  CZ  
REMARK       I    between atoms: CZ   and  NH1 
REMARK       I    between atoms: CZ   and  NH2 
ROOT
ATOM      1  CA  ARG D 557     -26.217   2.705 -17.014  1.00 35.49     0.159 C 
ENDROOT
BRANCH   1   2
ATOM      2  CB  ARG D 557     -26.789   1.319 -17.183  1.00 35.49     0.034 C 
BRANCH   2   3
ATOM      3  CG  ARG D 557     -28.234   1.226 -17.426  1.00 35.49     0.027 C 
BRANCH   3   4
ATOM      4  CD  ARG D 557     -28.907   0.306 -16.481  1.00 35.49     0.116 C 
BRANCH   4   5
ATOM      5  NE  ARG D 557     -28.144  -0.894 -16.256  1.00 35.49    -0.212 N 
ATOM      6  CZ  ARG D 557     -28.420  -2.082 -16.745  1.00 35.49     0.666 C 
ATOM      7  NH1 ARG D 557     -29.472  -2.308 -17.510  1.00 35.49    -0.235 N 
ATOM      8  NH2 ARG D 557     -27.605  -3.054 -16.454  1.00 35.49    -0.235 N 
ATOM      9  HH  ARG D 557     -30.020  -1.682 -17.716  1.00 35.49     0.174 HD
ATOM     10  HH  ARG D 557     -29.599  -3.103 -17.802  1.00 35.49     0.174 HD
ATOM     11  HH  ARG D 557     -26.930  -2.878 -15.963  1.00 35.49     0.174 HD
ATOM     12  HH  ARG D 557     -27.748  -3.835 -16.754  1.00 35.49     0.174 HD
ATOM     13  HE  ARG D 557     -27.489  -0.855 -15.714  1.00 35.49     0.178 HD
ENDBRANCH   4   5
ENDBRANCH   3   4
ENDBRANCH   2   3
ENDBRANCH   1   2
END_RES ARG D 557
BEGIN_RES GLU D 570
REMARK  3 active torsions:
REMARK  status: ('A' for Active; 'I' for Inactive)
REMARK    5  A    between atoms: CA   and  CB  
REMARK    6  A    between atoms: CB   and  CG  
REMARK    7  A    between atoms: CG   and  CD  
ROOT
ATOM     14  CA  GLU D 570     -18.033  -6.348 -13.375  1.00 32.92     0.160 C 
ENDROOT
BRANCH  14  15
ATOM     15  CB  GLU D 570     -19.500  -6.345 -13.794  1.00 32.92     0.043 C 
BRANCH  15  16
ATOM     16  CG  GLU D 570     -20.083  -7.632 -14.255  1.00 32.92     0.100 C 
BRANCH  16  17
ATOM     17  CD  GLU D 570     -20.500  -7.604 -15.707  1.00 32.92     0.185 C 
ATOM     18  OE1 GLU D 570     -20.528  -6.512 -16.307  1.00 32.92    -0.647 OA
ATOM     19  OE2 GLU D 570     -20.818  -8.682 -16.245  1.00 32.92    -0.647 OA
ENDBRANCH  16  17
ENDBRANCH  15  16
ENDBRANCH  14  15
END_RES GLU D 570
ENDMDL
MODEL 8
REMARK VINA RESULT:      -7.0      2.863      3.442
REMARK  17 active torsions:
REMARK  status: ('A' for Active; 'I' for Inactive)
REMARK    1  A    between atoms: C_2  and  C_3 
REMARK    2  A    between atoms: C_3  and  C_4 
REMARK    3  A    between atoms: C_4  and  C_5 
REMARK    4  A    between atoms: C_5  and  C_6 
REMARK    5  A    between atoms: C_7  and  C_8 
REMARK    6  A    between atoms: C_8  and  C_9 
REMARK    7  A    between atoms: C_9  and  C_10 
REMARK    8  A    between atoms: C_9  and  O_23 
REMARK    9  A    between atoms: C_11  and  C_12 
REMARK   10  A    between atoms: C_13  and  C_14 
REMARK   11  A    between atoms: C_14  and  C_15 
REMARK   12  A    between atoms: C_16  and  C_17 
REMARK   13  A    between atoms: C_17  and  C_18 
REMARK   14  A    between atoms: C_18  and  C_19 
REMARK   15  A    between atoms: C_19  and  C_20 
REMARK   16  A    between atoms: C_20  and  O_22 
REMARK   17  A    between atoms: O_23  and  O_24 
ROOT
HETATM    1  C   UNL     1     -20.491  -5.816  -6.382  1.00  0.00     0.008 C 
HETATM    2  C   UNL     1     -20.236  -4.523  -6.645  1.00  0.00    -0.002 C 
ENDROOT
BRANCH   1   3
HETATM    3  C   UNL     1     -20.703  -6.363  -4.989  1.00  0.00     0.186 C 
BRANCH   3   4
HETATM    4  C   UNL     1     -20.956  -7.888  -4.943  1.00  0.00     0.066 C 
BRANCH   4   5
HETATM    5  C   UNL     1     -19.783  -8.684  -4.449  1.00  0.00    -0.028 C 
HETATM    6  C   UNL     1     -19.541  -8.912  -3.149  1.00  0.00    -0.031 C 
BRANCH   6   7
HETATM    7  C   UNL     1     -18.450  -9.818  -2.664  1.00  0.00     0.027 C 
BRANCH   7   8
HETATM    8  C   UNL     1     -17.153  -9.605  -3.453  1.00  0.00     0.004 C 
BRANCH   8   9
HETATM    9  C   UNL     1     -15.895  -9.807  -2.600  1.00  0.00    -0.000 C 
BRANCH   9  10
HETATM   10  C   UNL     1     -15.633 -11.286  -2.335  1.00  0.00    -0.005 C 
HETATM   11  C   UNL     1     -15.870 -11.636  -0.876  1.00  0.00     0.005 C 
ENDBRANCH   9  10
ENDBRANCH   8   9
ENDBRANCH   7   8
ENDBRANCH   6   7
ENDBRANCH   4   5
ENDBRANCH   3   4
BRANCH   3  12
HETATM   12  O   UNL     1     -21.862  -5.696  -4.463  1.00  0.00    -0.234 OA
BRANCH  12  13
HETATM   13  O   UNL     1     -23.007  -6.226  -5.195  1.00  0.00    -0.250 OA
HETATM   14  H   UNL     1     -22.755  -7.163  -5.115  1.00  0.00     0.253 HD
ENDBRANCH  12  13
ENDBRANCH   3  12
ENDBRANCH   1   3
BRANCH   2  15
HETATM   15  C   UNL     1     -20.031  -4.003  -7.978  1.00  0.00    -0.004 C 
HETATM   16  C   UNL     1     -20.563  -4.565  -9.078  1.00  0.00    -0.023 C 
BRANCH  16  17
HETATM   17  C   UNL     1     -20.382  -4.036 -10.475  1.00  0.00     0.054 C 
BRANCH  17  18
HETATM   18  C   UNL     1     -21.626  -4.237 -11.297  1.00  0.00    -0.027 C 
HETATM   19  C   UNL     1     -22.121  -3.322 -12.144  1.00  0.00    -0.030 C 
BRANCH  19  20
HETATM   20  C   UNL     1     -23.344  -3.530 -12.995  1.00  0.00     0.027 C 
BRANCH  20  21
HETATM   21  C   UNL     1     -23.060  -4.434 -14.197  1.00  0.00     0.014 C 
BRANCH  21  22
HETATM   22  C   UNL     1     -23.592  -5.857 -14.010  1.00  0.00     0.110 C 
BRANCH  22  23
HETATM   23  C   UNL     1     -24.633  -6.215 -15.043  1.00  0.00     0.139 C 
HETATM   24  O   UNL     1     -24.906  -7.345 -15.417  1.00  0.00    -0.650 OA
BRANCH  23  25
HETATM   25  O   UNL     1     -25.263  -5.120 -15.532  1.00  0.00    -0.776 OA
HETATM   26  H   UNL     1     -26.236  -5.180 -15.495  1.00  0.00     0.167 HD
ENDBRANCH  23  25
ENDBRANCH  22  23
ENDBRANCH  21  22
ENDBRANCH  20  21
ENDBRANCH  19  20
ENDBRANCH  17  18
ENDBRANCH  16  17
ENDBRANCH   2  15
TORSDOF 17
BEGIN_RES ARG D 557
REMARK  4 active torsions:
REMARK  status: ('A' for Active; 'I' for Inactive)
REMARK    1  A    between atoms: CA   and  CB  
REMARK    2  A    between atoms: CB   and  CG  
REMARK    3  A    between atoms: CG   and  CD  
REMARK    4  A    between atoms: CD   and  NE  
REMARK       I    between atoms: NE   and  CZ  
REMARK       I    between atoms: CZ   and  NH1 
REMARK       I    between atoms: CZ   and  NH2 
ROOT
ATOM      1  CA  ARG D 557     -26.217   2.705 -17.014  1.00 35.49     0.159 C 
ENDROOT
BRANCH   1   2
ATOM      2  CB  ARG D 557     -26.789   1.319 -17.183  1.00 35.49     0.034 C 
BRANCH   2   3
ATOM      3  CG  ARG D 557     -28.233   1.226 -17.432  1.00 35.49     0.027 C 
BRANCH   3   4
ATOM      4  CD  ARG D 557     -28.908   0.295 -16.499  1.00 35.49     0.116 C 
BRANCH   4   5
ATOM      5  NE  ARG D 557     -28.106  -0.866 -16.217  1.00 35.49    -0.212 N 
ATOM      6  CZ  ARG D 557     -28.317  -2.077 -16.682  1.00 35.49     0.666 C 
ATOM      7  NH1 ARG D 557     -29.333  -2.365 -17.474  1.00 35.49    -0.235 N 
ATOM      8  NH2 ARG D 557     -27.474  -3.007 -16.338  1.00 35.49    -0.235 N 
ATOM      9  HH  ARG D 557     -29.898  -1.768 -17.715  1.00 35.49     0.174 HD
ATOM     10  HH  ARG D 557     -29.419  -3.172 -17.749  1.00 35.49     0.174 HD
ATOM     11  HH  ARG D 557     -26.823  -2.791 -15.832  1.00 35.49     0.174 HD
ATOM     12  HH  ARG D 557     -27.575  -3.800 -16.622  1.00 35.49     0.174 HD
ATOM     13  HE  ARG D 557     -27.471  -0.787 -15.656  1.00 35.49     0.178 HD
ENDBRANCH   4   5
ENDBRANCH   3   4
ENDBRANCH   2   3
ENDBRANCH   1   2
END_RES ARG D 557
BEGIN_RES GLU D 570
REMARK  3 active torsions:
REMARK  status: ('A' for Active; 'I' for Inactive)
REMARK    5  A    between atoms: CA   and  CB  
REMARK    6  A    between atoms: CB   and  CG  
REMARK    7  A    between atoms: CG   and  CD  
ROOT
ATOM     14  CA  GLU D 570     -18.033  -6.348 -13.375  1.00 32.92     0.160 C 
ENDROOT
BRANCH  14  15
ATOM     15  CB  GLU D 570     -19.500  -6.345 -13.794  1.00 32.92     0.043 C 
BRANCH  15  16
ATOM     16  CG  GLU D 570     -19.803  -6.069 -15.222  1.00 32.92     0.100 C 
BRANCH  16  17
ATOM     17  CD  GLU D 570     -20.693  -7.118 -15.849  1.00 32.92     0.185 C 
ATOM     18  OE1 GLU D 570     -21.405  -6.805 -16.822  1.00 32.92    -0.647 OA
ATOM     19  OE2 GLU D 570     -20.690  -8.261 -15.350  1.00 32.92    -0.647 OA
ENDBRANCH  16  17
ENDBRANCH  15  16
ENDBRANCH  14  15
END_RES GLU D 570
ENDMDL
MODEL 9
REMARK VINA RESULT:      -6.9      3.743      7.104
REMARK  17 active torsions:
REMARK  status: ('A' for Active; 'I' for Inactive)
REMARK    1  A    between atoms: C_2  and  C_3 
REMARK    2  A    between atoms: C_3  and  C_4 
REMARK    3  A    between atoms: C_4  and  C_5 
REMARK    4  A    between atoms: C_5  and  C_6 
REMARK    5  A    between atoms: C_7  and  C_8 
REMARK    6  A    between atoms: C_8  and  C_9 
REMARK    7  A    between atoms: C_9  and  C_10 
REMARK    8  A    between atoms: C_9  and  O_23 
REMARK    9  A    between atoms: C_11  and  C_12 
REMARK   10  A    between atoms: C_13  and  C_14 
REMARK   11  A    between atoms: C_14  and  C_15 
REMARK   12  A    between atoms: C_16  and  C_17 
REMARK   13  A    between atoms: C_17  and  C_18 
REMARK   14  A    between atoms: C_18  and  C_19 
REMARK   15  A    between atoms: C_19  and  C_20 
REMARK   16  A    between atoms: C_20  and  O_22 
REMARK   17  A    between atoms: O_23  and  O_24 
ROOT
HETATM    1  C   UNL     1     -23.411  -5.362 -12.689  1.00  0.00     0.008 C 
HETATM    2  C   UNL     1     -23.517  -5.244 -14.025  1.00  0.00    -0.002 C 
ENDROOT
BRANCH   1   3
HETATM    3  C   UNL     1     -22.721  -4.346 -11.809  1.00  0.00     0.186 C 
BRANCH   3   4
HETATM    4  C   UNL     1     -23.340  -4.212 -10.398  1.00  0.00     0.066 C 
BRANCH   4   5
HETATM    5  C   UNL     1     -22.334  -4.265  -9.285  1.00  0.00    -0.028 C 
HETATM    6  C   UNL     1     -21.008  -4.255  -9.488  1.00  0.00    -0.031 C 
BRANCH   6   7
HETATM    7  C   UNL     1     -20.008  -4.170  -8.374  1.00  0.00     0.027 C 
BRANCH   7   8
HETATM    8  C   UNL     1     -20.698  -4.053  -7.011  1.00  0.00     0.004 C 
BRANCH   8   9
HETATM    9  C   UNL     1     -19.904  -4.718  -5.880  1.00  0.00    -0.000 C 
BRANCH   9  10
HETATM   10  C   UNL     1     -20.761  -5.716  -5.108  1.00  0.00    -0.005 C 
HETATM   11  C   UNL     1     -21.282  -6.815  -6.018  1.00  0.00     0.005 C 
ENDBRANCH   9  10
ENDBRANCH   8   9
ENDBRANCH   7   8
ENDBRANCH   6   7
ENDBRANCH   4   5
ENDBRANCH   3   4
BRANCH   3  12
HETATM   12  O   UNL     1     -22.843  -3.080 -12.479  1.00  0.00    -0.234 OA
BRANCH  12  13
HETATM   13  O   UNL     1     -24.064  -2.464 -11.971  1.00  0.00    -0.250 OA
HETATM   14  H   UNL     1     -23.739  -2.325 -11.063  1.00  0.00     0.253 HD
ENDBRANCH  12  13
ENDBRANCH   3  12
ENDBRANCH   1   3
BRANCH   2  15
HETATM   15  C   UNL     1     -24.175  -6.219 -14.864  1.00  0.00    -0.004 C 
HETATM   16  C   UNL     1     -25.413  -6.049 -15.361  1.00  0.00    -0.023 C 
BRANCH  16  17
HETATM   17  C   UNL     1     -26.115  -7.038 -16.251  1.00  0.00     0.054 C 
BRANCH  17  18
HETATM   18  C   UNL     1     -27.410  -6.476 -16.770  1.00  0.00    -0.027 C 
HETATM   19  C   UNL     1     -27.615  -6.122 -18.049  1.00  0.00    -0.030 C 
BRANCH  19  20
HETATM   20  C   UNL     1     -28.918  -5.592 -18.581  1.00  0.00     0.027 C 
BRANCH  20  21
HETATM   21  C   UNL     1     -30.108  -6.023 -17.720  1.00  0.00     0.014 C 
BRANCH  21  22
HETATM   22  C   UNL     1     -30.462  -4.998 -16.639  1.00  0.00     0.110 C 
BRANCH  22  23
HETATM   23  C   UNL     1     -31.354  -3.900 -17.166  1.00  0.00     0.139 C 
HETATM   24  O   UNL     1     -32.574  -3.919 -17.178  1.00  0.00    -0.650 OA
BRANCH  23  25
HETATM   25  O   UNL     1     -30.642  -2.851 -17.641  1.00  0.00    -0.776 OA
HETATM   26  H   UNL     1     -31.019  -1.983 -17.404  1.00  0.00     0.167 HD
ENDBRANCH  23  25
ENDBRANCH  22  23
ENDBRANCH  21  22
ENDBRANCH  20  21
ENDBRANCH  19  20
ENDBRANCH  17  18
ENDBRANCH  16  17
ENDBRANCH   2  15
TORSDOF 17
BEGIN_RES ARG D 557
REMARK  4 active torsions:
REMARK  status: ('A' for Active; 'I' for Inactive)
REMARK    1  A    between atoms: CA   and  CB  
REMARK    2  A    between atoms: CB   and  CG  
REMARK    3  A    between atoms: CG   and  CD  
REMARK    4  A    between atoms: CD   and  NE  
REMARK       I    between atoms: NE   and  CZ  
REMARK       I    between atoms: CZ   and  NH1 
REMARK       I    between atoms: CZ   and  NH2 
ROOT
ATOM      1  CA  ARG D 557     -26.217   2.705 -17.014  1.00 35.49     0.159 C 
ENDROOT
BRANCH   1   2
ATOM      2  CB  ARG D 557     -26.789   1.319 -17.183  1.00 35.49     0.034 C 
BRANCH   2   3
ATOM      3  CG  ARG D 557     -28.247   1.219 -17.324  1.00 35.49     0.027 C 
BRANCH   3   4
ATOM      4  CD  ARG D 557     -28.846   0.290 -16.338  1.00 35.49     0.116 C 
BRANCH   4   5
ATOM      5  NE  ARG D 557     -28.587  -1.087 -16.663  1.00 35.49    -0.212 N 
ATOM      6  CZ  ARG D 557     -27.631  -1.830 -16.151  1.00 35.49     0.666 C 
ATOM      7  NH1 ARG D 557     -26.771  -1.366 -15.263  1.00 35.49    -0.235 N 
ATOM      8  NH2 ARG D 557     -27.556  -3.068 -16.546  1.00 35.49    -0.235 N 
ATOM      9  HH  ARG D 557     -26.803  -0.556 -14.987  1.00 35.49     0.174 HD
ATOM     10  HH  ARG D 557     -26.170  -1.898 -14.962  1.00 35.49     0.174 HD
ATOM     11  HH  ARG D 557     -28.130  -3.342 -17.114  1.00 35.49     0.174 HD
ATOM     12  HH  ARG D 557     -26.956  -3.579 -16.235  1.00 35.49     0.174 HD
ATOM     13  HE  ARG D 557     -29.049  -1.446 -17.280  1.00 35.49     0.178 HD
ENDBRANCH   4   5
ENDBRANCH   3   4
ENDBRANCH   2   3
ENDBRANCH   1   2
END_RES ARG D 557
BEGIN_RES GLU D 570
REMARK  3 active torsions:
REMARK  status: ('A' for Active; 'I' for Inactive)
REMARK    5  A    between atoms: CA   and  CB  
REMARK    6  A    between atoms: CB   and  CG  
REMARK    7  A    between atoms: CG   and  CD  
ROOT
ATOM     14  CA  GLU D 570     -18.033  -6.348 -13.375  1.00 32.92     0.160 C 
ENDROOT
BRANCH  14  15
ATOM     15  CB  GLU D 570     -19.500  -6.345 -13.794  1.00 32.92     0.043 C 
BRANCH  15  16
ATOM     16  CG  GLU D 570     -19.846  -5.666 -15.070  1.00 32.92     0.100 C 
BRANCH  16  17
ATOM     17  CD  GLU D 570     -20.604  -6.558 -16.025  1.00 32.92     0.185 C 
ATOM     18  OE1 GLU D 570     -20.694  -7.775 -15.774  1.00 32.92    -0.647 OA
ATOM     19  OE2 GLU D 570     -21.099  -6.037 -17.044  1.00 32.92    -0.647 OA
ENDBRANCH  16  17
ENDBRANCH  15  16
ENDBRANCH  14  15
END_RES GLU D 570
ENDMDL
