MODEL 1
REMARK VINA RESULT:      -8.3      0.000      0.000
REMARK  17 active torsions:
REMARK  status: ('A' for Active; 'I' for Inactive)
REMARK    1  A    between atoms: C_2  and  C_3 
REMARK    2  A    between atoms: C_3  and  C_4 
REMARK    3  A    between atoms: C_4  and  C_5 
REMARK    4  A    between atoms: C_5  and  C_6 
REMARK    5  A    between atoms: C_7  and  C_8 
REMARK    6  A    between atoms: C_8  and  C_9 
REMARK    7  A    between atoms: C_10  and  C_11 
REMARK    8  A    between atoms: C_11  and  C_12 
REMARK    9  A    between atoms: C_13  and  C_14 
REMARK   10  A    between atoms: C_14  and  C_15 
REMARK   11  A    between atoms: C_16  and  C_17 
REMARK   12  A    between atoms: C_17  and  C_18 
REMARK   13  A    between atoms: C_18  and  C_19 
REMARK   14  A    between atoms: C_19  and  C_20 
REMARK       I    between atoms: C_20  and  N_22 
REMARK   15  A    between atoms: N_22  and  C_23 
REMARK   16  A    between atoms: C_23  and  C_24 
REMARK   17  A    between atoms: C_24  and  O_25 
ROOT
HETATM    1  C   UNL     1     -20.548  -4.513  -6.722  1.00  0.00     0.053 C 
ENDROOT
BRANCH   1   2
HETATM    2  C   UNL     1     -20.984  -5.664  -5.868  1.00  0.00    -0.027 C 
HETATM    3  C   UNL     1     -20.225  -6.744  -5.620  1.00  0.00    -0.027 C 
BRANCH   3   4
HETATM    4  C   UNL     1     -20.673  -7.898  -4.777  1.00  0.00     0.053 C 
BRANCH   4   5
HETATM    5  C   UNL     1     -21.667  -7.461  -3.741  1.00  0.00    -0.027 C 
HETATM    6  C   UNL     1     -21.332  -6.872  -2.583  1.00  0.00    -0.027 C 
BRANCH   6   7
HETATM    7  C   UNL     1     -22.325  -6.441  -1.546  1.00  0.00     0.053 C 
BRANCH   7   8
HETATM    8  C   UNL     1     -22.239  -7.310  -0.328  1.00  0.00    -0.027 C 
HETATM    9  C   UNL     1     -21.202  -8.118  -0.054  1.00  0.00    -0.030 C 
BRANCH   9  10
HETATM   10  C   UNL     1     -21.116  -8.971   1.177  1.00  0.00     0.027 C 
BRANCH  10  11
HETATM   11  C   UNL     1     -20.792 -10.423   0.815  1.00  0.00     0.004 C 
BRANCH  11  12
HETATM   12  C   UNL     1     -21.624 -10.893  -0.379  1.00  0.00    -0.000 C 
BRANCH  12  13
HETATM   13  C   UNL     1     -22.829 -11.719   0.071  1.00  0.00    -0.005 C 
HETATM   14  C   UNL     1     -24.133 -10.986  -0.202  1.00  0.00     0.005 C 
ENDBRANCH  12  13
ENDBRANCH  11  12
ENDBRANCH  10  11
ENDBRANCH   9  10
ENDBRANCH   7   8
ENDBRANCH   6   7
ENDBRANCH   4   5
ENDBRANCH   3   4
ENDBRANCH   1   2
BRANCH   1  15
HETATM   15  C   UNL     1     -20.354  -4.940  -8.145  1.00  0.00    -0.027 C 
HETATM   16  C   UNL     1     -20.487  -4.119  -9.197  1.00  0.00    -0.030 C 
BRANCH  16  17
HETATM   17  C   UNL     1     -20.240  -4.536 -10.618  1.00  0.00     0.027 C 
BRANCH  17  18
HETATM   18  C   UNL     1     -21.403  -4.167 -11.539  1.00  0.00     0.013 C 
BRANCH  18  19
HETATM   19  C   UNL     1     -22.776  -4.310 -10.878  1.00  0.00     0.103 C 
BRANCH  19  20
HETATM   20  C   UNL     1     -23.864  -3.682 -11.725  1.00  0.00     0.217 C 
HETATM   21  O   UNL     1     -24.843  -3.110 -11.260  1.00  0.00    -0.274 OA
HETATM   22  N   UNL     1     -23.642  -3.803 -13.078  1.00  0.00    -0.359 N 
HETATM   23  H   UNL     1     -22.800  -4.255 -13.412  1.00  0.00     0.162 HD
BRANCH  22  24
HETATM   24  C   UNL     1     -24.606  -3.300 -14.046  1.00  0.00     0.148 C 
BRANCH  24  25
HETATM   25  C   UNL     1     -24.176  -1.964 -14.650  1.00  0.00     0.183 C 
BRANCH  25  26
HETATM   26  O   UNL     1     -22.969  -2.132 -15.395  1.00  0.00    -0.399 OA
HETATM   27  H   UNL     1     -22.981  -1.444 -16.083  1.00  0.00     0.209 HD
ENDBRANCH  25  26
ENDBRANCH  24  25
ENDBRANCH  22  24
ENDBRANCH  19  20
ENDBRANCH  18  19
ENDBRANCH  17  18
ENDBRANCH  16  17
ENDBRANCH   1  15
TORSDOF 17
BEGIN_RES ARG D 557
REMARK  4 active torsions:
REMARK  status: ('A' for Active; 'I' for Inactive)
REMARK    1  A    between atoms: CA   and  CB  
REMARK    2  A    between atoms: CB   and  CG  
REMARK    3  A    between atoms: CG   and  CD  
REMARK    4  A    between atoms: CD   and  NE  
REMARK       I    between atoms: NE   and  CZ  
REMARK       I    between atoms: CZ   and  NH1 
REMARK       I    between atoms: CZ   and  NH2 
ROOT
ATOM      1  CA  ARG D 557     -26.217   2.705 -17.014  1.00 35.49     0.159 C 
ENDROOT
BRANCH   1   2
ATOM      2  CB  ARG D 557     -26.789   1.319 -17.183  1.00 35.49     0.034 C 
BRANCH   2   3
ATOM      3  CG  ARG D 557     -28.239   1.224 -17.392  1.00 35.49     0.027 C 
BRANCH   3   4
ATOM      4  CD  ARG D 557     -28.886   0.291 -16.440  1.00 35.49     0.116 C 
BRANCH   4   5
ATOM      5  NE  ARG D 557     -29.279  -0.941 -17.071  1.00 35.49    -0.212 N 
ATOM      6  CZ  ARG D 557     -28.633  -2.083 -16.996  1.00 35.49     0.666 C 
ATOM      7  NH1 ARG D 557     -27.507  -2.217 -16.319  1.00 35.49    -0.235 N 
ATOM      8  NH2 ARG D 557     -29.147  -3.106 -17.615  1.00 35.49    -0.235 N 
ATOM      9  HH  ARG D 557     -27.152  -1.558 -15.903  1.00 35.49     0.174 HD
ATOM     10  HH  ARG D 557     -27.131  -2.987 -16.303  1.00 35.49     0.174 HD
ATOM     11  HH  ARG D 557     -29.879  -2.991 -18.038  1.00 35.49     0.174 HD
ATOM     12  HH  ARG D 557     -28.760  -3.860 -17.586  1.00 35.49     0.174 HD
ATOM     13  HE  ARG D 557     -29.955  -0.928 -17.587  1.00 35.49     0.178 HD
ENDBRANCH   4   5
ENDBRANCH   3   4
ENDBRANCH   2   3
ENDBRANCH   1   2
END_RES ARG D 557
BEGIN_RES GLU D 570
REMARK  3 active torsions:
REMARK  status: ('A' for Active; 'I' for Inactive)
REMARK    5  A    between atoms: CA   and  CB  
REMARK    6  A    between atoms: CB   and  CG  
REMARK    7  A    between atoms: CG   and  CD  
ROOT
ATOM     14  CA  GLU D 570     -18.033  -6.348 -13.375  1.00 32.92     0.160 C 
ENDROOT
BRANCH  14  15
ATOM     15  CB  GLU D 570     -19.500  -6.345 -13.794  1.00 32.92     0.043 C 
BRANCH  15  16
ATOM     16  CG  GLU D 570     -19.822  -5.842 -15.154  1.00 32.92     0.100 C 
BRANCH  16  17
ATOM     17  CD  GLU D 570     -21.269  -5.433 -15.304  1.00 32.92     0.185 C 
ATOM     18  OE1 GLU D 570     -21.580  -4.621 -16.196  1.00 32.92    -0.647 OA
ATOM     19  OE2 GLU D 570     -22.099  -5.919 -14.510  1.00 32.92    -0.647 OA
ENDBRANCH  16  17
ENDBRANCH  15  16
ENDBRANCH  14  15
END_RES GLU D 570
ENDMDL
MODEL 2
REMARK VINA RESULT:      -8.0      2.080      3.737
REMARK  17 active torsions:
REMARK  status: ('A' for Active; 'I' for Inactive)
REMARK    1  A    between atoms: C_2  and  C_3 
REMARK    2  A    between atoms: C_3  and  C_4 
REMARK    3  A    between atoms: C_4  and  C_5 
REMARK    4  A    between atoms: C_5  and  C_6 
REMARK    5  A    between atoms: C_7  and  C_8 
REMARK    6  A    between atoms: C_8  and  C_9 
REMARK    7  A    between atoms: C_10  and  C_11 
REMARK    8  A    between atoms: C_11  and  C_12 
REMARK    9  A    between atoms: C_13  and  C_14 
REMARK   10  A    between atoms: C_14  and  C_15 
REMARK   11  A    between atoms: C_16  and  C_17 
REMARK   12  A    between atoms: C_17  and  C_18 
REMARK   13  A    between atoms: C_18  and  C_19 
REMARK   14  A    between atoms: C_19  and  C_20 
REMARK       I    between atoms: C_20  and  N_22 
REMARK   15  A    between atoms: N_22  and  C_23 
REMARK   16  A    between atoms: C_23  and  C_24 
REMARK   17  A    between atoms: C_24  and  O_25 
ROOT
HETATM    1  C   UNL     1     -21.311  -7.650  -5.396  1.00  0.00     0.053 C 
ENDROOT
BRANCH   1   2
HETATM    2  C   UNL     1     -22.033  -7.002  -4.254  1.00  0.00    -0.027 C 
HETATM    3  C   UNL     1     -21.445  -6.650  -3.099  1.00  0.00    -0.027 C 
BRANCH   3   4
HETATM    4  C   UNL     1     -22.175  -6.014  -1.955  1.00  0.00     0.053 C 
BRANCH   4   5
HETATM    5  C   UNL     1     -22.352  -6.979  -0.820  1.00  0.00    -0.027 C 
HETATM    6  C   UNL     1     -21.440  -7.901  -0.472  1.00  0.00    -0.027 C 
BRANCH   6   7
HETATM    7  C   UNL     1     -21.618  -8.868   0.659  1.00  0.00     0.053 C 
BRANCH   7   8
HETATM    8  C   UNL     1     -22.160 -10.176   0.164  1.00  0.00    -0.027 C 
HETATM    9  C   UNL     1     -23.455 -10.395  -0.112  1.00  0.00    -0.030 C 
BRANCH   9  10
HETATM   10  C   UNL     1     -23.987 -11.701  -0.623  1.00  0.00     0.027 C 
BRANCH  10  11
HETATM   11  C   UNL     1     -23.135 -12.873  -0.127  1.00  0.00     0.004 C 
BRANCH  11  12
HETATM   12  C   UNL     1     -23.514 -13.265   1.301  1.00  0.00    -0.000 C 
BRANCH  12  13
HETATM   13  C   UNL     1     -22.342 -13.923   2.029  1.00  0.00    -0.005 C 
HETATM   14  C   UNL     1     -22.824 -14.778   3.190  1.00  0.00     0.005 C 
ENDBRANCH  12  13
ENDBRANCH  11  12
ENDBRANCH  10  11
ENDBRANCH   9  10
ENDBRANCH   7   8
ENDBRANCH   6   7
ENDBRANCH   4   5
ENDBRANCH   3   4
ENDBRANCH   1   2
BRANCH   1  15
HETATM   15  C   UNL     1     -20.218  -6.766  -5.915  1.00  0.00    -0.027 C 
HETATM   16  C   UNL     1     -20.435  -5.607  -6.556  1.00  0.00    -0.030 C 
BRANCH  16  17
HETATM   17  C   UNL     1     -19.338  -4.698  -7.028  1.00  0.00     0.027 C 
BRANCH  17  18
HETATM   18  C   UNL     1     -19.766  -3.850  -8.226  1.00  0.00     0.013 C 
BRANCH  18  19
HETATM   19  C   UNL     1     -20.238  -4.679  -9.423  1.00  0.00     0.103 C 
BRANCH  19  20
HETATM   20  C   UNL     1     -21.434  -4.040 -10.099  1.00  0.00     0.217 C 
HETATM   21  O   UNL     1     -21.370  -3.017 -10.770  1.00  0.00    -0.274 OA
HETATM   22  N   UNL     1     -22.608  -4.729  -9.899  1.00  0.00    -0.359 N 
HETATM   23  H   UNL     1     -22.603  -5.590  -9.364  1.00  0.00     0.162 HD
BRANCH  22  24
HETATM   24  C   UNL     1     -23.870  -4.238 -10.434  1.00  0.00     0.148 C 
BRANCH  24  25
HETATM   25  C   UNL     1     -24.627  -3.372  -9.428  1.00  0.00     0.183 C 
BRANCH  25  26
HETATM   26  O   UNL     1     -25.994  -3.250  -9.822  1.00  0.00    -0.399 OA
HETATM   27  H   UNL     1     -25.982  -2.882 -10.723  1.00  0.00     0.209 HD
ENDBRANCH  25  26
ENDBRANCH  24  25
ENDBRANCH  22  24
ENDBRANCH  19  20
ENDBRANCH  18  19
ENDBRANCH  17  18
ENDBRANCH  16  17
ENDBRANCH   1  15
TORSDOF 17
BEGIN_RES ARG D 557
REMARK  4 active torsions:
REMARK  status: ('A' for Active; 'I' for Inactive)
REMARK    1  A    between atoms: CA   and  CB  
REMARK    2  A    between atoms: CB   and  CG  
REMARK    3  A    between atoms: CG   and  CD  
REMARK    4  A    between atoms: CD   and  NE  
REMARK       I    between atoms: NE   and  CZ  
REMARK       I    between atoms: CZ   and  NH1 
REMARK       I    between atoms: CZ   and  NH2 
ROOT
ATOM      1  CA  ARG D 557     -26.217   2.705 -17.014  1.00 35.49     0.159 C 
ENDROOT
BRANCH   1   2
ATOM      2  CB  ARG D 557     -26.789   1.319 -17.183  1.00 35.49     0.034 C 
BRANCH   2   3
ATOM      3  CG  ARG D 557     -25.839   0.201 -17.130  1.00 35.49     0.027 C 
BRANCH   3   4
ATOM      4  CD  ARG D 557     -24.751   0.431 -16.153  1.00 35.49     0.116 C 
BRANCH   4   5
ATOM      5  NE  ARG D 557     -24.870  -0.421 -14.999  1.00 35.49    -0.212 N 
ATOM      6  CZ  ARG D 557     -24.043  -1.387 -14.669  1.00 35.49     0.666 C 
ATOM      7  NH1 ARG D 557     -22.987  -1.697 -15.399  1.00 35.49    -0.235 N 
ATOM      8  NH2 ARG D 557     -24.294  -2.045 -13.574  1.00 35.49    -0.235 N 
ATOM      9  HH  ARG D 557     -22.801  -1.276 -16.122  1.00 35.49     0.174 HD
ATOM     10  HH  ARG D 557     -22.481  -2.336 -15.133  1.00 35.49     0.174 HD
ATOM     11  HH  ARG D 557     -24.979  -1.818 -13.120  1.00 35.49     0.174 HD
ATOM     12  HH  ARG D 557     -23.781  -2.673 -13.327  1.00 35.49     0.174 HD
ATOM     13  HE  ARG D 557     -25.562  -0.339 -14.511  1.00 35.49     0.178 HD
ENDBRANCH   4   5
ENDBRANCH   3   4
ENDBRANCH   2   3
ENDBRANCH   1   2
END_RES ARG D 557
BEGIN_RES GLU D 570
REMARK  3 active torsions:
REMARK  status: ('A' for Active; 'I' for Inactive)
REMARK    5  A    between atoms: CA   and  CB  
REMARK    6  A    between atoms: CB   and  CG  
REMARK    7  A    between atoms: CG   and  CD  
ROOT
ATOM     14  CA  GLU D 570     -18.033  -6.348 -13.375  1.00 32.92     0.160 C 
ENDROOT
BRANCH  14  15
ATOM     15  CB  GLU D 570     -19.500  -6.345 -13.794  1.00 32.92     0.043 C 
BRANCH  15  16
ATOM     16  CG  GLU D 570     -20.433  -5.494 -13.012  1.00 32.92     0.100 C 
BRANCH  16  17
ATOM     17  CD  GLU D 570     -21.738  -5.236 -13.730  1.00 32.92     0.185 C 
ATOM     18  OE1 GLU D 570     -22.250  -4.102 -13.666  1.00 32.92    -0.647 OA
ATOM     19  OE2 GLU D 570     -22.262  -6.184 -14.348  1.00 32.92    -0.647 OA
ENDBRANCH  16  17
ENDBRANCH  15  16
ENDBRANCH  14  15
END_RES GLU D 570
ENDMDL
MODEL 3
REMARK VINA RESULT:      -8.0      1.295      2.339
REMARK  17 active torsions:
REMARK  status: ('A' for Active; 'I' for Inactive)
REMARK    1  A    between atoms: C_2  and  C_3 
REMARK    2  A    between atoms: C_3  and  C_4 
REMARK    3  A    between atoms: C_4  and  C_5 
REMARK    4  A    between atoms: C_5  and  C_6 
REMARK    5  A    between atoms: C_7  and  C_8 
REMARK    6  A    between atoms: C_8  and  C_9 
REMARK    7  A    between atoms: C_10  and  C_11 
REMARK    8  A    between atoms: C_11  and  C_12 
REMARK    9  A    between atoms: C_13  and  C_14 
REMARK   10  A    between atoms: C_14  and  C_15 
REMARK   11  A    between atoms: C_16  and  C_17 
REMARK   12  A    between atoms: C_17  and  C_18 
REMARK   13  A    between atoms: C_18  and  C_19 
REMARK   14  A    between atoms: C_19  and  C_20 
REMARK       I    between atoms: C_20  and  N_22 
REMARK   15  A    between atoms: N_22  and  C_23 
REMARK   16  A    between atoms: C_23  and  C_24 
REMARK   17  A    between atoms: C_24  and  O_25 
ROOT
HETATM    1  C   UNL     1     -20.654  -6.252  -5.841  1.00  0.00     0.053 C 
ENDROOT
BRANCH   1   2
HETATM    2  C   UNL     1     -21.592  -6.139  -4.678  1.00  0.00    -0.027 C 
HETATM    3  C   UNL     1     -21.201  -6.173  -3.394  1.00  0.00    -0.027 C 
BRANCH   3   4
HETATM    4  C   UNL     1     -22.146  -6.073  -2.235  1.00  0.00     0.053 C 
BRANCH   4   5
HETATM    5  C   UNL     1     -22.001  -7.249  -1.314  1.00  0.00    -0.027 C 
HETATM    6  C   UNL     1     -22.582  -7.331  -0.107  1.00  0.00    -0.027 C 
BRANCH   6   7
HETATM    7  C   UNL     1     -22.434  -8.502   0.816  1.00  0.00     0.053 C 
BRANCH   7   8
HETATM    8  C   UNL     1     -22.446  -9.792   0.051  1.00  0.00    -0.027 C 
HETATM    9  C   UNL     1     -23.565 -10.408  -0.362  1.00  0.00    -0.030 C 
BRANCH   9  10
HETATM   10  C   UNL     1     -23.569 -11.689  -1.142  1.00  0.00     0.027 C 
BRANCH  10  11
HETATM   11  C   UNL     1     -22.447 -11.701  -2.183  1.00  0.00     0.004 C 
BRANCH  11  12
HETATM   12  C   UNL     1     -22.883 -11.005  -3.473  1.00  0.00    -0.000 C 
BRANCH  12  13
HETATM   13  C   UNL     1     -21.854  -9.967  -3.923  1.00  0.00    -0.005 C 
HETATM   14  C   UNL     1     -20.588 -10.046  -3.085  1.00  0.00     0.005 C 
ENDBRANCH  12  13
ENDBRANCH  11  12
ENDBRANCH  10  11
ENDBRANCH   9  10
ENDBRANCH   7   8
ENDBRANCH   6   7
ENDBRANCH   4   5
ENDBRANCH   3   4
ENDBRANCH   1   2
BRANCH   1  15
HETATM   15  C   UNL     1     -20.843  -5.114  -6.799  1.00  0.00    -0.027 C 
HETATM   16  C   UNL     1     -20.788  -5.243  -8.133  1.00  0.00    -0.030 C 
BRANCH  16  17
HETATM   17  C   UNL     1     -21.031  -4.114  -9.091  1.00  0.00     0.027 C 
BRANCH  17  18
HETATM   18  C   UNL     1     -22.514  -3.942  -9.418  1.00  0.00     0.013 C 
BRANCH  18  19
HETATM   19  C   UNL     1     -22.888  -4.414 -10.825  1.00  0.00     0.103 C 
BRANCH  19  20
HETATM   20  C   UNL     1     -24.053  -3.620 -11.382  1.00  0.00     0.217 C 
HETATM   21  O   UNL     1     -24.983  -3.207 -10.699  1.00  0.00    -0.274 OA
HETATM   22  N   UNL     1     -23.962  -3.392 -12.736  1.00  0.00    -0.359 N 
HETATM   23  H   UNL     1     -23.155  -3.725 -13.250  1.00  0.00     0.162 HD
BRANCH  22  24
HETATM   24  C   UNL     1     -25.014  -2.686 -13.452  1.00  0.00     0.148 C 
BRANCH  24  25
HETATM   25  C   UNL     1     -24.476  -1.910 -14.653  1.00  0.00     0.183 C 
BRANCH  25  26
HETATM   26  O   UNL     1     -24.833  -0.532 -14.543  1.00  0.00    -0.399 OA
HETATM   27  H   UNL     1     -25.007  -0.226 -15.451  1.00  0.00     0.209 HD
ENDBRANCH  25  26
ENDBRANCH  24  25
ENDBRANCH  22  24
ENDBRANCH  19  20
ENDBRANCH  18  19
ENDBRANCH  17  18
ENDBRANCH  16  17
ENDBRANCH   1  15
TORSDOF 17
BEGIN_RES ARG D 557
REMARK  4 active torsions:
REMARK  status: ('A' for Active; 'I' for Inactive)
REMARK    1  A    between atoms: CA   and  CB  
REMARK    2  A    between atoms: CB   and  CG  
REMARK    3  A    between atoms: CG   and  CD  
REMARK    4  A    between atoms: CD   and  NE  
REMARK       I    between atoms: NE   and  CZ  
REMARK       I    between atoms: CZ   and  NH1 
REMARK       I    between atoms: CZ   and  NH2 
ROOT
ATOM      1  CA  ARG D 557     -26.217   2.705 -17.014  1.00 35.49     0.159 C 
ENDROOT
BRANCH   1   2
ATOM      2  CB  ARG D 557     -26.789   1.319 -17.183  1.00 35.49     0.034 C 
BRANCH   2   3
ATOM      3  CG  ARG D 557     -28.232   1.226 -17.433  1.00 35.49     0.027 C 
BRANCH   3   4
ATOM      4  CD  ARG D 557     -28.912   0.313 -16.486  1.00 35.49     0.116 C 
BRANCH   4   5
ATOM      5  NE  ARG D 557     -28.135  -0.870 -16.221  1.00 35.49    -0.212 N 
ATOM      6  CZ  ARG D 557     -28.369  -2.067 -16.710  1.00 35.49     0.666 C 
ATOM      7  NH1 ARG D 557     -29.386  -2.319 -17.512  1.00 35.49    -0.235 N 
ATOM      8  NH2 ARG D 557     -27.547  -3.021 -16.379  1.00 35.49    -0.235 N 
ATOM      9  HH  ARG D 557     -29.938  -1.706 -17.744  1.00 35.49     0.174 HD
ATOM     10  HH  ARG D 557     -29.487  -3.119 -17.802  1.00 35.49     0.174 HD
ATOM     11  HH  ARG D 557     -26.895  -2.827 -15.865  1.00 35.49     0.174 HD
ATOM     12  HH  ARG D 557     -27.663  -3.806 -16.678  1.00 35.49     0.174 HD
ATOM     13  HE  ARG D 557     -27.503  -0.814 -15.656  1.00 35.49     0.178 HD
ENDBRANCH   4   5
ENDBRANCH   3   4
ENDBRANCH   2   3
ENDBRANCH   1   2
END_RES ARG D 557
BEGIN_RES GLU D 570
REMARK  3 active torsions:
REMARK  status: ('A' for Active; 'I' for Inactive)
REMARK    5  A    between atoms: CA   and  CB  
REMARK    6  A    between atoms: CB   and  CG  
REMARK    7  A    between atoms: CG   and  CD  
ROOT
ATOM     14  CA  GLU D 570     -18.033  -6.348 -13.375  1.00 32.92     0.160 C 
ENDROOT
BRANCH  14  15
ATOM     15  CB  GLU D 570     -19.500  -6.345 -13.794  1.00 32.92     0.043 C 
BRANCH  15  16
ATOM     16  CG  GLU D 570     -19.820  -5.868 -15.164  1.00 32.92     0.100 C 
BRANCH  16  17
ATOM     17  CD  GLU D 570     -21.229  -5.339 -15.290  1.00 32.92     0.185 C 
ATOM     18  OE1 GLU D 570     -21.818  -4.935 -14.269  1.00 32.92    -0.647 OA
ATOM     19  OE2 GLU D 570     -21.757  -5.344 -16.420  1.00 32.92    -0.647 OA
ENDBRANCH  16  17
ENDBRANCH  15  16
ENDBRANCH  14  15
END_RES GLU D 570
ENDMDL
MODEL 4
REMARK VINA RESULT:      -7.8      1.192      2.169
REMARK  17 active torsions:
REMARK  status: ('A' for Active; 'I' for Inactive)
REMARK    1  A    between atoms: C_2  and  C_3 
REMARK    2  A    between atoms: C_3  and  C_4 
REMARK    3  A    between atoms: C_4  and  C_5 
REMARK    4  A    between atoms: C_5  and  C_6 
REMARK    5  A    between atoms: C_7  and  C_8 
REMARK    6  A    between atoms: C_8  and  C_9 
REMARK    7  A    between atoms: C_10  and  C_11 
REMARK    8  A    between atoms: C_11  and  C_12 
REMARK    9  A    between atoms: C_13  and  C_14 
REMARK   10  A    between atoms: C_14  and  C_15 
REMARK   11  A    between atoms: C_16  and  C_17 
REMARK   12  A    between atoms: C_17  and  C_18 
REMARK   13  A    between atoms: C_18  and  C_19 
REMARK   14  A    between atoms: C_19  and  C_20 
REMARK       I    between atoms: C_20  and  N_22 
REMARK   15  A    between atoms: N_22  and  C_23 
REMARK   16  A    between atoms: C_23  and  C_24 
REMARK   17  A    between atoms: C_24  and  O_25 
ROOT
HETATM    1  C   UNL     1     -20.824  -4.172  -6.656  1.00  0.00     0.053 C 
ENDROOT
BRANCH   1   2
HETATM    2  C   UNL     1     -20.324  -5.304  -5.811  1.00  0.00    -0.027 C 
HETATM    3  C   UNL     1     -20.562  -6.599  -6.077  1.00  0.00    -0.027 C 
BRANCH   3   4
HETATM    4  C   UNL     1     -20.072  -7.726  -5.220  1.00  0.00     0.053 C 
BRANCH   4   5
HETATM    5  C   UNL     1     -21.151  -8.742  -4.988  1.00  0.00    -0.027 C 
HETATM    6  C   UNL     1     -20.939  -9.949  -4.440  1.00  0.00    -0.027 C 
BRANCH   6   7
HETATM    7  C   UNL     1     -22.016 -10.966  -4.213  1.00  0.00     0.053 C 
BRANCH   7   8
HETATM    8  C   UNL     1     -22.382 -11.043  -2.762  1.00  0.00    -0.027 C 
HETATM    9  C   UNL     1     -22.448  -9.979  -1.946  1.00  0.00    -0.030 C 
BRANCH   9  10
HETATM   10  C   UNL     1     -22.832 -10.063  -0.499  1.00  0.00     0.027 C 
BRANCH  10  11
HETATM   11  C   UNL     1     -21.973  -9.123   0.352  1.00  0.00     0.004 C 
BRANCH  11  12
HETATM   12  C   UNL     1     -21.342  -8.025  -0.505  1.00  0.00    -0.000 C 
BRANCH  12  13
HETATM   13  C   UNL     1     -22.340  -6.907  -0.804  1.00  0.00    -0.005 C 
HETATM   14  C   UNL     1     -22.057  -6.261  -2.151  1.00  0.00     0.005 C 
ENDBRANCH  12  13
ENDBRANCH  11  12
ENDBRANCH  10  11
ENDBRANCH   9  10
ENDBRANCH   7   8
ENDBRANCH   6   7
ENDBRANCH   4   5
ENDBRANCH   3   4
ENDBRANCH   1   2
BRANCH   1  15
HETATM   15  C   UNL     1     -20.224  -4.219  -8.029  1.00  0.00    -0.027 C 
HETATM   16  C   UNL     1     -20.915  -4.532  -9.136  1.00  0.00    -0.030 C 
BRANCH  16  17
HETATM   17  C   UNL     1     -20.325  -4.526 -10.516  1.00  0.00     0.027 C 
BRANCH  17  18
HETATM   18  C   UNL     1     -20.980  -3.482 -11.421  1.00  0.00     0.013 C 
BRANCH  18  19
HETATM   19  C   UNL     1     -22.386  -3.079 -10.969  1.00  0.00     0.103 C 
BRANCH  19  20
HETATM   20  C   UNL     1     -23.323  -2.928 -12.151  1.00  0.00     0.217 C 
HETATM   21  O   UNL     1     -24.543  -2.880 -12.050  1.00  0.00    -0.274 OA
HETATM   22  N   UNL     1     -22.669  -2.836 -13.358  1.00  0.00    -0.359 N 
HETATM   23  H   UNL     1     -21.656  -2.846 -13.385  1.00  0.00     0.162 HD
BRANCH  22  24
HETATM   24  C   UNL     1     -23.408  -2.733 -14.608  1.00  0.00     0.148 C 
BRANCH  24  25
HETATM   25  C   UNL     1     -23.822  -1.296 -14.920  1.00  0.00     0.183 C 
BRANCH  25  26
HETATM   26  O   UNL     1     -25.162  -1.069 -14.485  1.00  0.00    -0.399 OA
HETATM   27  H   UNL     1     -25.278  -0.103 -14.467  1.00  0.00     0.209 HD
ENDBRANCH  25  26
ENDBRANCH  24  25
ENDBRANCH  22  24
ENDBRANCH  19  20
ENDBRANCH  18  19
ENDBRANCH  17  18
ENDBRANCH  16  17
ENDBRANCH   1  15
TORSDOF 17
BEGIN_RES ARG D 557
REMARK  4 active torsions:
REMARK  status: ('A' for Active; 'I' for Inactive)
REMARK    1  A    between atoms: CA   and  CB  
REMARK    2  A    between atoms: CB   and  CG  
REMARK    3  A    between atoms: CG   and  CD  
REMARK    4  A    between atoms: CD   and  NE  
REMARK       I    between atoms: NE   and  CZ  
REMARK       I    between atoms: CZ   and  NH1 
REMARK       I    between atoms: CZ   and  NH2 
ROOT
ATOM      1  CA  ARG D 557     -26.217   2.705 -17.014  1.00 35.49     0.159 C 
ENDROOT
BRANCH   1   2
ATOM      2  CB  ARG D 557     -26.789   1.319 -17.183  1.00 35.49     0.034 C 
BRANCH   2   3
ATOM      3  CG  ARG D 557     -28.234   1.225 -17.421  1.00 35.49     0.027 C 
BRANCH   3   4
ATOM      4  CD  ARG D 557     -28.902   0.294 -16.483  1.00 35.49     0.116 C 
BRANCH   4   5
ATOM      5  NE  ARG D 557     -29.251  -0.952 -17.112  1.00 35.49    -0.212 N 
ATOM      6  CZ  ARG D 557     -28.589  -2.082 -16.998  1.00 35.49     0.666 C 
ATOM      7  NH1 ARG D 557     -27.487  -2.188 -16.279  1.00 35.49    -0.235 N 
ATOM      8  NH2 ARG D 557     -29.063  -3.121 -17.622  1.00 35.49    -0.235 N 
ATOM      9  HH  ARG D 557     -27.158  -1.518 -15.858  1.00 35.49     0.174 HD
ATOM     10  HH  ARG D 557     -27.099  -2.951 -16.239  1.00 35.49     0.174 HD
ATOM     11  HH  ARG D 557     -29.780  -3.024 -18.073  1.00 35.49     0.174 HD
ATOM     12  HH  ARG D 557     -28.665  -3.868 -17.569  1.00 35.49     0.174 HD
ATOM     13  HE  ARG D 557     -29.908  -0.957 -17.652  1.00 35.49     0.178 HD
ENDBRANCH   4   5
ENDBRANCH   3   4
ENDBRANCH   2   3
ENDBRANCH   1   2
END_RES ARG D 557
BEGIN_RES GLU D 570
REMARK  3 active torsions:
REMARK  status: ('A' for Active; 'I' for Inactive)
REMARK    5  A    between atoms: CA   and  CB  
REMARK    6  A    between atoms: CB   and  CG  
REMARK    7  A    between atoms: CG   and  CD  
ROOT
ATOM     14  CA  GLU D 570     -18.033  -6.348 -13.375  1.00 32.92     0.160 C 
ENDROOT
BRANCH  14  15
ATOM     15  CB  GLU D 570     -19.500  -6.345 -13.794  1.00 32.92     0.043 C 
BRANCH  15  16
ATOM     16  CG  GLU D 570     -19.824  -5.828 -15.149  1.00 32.92     0.100 C 
BRANCH  16  17
ATOM     17  CD  GLU D 570     -21.310  -5.722 -15.399  1.00 32.92     0.185 C 
ATOM     18  OE1 GLU D 570     -21.711  -5.146 -16.429  1.00 32.92    -0.647 OA
ATOM     19  OE2 GLU D 570     -22.082  -6.207 -14.549  1.00 32.92    -0.647 OA
ENDBRANCH  16  17
ENDBRANCH  15  16
ENDBRANCH  14  15
END_RES GLU D 570
ENDMDL
MODEL 5
REMARK VINA RESULT:      -7.8      1.724      2.283
REMARK  17 active torsions:
REMARK  status: ('A' for Active; 'I' for Inactive)
REMARK    1  A    between atoms: C_2  and  C_3 
REMARK    2  A    between atoms: C_3  and  C_4 
REMARK    3  A    between atoms: C_4  and  C_5 
REMARK    4  A    between atoms: C_5  and  C_6 
REMARK    5  A    between atoms: C_7  and  C_8 
REMARK    6  A    between atoms: C_8  and  C_9 
REMARK    7  A    between atoms: C_10  and  C_11 
REMARK    8  A    between atoms: C_11  and  C_12 
REMARK    9  A    between atoms: C_13  and  C_14 
REMARK   10  A    between atoms: C_14  and  C_15 
REMARK   11  A    between atoms: C_16  and  C_17 
REMARK   12  A    between atoms: C_17  and  C_18 
REMARK   13  A    between atoms: C_18  and  C_19 
REMARK   14  A    between atoms: C_19  and  C_20 
REMARK       I    between atoms: C_20  and  N_22 
REMARK   15  A    between atoms: N_22  and  C_23 
REMARK   16  A    between atoms: C_23  and  C_24 
REMARK   17  A    between atoms: C_24  and  O_25 
ROOT
HETATM    1  C   UNL     1     -19.728  -4.360  -7.037  1.00  0.00     0.053 C 
ENDROOT
BRANCH   1   2
HETATM    2  C   UNL     1     -19.959  -5.415  -5.998  1.00  0.00    -0.027 C 
HETATM    3  C   UNL     1     -20.576  -6.583  -6.241  1.00  0.00    -0.027 C 
BRANCH   3   4
HETATM    4  C   UNL     1     -20.817  -7.627  -5.194  1.00  0.00     0.053 C 
BRANCH   4   5
HETATM    5  C   UNL     1     -21.761  -7.131  -4.138  1.00  0.00    -0.027 C 
HETATM    6  C   UNL     1     -21.370  -6.686  -2.934  1.00  0.00    -0.027 C 
BRANCH   6   7
HETATM    7  C   UNL     1     -22.313  -6.195  -1.877  1.00  0.00     0.053 C 
BRANCH   7   8
HETATM    8  C   UNL     1     -22.201  -7.023  -0.632  1.00  0.00    -0.027 C 
HETATM    9  C   UNL     1     -21.461  -8.139  -0.538  1.00  0.00    -0.030 C 
BRANCH   9  10
HETATM   10  C   UNL     1     -21.339  -8.953   0.717  1.00  0.00     0.027 C 
BRANCH  10  11
HETATM   11  C   UNL     1     -21.500 -10.446   0.420  1.00  0.00     0.004 C 
BRANCH  11  12
HETATM   12  C   UNL     1     -22.580 -10.685  -0.636  1.00  0.00    -0.000 C 
BRANCH  12  13
HETATM   13  C   UNL     1     -23.774 -11.439  -0.052  1.00  0.00    -0.005 C 
HETATM   14  C   UNL     1     -23.324 -12.648   0.752  1.00  0.00     0.005 C 
ENDBRANCH  12  13
ENDBRANCH  11  12
ENDBRANCH  10  11
ENDBRANCH   9  10
ENDBRANCH   7   8
ENDBRANCH   6   7
ENDBRANCH   4   5
ENDBRANCH   3   4
ENDBRANCH   1   2
BRANCH   1  15
HETATM   15  C   UNL     1     -20.780  -4.414  -8.104  1.00  0.00    -0.027 C 
HETATM   16  C   UNL     1     -21.946  -3.755  -8.037  1.00  0.00    -0.030 C 
BRANCH  16  17
HETATM   17  C   UNL     1     -22.975  -3.768  -9.130  1.00  0.00     0.027 C 
BRANCH  17  18
HETATM   18  C   UNL     1     -22.385  -4.198 -10.474  1.00  0.00     0.013 C 
BRANCH  18  19
HETATM   19  C   UNL     1     -22.000  -3.023 -11.376  1.00  0.00     0.103 C 
BRANCH  19  20
HETATM   20  C   UNL     1     -22.544  -3.203 -12.778  1.00  0.00     0.217 C 
HETATM   21  O   UNL     1     -23.100  -2.313 -13.411  1.00  0.00    -0.274 OA
HETATM   22  N   UNL     1     -22.341  -4.466 -13.286  1.00  0.00    -0.359 N 
HETATM   23  H   UNL     1     -21.843  -5.156 -12.736  1.00  0.00     0.162 HD
BRANCH  22  24
HETATM   24  C   UNL     1     -22.838  -4.836 -14.603  1.00  0.00     0.148 C 
BRANCH  24  25
HETATM   25  C   UNL     1     -23.763  -6.052 -14.551  1.00  0.00     0.183 C 
BRANCH  25  26
HETATM   26  O   UNL     1     -24.854  -5.873 -15.454  1.00  0.00    -0.399 OA
HETATM   27  H   UNL     1     -24.457  -5.775 -16.338  1.00  0.00     0.209 HD
ENDBRANCH  25  26
ENDBRANCH  24  25
ENDBRANCH  22  24
ENDBRANCH  19  20
ENDBRANCH  18  19
ENDBRANCH  17  18
ENDBRANCH  16  17
ENDBRANCH   1  15
TORSDOF 17
BEGIN_RES ARG D 557
REMARK  4 active torsions:
REMARK  status: ('A' for Active; 'I' for Inactive)
REMARK    1  A    between atoms: CA   and  CB  
REMARK    2  A    between atoms: CB   and  CG  
REMARK    3  A    between atoms: CG   and  CD  
REMARK    4  A    between atoms: CD   and  NE  
REMARK       I    between atoms: NE   and  CZ  
REMARK       I    between atoms: CZ   and  NH1 
REMARK       I    between atoms: CZ   and  NH2 
ROOT
ATOM      1  CA  ARG D 557     -26.217   2.705 -17.014  1.00 35.49     0.159 C 
ENDROOT
BRANCH   1   2
ATOM      2  CB  ARG D 557     -26.789   1.319 -17.183  1.00 35.49     0.034 C 
BRANCH   2   3
ATOM      3  CG  ARG D 557     -25.999   0.207 -16.640  1.00 35.49     0.027 C 
BRANCH   3   4
ATOM      4  CD  ARG D 557     -26.843  -0.938 -16.230  1.00 35.49     0.116 C 
BRANCH   4   5
ATOM      5  NE  ARG D 557     -26.348  -1.579 -15.041  1.00 35.49    -0.212 N 
ATOM      6  CZ  ARG D 557     -26.374  -2.870 -14.796  1.00 35.49     0.666 C 
ATOM      7  NH1 ARG D 557     -26.890  -3.742 -15.642  1.00 35.49    -0.235 N 
ATOM      8  NH2 ARG D 557     -25.860  -3.278 -13.672  1.00 35.49    -0.235 N 
ATOM      9  HH  ARG D 557     -27.232  -3.495 -16.388  1.00 35.49     0.174 HD
ATOM     10  HH  ARG D 557     -26.877  -4.572 -15.429  1.00 35.49     0.174 HD
ATOM     11  HH  ARG D 557     -25.527  -2.693 -13.148  1.00 35.49     0.174 HD
ATOM     12  HH  ARG D 557     -25.855  -4.104 -13.481  1.00 35.49     0.174 HD
ATOM     13  HE  ARG D 557     -26.063  -1.084 -14.410  1.00 35.49     0.178 HD
ENDBRANCH   4   5
ENDBRANCH   3   4
ENDBRANCH   2   3
ENDBRANCH   1   2
END_RES ARG D 557
BEGIN_RES GLU D 570
REMARK  3 active torsions:
REMARK  status: ('A' for Active; 'I' for Inactive)
REMARK    5  A    between atoms: CA   and  CB  
REMARK    6  A    between atoms: CB   and  CG  
REMARK    7  A    between atoms: CG   and  CD  
ROOT
ATOM     14  CA  GLU D 570     -18.033  -6.348 -13.375  1.00 32.92     0.160 C 
ENDROOT
BRANCH  14  15
ATOM     15  CB  GLU D 570     -19.500  -6.345 -13.794  1.00 32.92     0.043 C 
BRANCH  15  16
ATOM     16  CG  GLU D 570     -20.088  -7.635 -14.237  1.00 32.92     0.100 C 
BRANCH  16  17
ATOM     17  CD  GLU D 570     -20.503  -7.626 -15.690  1.00 32.92     0.185 C 
ATOM     18  OE1 GLU D 570     -20.831  -8.698 -16.233  1.00 32.92    -0.647 OA
ATOM     19  OE2 GLU D 570     -20.484  -6.536 -16.296  1.00 32.92    -0.647 OA
ENDBRANCH  16  17
ENDBRANCH  15  16
ENDBRANCH  14  15
END_RES GLU D 570
ENDMDL
MODEL 6
REMARK VINA RESULT:      -7.6      2.638      4.933
REMARK  17 active torsions:
REMARK  status: ('A' for Active; 'I' for Inactive)
REMARK    1  A    between atoms: C_2  and  C_3 
REMARK    2  A    between atoms: C_3  and  C_4 
REMARK    3  A    between atoms: C_4  and  C_5 
REMARK    4  A    between atoms: C_5  and  C_6 
REMARK    5  A    between atoms: C_7  and  C_8 
REMARK    6  A    between atoms: C_8  and  C_9 
REMARK    7  A    between atoms: C_10  and  C_11 
REMARK    8  A    between atoms: C_11  and  C_12 
REMARK    9  A    between atoms: C_13  and  C_14 
REMARK   10  A    between atoms: C_14  and  C_15 
REMARK   11  A    between atoms: C_16  and  C_17 
REMARK   12  A    between atoms: C_17  and  C_18 
REMARK   13  A    between atoms: C_18  and  C_19 
REMARK   14  A    between atoms: C_19  and  C_20 
REMARK       I    between atoms: C_20  and  N_22 
REMARK   15  A    between atoms: N_22  and  C_23 
REMARK   16  A    between atoms: C_23  and  C_24 
REMARK   17  A    between atoms: C_24  and  O_25 
ROOT
HETATM    1  C   UNL     1     -21.904  -5.912  -2.093  1.00  0.00     0.053 C 
ENDROOT
BRANCH   1   2
HETATM    2  C   UNL     1     -22.259  -7.203  -1.418  1.00  0.00    -0.027 C 
HETATM    3  C   UNL     1     -22.675  -7.293  -0.145  1.00  0.00    -0.027 C 
BRANCH   3   4
HETATM    4  C   UNL     1     -23.015  -8.588   0.528  1.00  0.00     0.053 C 
BRANCH   4   5
HETATM    5  C   UNL     1     -22.279  -9.736  -0.100  1.00  0.00    -0.027 C 
HETATM    6  C   UNL     1     -20.994 -10.028   0.150  1.00  0.00    -0.027 C 
BRANCH   6   7
HETATM    7  C   UNL     1     -20.258 -11.171  -0.480  1.00  0.00     0.053 C 
BRANCH   7   8
HETATM    8  C   UNL     1     -19.728 -10.787  -1.830  1.00  0.00    -0.027 C 
HETATM    9  C   UNL     1     -19.514  -9.521  -2.220  1.00  0.00    -0.030 C 
BRANCH   9  10
HETATM   10  C   UNL     1     -18.968  -9.145  -3.565  1.00  0.00     0.027 C 
BRANCH  10  11
HETATM   11  C   UNL     1     -17.675  -9.908  -3.865  1.00  0.00     0.004 C 
BRANCH  11  12
HETATM   12  C   UNL     1     -16.548  -9.474  -2.927  1.00  0.00    -0.000 C 
BRANCH  12  13
HETATM   13  C   UNL     1     -15.637 -10.648  -2.568  1.00  0.00    -0.005 C 
HETATM   14  C   UNL     1     -16.135 -11.375  -1.330  1.00  0.00     0.005 C 
ENDBRANCH  12  13
ENDBRANCH  11  12
ENDBRANCH  10  11
ENDBRANCH   9  10
ENDBRANCH   7   8
ENDBRANCH   6   7
ENDBRANCH   4   5
ENDBRANCH   3   4
ENDBRANCH   1   2
BRANCH   1  15
HETATM   15  C   UNL     1     -21.302  -6.157  -3.443  1.00  0.00    -0.027 C 
HETATM   16  C   UNL     1     -21.909  -6.852  -4.418  1.00  0.00    -0.030 C 
BRANCH  16  17
HETATM   17  C   UNL     1     -21.327  -7.050  -5.787  1.00  0.00     0.027 C 
BRANCH  17  18
HETATM   18  C   UNL     1     -20.194  -6.067  -6.082  1.00  0.00     0.013 C 
BRANCH  18  19
HETATM   19  C   UNL     1     -20.195  -5.548  -7.522  1.00  0.00     0.103 C 
BRANCH  19  20
HETATM   20  C   UNL     1     -21.256  -4.487  -7.725  1.00  0.00     0.217 C 
HETATM   21  O   UNL     1     -21.319  -3.453  -7.071  1.00  0.00    -0.274 OA
HETATM   22  N   UNL     1     -22.145  -4.787  -8.732  1.00  0.00    -0.359 N 
HETATM   23  H   UNL     1     -22.030  -5.639  -9.269  1.00  0.00     0.162 HD
BRANCH  22  24
HETATM   24  C   UNL     1     -23.261  -3.905  -9.040  1.00  0.00     0.148 C 
BRANCH  24  25
HETATM   25  C   UNL     1     -24.251  -4.541 -10.014  1.00  0.00     0.183 C 
BRANCH  25  26
HETATM   26  O   UNL     1     -24.665  -3.581 -10.986  1.00  0.00    -0.399 OA
HETATM   27  H   UNL     1     -25.208  -4.068 -11.630  1.00  0.00     0.209 HD
ENDBRANCH  25  26
ENDBRANCH  24  25
ENDBRANCH  22  24
ENDBRANCH  19  20
ENDBRANCH  18  19
ENDBRANCH  17  18
ENDBRANCH  16  17
ENDBRANCH   1  15
TORSDOF 17
BEGIN_RES ARG D 557
REMARK  4 active torsions:
REMARK  status: ('A' for Active; 'I' for Inactive)
REMARK    1  A    between atoms: CA   and  CB  
REMARK    2  A    between atoms: CB   and  CG  
REMARK    3  A    between atoms: CG   and  CD  
REMARK    4  A    between atoms: CD   and  NE  
REMARK       I    between atoms: NE   and  CZ  
REMARK       I    between atoms: CZ   and  NH1 
REMARK       I    between atoms: CZ   and  NH2 
ROOT
ATOM      1  CA  ARG D 557     -26.217   2.705 -17.014  1.00 35.49     0.159 C 
ENDROOT
BRANCH   1   2
ATOM      2  CB  ARG D 557     -26.789   1.319 -17.183  1.00 35.49     0.034 C 
BRANCH   2   3
ATOM      3  CG  ARG D 557     -25.868   0.195 -16.976  1.00 35.49     0.027 C 
BRANCH   3   4
ATOM      4  CD  ARG D 557     -26.303  -0.696 -15.876  1.00 35.49     0.116 C 
BRANCH   4   5
ATOM      5  NE  ARG D 557     -25.262  -0.907 -14.905  1.00 35.49    -0.212 N 
ATOM      6  CZ  ARG D 557     -24.936  -2.061 -14.367  1.00 35.49     0.666 C 
ATOM      7  NH1 ARG D 557     -25.563  -3.184 -14.663  1.00 35.49    -0.235 N 
ATOM      8  NH2 ARG D 557     -23.949  -2.070 -13.519  1.00 35.49    -0.235 N 
ATOM      9  HH  ARG D 557     -26.214  -3.202 -15.221  1.00 35.49     0.174 HD
ATOM     10  HH  ARG D 557     -25.305  -3.907 -14.283  1.00 35.49     0.174 HD
ATOM     11  HH  ARG D 557     -23.557  -1.331 -13.352  1.00 35.49     0.174 HD
ATOM     12  HH  ARG D 557     -23.707  -2.796 -13.154  1.00 35.49     0.174 HD
ATOM     13  HE  ARG D 557     -24.853  -0.225 -14.603  1.00 35.49     0.178 HD
ENDBRANCH   4   5
ENDBRANCH   3   4
ENDBRANCH   2   3
ENDBRANCH   1   2
END_RES ARG D 557
BEGIN_RES GLU D 570
REMARK  3 active torsions:
REMARK  status: ('A' for Active; 'I' for Inactive)
REMARK    5  A    between atoms: CA   and  CB  
REMARK    6  A    between atoms: CB   and  CG  
REMARK    7  A    between atoms: CG   and  CD  
ROOT
ATOM     14  CA  GLU D 570     -18.033  -6.348 -13.375  1.00 32.92     0.160 C 
ENDROOT
BRANCH  14  15
ATOM     15  CB  GLU D 570     -19.500  -6.345 -13.794  1.00 32.92     0.043 C 
BRANCH  15  16
ATOM     16  CG  GLU D 570     -20.447  -5.555 -12.966  1.00 32.92     0.100 C 
BRANCH  16  17
ATOM     17  CD  GLU D 570     -21.677  -5.121 -13.728  1.00 32.92     0.185 C 
ATOM     18  OE1 GLU D 570     -21.640  -5.098 -14.974  1.00 32.92    -0.647 OA
ATOM     19  OE2 GLU D 570     -22.683  -4.785 -13.073  1.00 32.92    -0.647 OA
ENDBRANCH  16  17
ENDBRANCH  15  16
ENDBRANCH  14  15
END_RES GLU D 570
ENDMDL
MODEL 7
REMARK VINA RESULT:      -7.4      1.849      2.488
REMARK  17 active torsions:
REMARK  status: ('A' for Active; 'I' for Inactive)
REMARK    1  A    between atoms: C_2  and  C_3 
REMARK    2  A    between atoms: C_3  and  C_4 
REMARK    3  A    between atoms: C_4  and  C_5 
REMARK    4  A    between atoms: C_5  and  C_6 
REMARK    5  A    between atoms: C_7  and  C_8 
REMARK    6  A    between atoms: C_8  and  C_9 
REMARK    7  A    between atoms: C_10  and  C_11 
REMARK    8  A    between atoms: C_11  and  C_12 
REMARK    9  A    between atoms: C_13  and  C_14 
REMARK   10  A    between atoms: C_14  and  C_15 
REMARK   11  A    between atoms: C_16  and  C_17 
REMARK   12  A    between atoms: C_17  and  C_18 
REMARK   13  A    between atoms: C_18  and  C_19 
REMARK   14  A    between atoms: C_19  and  C_20 
REMARK       I    between atoms: C_20  and  N_22 
REMARK   15  A    between atoms: N_22  and  C_23 
REMARK   16  A    between atoms: C_23  and  C_24 
REMARK   17  A    between atoms: C_24  and  O_25 
ROOT
HETATM    1  C   UNL     1     -22.778  -4.132  -7.798  1.00  0.00     0.053 C 
ENDROOT
BRANCH   1   2
HETATM    2  C   UNL     1     -21.782  -4.736  -6.855  1.00  0.00    -0.027 C 
HETATM    3  C   UNL     1     -22.027  -5.819  -6.100  1.00  0.00    -0.027 C 
BRANCH   3   4
HETATM    4  C   UNL     1     -21.032  -6.410  -5.148  1.00  0.00     0.053 C 
BRANCH   4   5
HETATM    5  C   UNL     1     -21.684  -6.804  -3.855  1.00  0.00    -0.027 C 
HETATM    6  C   UNL     1     -21.583  -6.095  -2.720  1.00  0.00    -0.027 C 
BRANCH   6   7
HETATM    7  C   UNL     1     -22.229  -6.490  -1.427  1.00  0.00     0.053 C 
BRANCH   7   8
HETATM    8  C   UNL     1     -21.945  -7.926  -1.103  1.00  0.00    -0.027 C 
HETATM    9  C   UNL     1     -22.653  -8.652  -0.224  1.00  0.00    -0.030 C 
BRANCH   9  10
HETATM   10  C   UNL     1     -22.373 -10.094   0.082  1.00  0.00     0.027 C 
BRANCH  10  11
HETATM   11  C   UNL     1     -23.660 -10.922   0.045  1.00  0.00     0.004 C 
BRANCH  11  12
HETATM   12  C   UNL     1     -23.990 -11.364  -1.381  1.00  0.00    -0.000 C 
BRANCH  12  13
HETATM   13  C   UNL     1     -22.723 -11.676  -2.177  1.00  0.00    -0.005 C 
HETATM   14  C   UNL     1     -22.718 -10.951  -3.513  1.00  0.00     0.005 C 
ENDBRANCH  12  13
ENDBRANCH  11  12
ENDBRANCH  10  11
ENDBRANCH   9  10
ENDBRANCH   7   8
ENDBRANCH   6   7
ENDBRANCH   4   5
ENDBRANCH   3   4
ENDBRANCH   1   2
BRANCH   1  15
HETATM   15  C   UNL     1     -22.156  -3.855  -9.134  1.00  0.00    -0.027 C 
HETATM   16  C   UNL     1     -22.371  -4.601 -10.228  1.00  0.00    -0.030 C 
BRANCH  16  17
HETATM   17  C   UNL     1     -21.790  -4.290 -11.576  1.00  0.00     0.027 C 
BRANCH  17  18
HETATM   18  C   UNL     1     -22.297  -2.959 -12.132  1.00  0.00     0.013 C 
BRANCH  18  19
HETATM   19  C   UNL     1     -23.509  -3.104 -13.055  1.00  0.00     0.103 C 
BRANCH  19  20
HETATM   20  C   UNL     1     -23.239  -4.097 -14.167  1.00  0.00     0.217 C 
HETATM   21  O   UNL     1     -22.344  -3.966 -14.994  1.00  0.00    -0.274 OA
HETATM   22  N   UNL     1     -24.091  -5.178 -14.154  1.00  0.00    -0.359 N 
HETATM   23  H   UNL     1     -24.793  -5.258 -13.427  1.00  0.00     0.162 HD
BRANCH  22  24
HETATM   24  C   UNL     1     -24.012  -6.212 -15.176  1.00  0.00     0.148 C 
BRANCH  24  25
HETATM   25  C   UNL     1     -25.392  -6.691 -15.623  1.00  0.00     0.183 C 
BRANCH  25  26
HETATM   26  O   UNL     1     -25.855  -5.895 -16.713  1.00  0.00    -0.399 OA
HETATM   27  H   UNL     1     -26.827  -5.929 -16.677  1.00  0.00     0.209 HD
ENDBRANCH  25  26
ENDBRANCH  24  25
ENDBRANCH  22  24
ENDBRANCH  19  20
ENDBRANCH  18  19
ENDBRANCH  17  18
ENDBRANCH  16  17
ENDBRANCH   1  15
TORSDOF 17
BEGIN_RES ARG D 557
REMARK  4 active torsions:
REMARK  status: ('A' for Active; 'I' for Inactive)
REMARK    1  A    between atoms: CA   and  CB  
REMARK    2  A    between atoms: CB   and  CG  
REMARK    3  A    between atoms: CG   and  CD  
REMARK    4  A    between atoms: CD   and  NE  
REMARK       I    between atoms: NE   and  CZ  
REMARK       I    between atoms: CZ   and  NH1 
REMARK       I    between atoms: CZ   and  NH2 
ROOT
ATOM      1  CA  ARG D 557     -26.217   2.705 -17.014  1.00 35.49     0.159 C 
ENDROOT
BRANCH   1   2
ATOM      2  CB  ARG D 557     -26.789   1.319 -17.183  1.00 35.49     0.034 C 
BRANCH   2   3
ATOM      3  CG  ARG D 557     -28.215   1.151 -16.878  1.00 35.49     0.027 C 
BRANCH   3   4
ATOM      4  CD  ARG D 557     -28.692  -0.224 -17.149  1.00 35.49     0.116 C 
BRANCH   4   5
ATOM      5  NE  ARG D 557     -27.888  -1.217 -16.486  1.00 35.49    -0.212 N 
ATOM      6  CZ  ARG D 557     -28.000  -2.519 -16.632  1.00 35.49     0.666 C 
ATOM      7  NH1 ARG D 557     -28.904  -3.069 -17.422  1.00 35.49    -0.235 N 
ATOM      8  NH2 ARG D 557     -27.171  -3.270 -15.968  1.00 35.49    -0.235 N 
ATOM      9  HH  ARG D 557     -29.458  -2.593 -17.870  1.00 35.49     0.174 HD
ATOM     10  HH  ARG D 557     -28.928  -3.923 -17.480  1.00 35.49     0.174 HD
ATOM     11  HH  ARG D 557     -26.593  -2.887 -15.471  1.00 35.49     0.174 HD
ATOM     12  HH  ARG D 557     -27.210  -4.114 -16.040  1.00 35.49     0.174 HD
ATOM     13  HE  ARG D 557     -27.328  -0.953 -15.903  1.00 35.49     0.178 HD
ENDBRANCH   4   5
ENDBRANCH   3   4
ENDBRANCH   2   3
ENDBRANCH   1   2
END_RES ARG D 557
BEGIN_RES GLU D 570
REMARK  3 active torsions:
REMARK  status: ('A' for Active; 'I' for Inactive)
REMARK    5  A    between atoms: CA   and  CB  
REMARK    6  A    between atoms: CB   and  CG  
REMARK    7  A    between atoms: CG   and  CD  
ROOT
ATOM     14  CA  GLU D 570     -18.033  -6.348 -13.375  1.00 32.92     0.160 C 
ENDROOT
BRANCH  14  15
ATOM     15  CB  GLU D 570     -19.500  -6.345 -13.794  1.00 32.92     0.043 C 
BRANCH  15  16
ATOM     16  CG  GLU D 570     -20.089  -7.637 -14.232  1.00 32.92     0.100 C 
BRANCH  16  17
ATOM     17  CD  GLU D 570     -20.661  -7.579 -15.630  1.00 32.92     0.185 C 
ATOM     18  OE1 GLU D 570     -21.212  -8.593 -16.100  1.00 32.92    -0.647 OA
ATOM     19  OE2 GLU D 570     -20.543  -6.514 -16.267  1.00 32.92    -0.647 OA
ENDBRANCH  16  17
ENDBRANCH  15  16
ENDBRANCH  14  15
END_RES GLU D 570
ENDMDL
MODEL 8
REMARK VINA RESULT:      -7.3      3.796      7.876
REMARK  17 active torsions:
REMARK  status: ('A' for Active; 'I' for Inactive)
REMARK    1  A    between atoms: C_2  and  C_3 
REMARK    2  A    between atoms: C_3  and  C_4 
REMARK    3  A    between atoms: C_4  and  C_5 
REMARK    4  A    between atoms: C_5  and  C_6 
REMARK    5  A    between atoms: C_7  and  C_8 
REMARK    6  A    between atoms: C_8  and  C_9 
REMARK    7  A    between atoms: C_10  and  C_11 
REMARK    8  A    between atoms: C_11  and  C_12 
REMARK    9  A    between atoms: C_13  and  C_14 
REMARK   10  A    between atoms: C_14  and  C_15 
REMARK   11  A    between atoms: C_16  and  C_17 
REMARK   12  A    between atoms: C_17  and  C_18 
REMARK   13  A    between atoms: C_18  and  C_19 
REMARK   14  A    between atoms: C_19  and  C_20 
REMARK       I    between atoms: C_20  and  N_22 
REMARK   15  A    between atoms: N_22  and  C_23 
REMARK   16  A    between atoms: C_23  and  C_24 
REMARK   17  A    between atoms: C_24  and  O_25 
ROOT
HETATM    1  C   UNL     1     -24.919  -6.919 -15.672  1.00  0.00     0.053 C 
ENDROOT
BRANCH   1   2
HETATM    2  C   UNL     1     -24.238  -5.774 -14.985  1.00  0.00    -0.027 C 
HETATM    3  C   UNL     1     -23.396  -5.917 -13.948  1.00  0.00    -0.027 C 
BRANCH   3   4
HETATM    4  C   UNL     1     -22.729  -4.767 -13.256  1.00  0.00     0.053 C 
BRANCH   4   5
HETATM    5  C   UNL     1     -23.561  -4.265 -12.113  1.00  0.00    -0.027 C 
HETATM    6  C   UNL     1     -23.561  -4.814 -10.889  1.00  0.00    -0.027 C 
BRANCH   6   7
HETATM    7  C   UNL     1     -24.395  -4.317  -9.748  1.00  0.00     0.053 C 
BRANCH   7   8
HETATM    8  C   UNL     1     -23.562  -4.134  -8.514  1.00  0.00    -0.027 C 
HETATM    9  C   UNL     1     -22.286  -3.720  -8.526  1.00  0.00    -0.030 C 
BRANCH   9  10
HETATM   10  C   UNL     1     -21.464  -3.523  -7.287  1.00  0.00     0.027 C 
BRANCH  10  11
HETATM   11  C   UNL     1     -20.201  -4.388  -7.322  1.00  0.00     0.004 C 
BRANCH  11  12
HETATM   12  C   UNL     1     -19.913  -4.999  -5.950  1.00  0.00    -0.000 C 
BRANCH  12  13
HETATM   13  C   UNL     1     -20.508  -6.402  -5.828  1.00  0.00    -0.005 C 
HETATM   14  C   UNL     1     -21.865  -6.368  -5.143  1.00  0.00     0.005 C 
ENDBRANCH  12  13
ENDBRANCH  11  12
ENDBRANCH  10  11
ENDBRANCH   9  10
ENDBRANCH   7   8
ENDBRANCH   6   7
ENDBRANCH   4   5
ENDBRANCH   3   4
ENDBRANCH   1   2
BRANCH   1  15
HETATM   15  C   UNL     1     -26.306  -6.544 -16.097  1.00  0.00    -0.027 C 
HETATM   16  C   UNL     1     -27.420  -7.028 -15.526  1.00  0.00    -0.030 C 
BRANCH  16  17
HETATM   17  C   UNL     1     -28.807  -6.610 -15.918  1.00  0.00     0.027 C 
BRANCH  17  18
HETATM   18  C   UNL     1     -29.445  -7.583 -16.910  1.00  0.00     0.013 C 
BRANCH  18  19
HETATM   19  C   UNL     1     -29.803  -6.941 -18.253  1.00  0.00     0.103 C 
BRANCH  19  20
HETATM   20  C   UNL     1     -28.591  -6.297 -18.896  1.00  0.00     0.217 C 
HETATM   21  O   UNL     1     -28.367  -5.093 -18.871  1.00  0.00    -0.274 OA
HETATM   22  N   UNL     1     -27.751  -7.201 -19.505  1.00  0.00    -0.359 N 
HETATM   23  H   UNL     1     -27.963  -8.191 -19.467  1.00  0.00     0.162 HD
BRANCH  22  24
HETATM   24  C   UNL     1     -26.560  -6.760 -20.216  1.00  0.00     0.148 C 
BRANCH  24  25
HETATM   25  C   UNL     1     -25.952  -7.871 -21.071  1.00  0.00     0.183 C 
BRANCH  25  26
HETATM   26  O   UNL     1     -26.950  -8.838 -21.396  1.00  0.00    -0.399 OA
HETATM   27  H   UNL     1     -27.229  -8.640 -22.307  1.00  0.00     0.209 HD
ENDBRANCH  25  26
ENDBRANCH  24  25
ENDBRANCH  22  24
ENDBRANCH  19  20
ENDBRANCH  18  19
ENDBRANCH  17  18
ENDBRANCH  16  17
ENDBRANCH   1  15
TORSDOF 17
BEGIN_RES ARG D 557
REMARK  4 active torsions:
REMARK  status: ('A' for Active; 'I' for Inactive)
REMARK    1  A    between atoms: CA   and  CB  
REMARK    2  A    between atoms: CB   and  CG  
REMARK    3  A    between atoms: CG   and  CD  
REMARK    4  A    between atoms: CD   and  NE  
REMARK       I    between atoms: NE   and  CZ  
REMARK       I    between atoms: CZ   and  NH1 
REMARK       I    between atoms: CZ   and  NH2 
ROOT
ATOM      1  CA  ARG D 557     -26.217   2.705 -17.014  1.00 35.49     0.159 C 
ENDROOT
BRANCH   1   2
ATOM      2  CB  ARG D 557     -26.789   1.319 -17.183  1.00 35.49     0.034 C 
BRANCH   2   3
ATOM      3  CG  ARG D 557     -28.216   1.152 -16.881  1.00 35.49     0.027 C 
BRANCH   3   4
ATOM      4  CD  ARG D 557     -28.501  -0.131 -16.198  1.00 35.49     0.116 C 
BRANCH   4   5
ATOM      5  NE  ARG D 557     -29.325  -0.999 -16.997  1.00 35.49    -0.212 N 
ATOM      6  CZ  ARG D 557     -29.137  -2.287 -17.175  1.00 35.49     0.666 C 
ATOM      7  NH1 ARG D 557     -28.127  -2.939 -16.630  1.00 35.49    -0.235 N 
ATOM      8  NH2 ARG D 557     -29.998  -2.923 -17.916  1.00 35.49    -0.235 N 
ATOM      9  HH  ARG D 557     -27.549  -2.541 -16.137  1.00 35.49     0.174 HD
ATOM     10  HH  ARG D 557     -28.056  -3.779 -16.779  1.00 35.49     0.174 HD
ATOM     11  HH  ARG D 557     -30.645  -2.478 -18.249  1.00 35.49     0.174 HD
ATOM     12  HH  ARG D 557     -29.912  -3.756 -18.051  1.00 35.49     0.174 HD
ATOM     13  HE  ARG D 557     -29.958  -0.649 -17.444  1.00 35.49     0.178 HD
ENDBRANCH   4   5
ENDBRANCH   3   4
ENDBRANCH   2   3
ENDBRANCH   1   2
END_RES ARG D 557
BEGIN_RES GLU D 570
REMARK  3 active torsions:
REMARK  status: ('A' for Active; 'I' for Inactive)
REMARK    5  A    between atoms: CA   and  CB  
REMARK    6  A    between atoms: CB   and  CG  
REMARK    7  A    between atoms: CG   and  CD  
ROOT
ATOM     14  CA  GLU D 570     -18.033  -6.348 -13.375  1.00 32.92     0.160 C 
ENDROOT
BRANCH  14  15
ATOM     15  CB  GLU D 570     -19.500  -6.345 -13.794  1.00 32.92     0.043 C 
BRANCH  15  16
ATOM     16  CG  GLU D 570     -20.053  -7.603 -14.359  1.00 32.92     0.100 C 
BRANCH  16  17
ATOM     17  CD  GLU D 570     -20.735  -7.401 -15.692  1.00 32.92     0.185 C 
ATOM     18  OE1 GLU D 570     -21.472  -8.301 -16.137  1.00 32.92    -0.647 OA
ATOM     19  OE2 GLU D 570     -20.516  -6.337 -16.305  1.00 32.92    -0.647 OA
ENDBRANCH  16  17
ENDBRANCH  15  16
ENDBRANCH  14  15
END_RES GLU D 570
ENDMDL
MODEL 9
REMARK VINA RESULT:      -7.3      2.851      5.933
REMARK  17 active torsions:
REMARK  status: ('A' for Active; 'I' for Inactive)
REMARK    1  A    between atoms: C_2  and  C_3 
REMARK    2  A    between atoms: C_3  and  C_4 
REMARK    3  A    between atoms: C_4  and  C_5 
REMARK    4  A    between atoms: C_5  and  C_6 
REMARK    5  A    between atoms: C_7  and  C_8 
REMARK    6  A    between atoms: C_8  and  C_9 
REMARK    7  A    between atoms: C_10  and  C_11 
REMARK    8  A    between atoms: C_11  and  C_12 
REMARK    9  A    between atoms: C_13  and  C_14 
REMARK   10  A    between atoms: C_14  and  C_15 
REMARK   11  A    between atoms: C_16  and  C_17 
REMARK   12  A    between atoms: C_17  and  C_18 
REMARK   13  A    between atoms: C_18  and  C_19 
REMARK   14  A    between atoms: C_19  and  C_20 
REMARK       I    between atoms: C_20  and  N_22 
REMARK   15  A    between atoms: N_22  and  C_23 
REMARK   16  A    between atoms: C_23  and  C_24 
REMARK   17  A    between atoms: C_24  and  O_25 
ROOT
HETATM    1  C   UNL     1     -22.821  -5.289 -13.319  1.00  0.00     0.053 C 
ENDROOT
BRANCH   1   2
HETATM    2  C   UNL     1     -23.478  -4.999 -12.004  1.00  0.00    -0.027 C 
HETATM    3  C   UNL     1     -22.856  -4.413 -10.968  1.00  0.00    -0.027 C 
BRANCH   3   4
HETATM    4  C   UNL     1     -23.515  -4.139  -9.651  1.00  0.00     0.053 C 
BRANCH   4   5
HETATM    5  C   UNL     1     -22.567  -4.368  -8.511  1.00  0.00    -0.027 C 
HETATM    6  C   UNL     1     -21.232  -4.280  -8.617  1.00  0.00    -0.027 C 
BRANCH   6   7
HETATM    7  C   UNL     1     -20.284  -4.515  -7.480  1.00  0.00     0.053 C 
BRANCH   7   8
HETATM    8  C   UNL     1     -20.743  -5.660  -6.629  1.00  0.00    -0.027 C 
HETATM    9  C   UNL     1     -20.990  -5.565  -5.313  1.00  0.00    -0.030 C 
BRANCH   9  10
HETATM   10  C   UNL     1     -21.466  -6.712  -4.471  1.00  0.00     0.027 C 
BRANCH  10  11
HETATM   11  C   UNL     1     -21.504  -6.327  -2.990  1.00  0.00     0.004 C 
BRANCH  11  12
HETATM   12  C   UNL     1     -20.795  -7.373  -2.129  1.00  0.00    -0.000 C 
BRANCH  12  13
HETATM   13  C   UNL     1     -21.796  -8.237  -1.363  1.00  0.00    -0.005 C 
HETATM   14  C   UNL     1     -22.502  -7.436  -0.281  1.00  0.00     0.005 C 
ENDBRANCH  12  13
ENDBRANCH  11  12
ENDBRANCH  10  11
ENDBRANCH   9  10
ENDBRANCH   7   8
ENDBRANCH   6   7
ENDBRANCH   4   5
ENDBRANCH   3   4
ENDBRANCH   1   2
BRANCH   1  15
HETATM   15  C   UNL     1     -23.841  -5.567 -14.382  1.00  0.00    -0.027 C 
HETATM   16  C   UNL     1     -23.948  -6.737 -15.028  1.00  0.00    -0.030 C 
BRANCH  16  17
HETATM   17  C   UNL     1     -25.004  -7.030 -16.054  1.00  0.00     0.027 C 
BRANCH  17  18
HETATM   18  C   UNL     1     -26.304  -6.275 -15.777  1.00  0.00     0.013 C 
BRANCH  18  19
HETATM   19  C   UNL     1     -27.109  -5.961 -17.041  1.00  0.00     0.103 C 
BRANCH  19  20
HETATM   20  C   UNL     1     -27.939  -4.706 -16.868  1.00  0.00     0.217 C 
HETATM   21  O   UNL     1     -27.658  -3.807 -16.084  1.00  0.00    -0.274 OA
HETATM   22  N   UNL     1     -29.041  -4.661 -17.692  1.00  0.00    -0.359 N 
HETATM   23  H   UNL     1     -29.210  -5.413 -18.349  1.00  0.00     0.162 HD
BRANCH  22  24
HETATM   24  C   UNL     1     -29.981  -3.551 -17.632  1.00  0.00     0.148 C 
BRANCH  24  25
HETATM   25  C   UNL     1     -31.397  -4.010 -17.287  1.00  0.00     0.183 C 
BRANCH  25  26
HETATM   26  O   UNL     1     -32.342  -3.020 -17.693  1.00  0.00    -0.399 OA
HETATM   27  H   UNL     1     -33.026  -3.003 -17.001  1.00  0.00     0.209 HD
ENDBRANCH  25  26
ENDBRANCH  24  25
ENDBRANCH  22  24
ENDBRANCH  19  20
ENDBRANCH  18  19
ENDBRANCH  17  18
ENDBRANCH  16  17
ENDBRANCH   1  15
TORSDOF 17
BEGIN_RES ARG D 557
REMARK  4 active torsions:
REMARK  status: ('A' for Active; 'I' for Inactive)
REMARK    1  A    between atoms: CA   and  CB  
REMARK    2  A    between atoms: CB   and  CG  
REMARK    3  A    between atoms: CG   and  CD  
REMARK    4  A    between atoms: CD   and  NE  
REMARK       I    between atoms: NE   and  CZ  
REMARK       I    between atoms: CZ   and  NH1 
REMARK       I    between atoms: CZ   and  NH2 
ROOT
ATOM      1  CA  ARG D 557     -26.217   2.705 -17.014  1.00 35.49     0.159 C 
ENDROOT
BRANCH   1   2
ATOM      2  CB  ARG D 557     -26.789   1.319 -17.183  1.00 35.49     0.034 C 
BRANCH   2   3
ATOM      3  CG  ARG D 557     -25.855   0.196 -17.037  1.00 35.49     0.027 C 
BRANCH   3   4
ATOM      4  CD  ARG D 557     -26.190  -0.671 -15.884  1.00 35.49     0.116 C 
BRANCH   4   5
ATOM      5  NE  ARG D 557     -25.065  -0.870 -15.010  1.00 35.49    -0.212 N 
ATOM      6  CZ  ARG D 557     -24.902  -1.881 -14.186  1.00 35.49     0.666 C 
ATOM      7  NH1 ARG D 557     -25.795  -2.846 -14.062  1.00 35.49    -0.235 N 
ATOM      8  NH2 ARG D 557     -23.807  -1.912 -13.483  1.00 35.49    -0.235 N 
ATOM      9  HH  ARG D 557     -26.521  -2.847 -14.517  1.00 35.49     0.174 HD
ATOM     10  HH  ARG D 557     -25.633  -3.481 -13.510  1.00 35.49     0.174 HD
ATOM     11  HH  ARG D 557     -23.245  -1.280 -13.589  1.00 35.49     0.174 HD
ATOM     12  HH  ARG D 557     -23.665  -2.551 -12.943  1.00 35.49     0.174 HD
ATOM     13  HE  ARG D 557     -24.475  -0.259 -14.972  1.00 35.49     0.178 HD
ENDBRANCH   4   5
ENDBRANCH   3   4
ENDBRANCH   2   3
ENDBRANCH   1   2
END_RES ARG D 557
BEGIN_RES GLU D 570
REMARK  3 active torsions:
REMARK  status: ('A' for Active; 'I' for Inactive)
REMARK    5  A    between atoms: CA   and  CB  
REMARK    6  A    between atoms: CB   and  CG  
REMARK    7  A    between atoms: CG   and  CD  
ROOT
ATOM     14  CA  GLU D 570     -18.033  -6.348 -13.375  1.00 32.92     0.160 C 
ENDROOT
BRANCH  14  15
ATOM     15  CB  GLU D 570     -19.500  -6.345 -13.794  1.00 32.92     0.043 C 
BRANCH  15  16
ATOM     16  CG  GLU D 570     -19.799  -6.162 -15.238  1.00 32.92     0.100 C 
BRANCH  16  17
ATOM     17  CD  GLU D 570     -20.597  -7.304 -15.824  1.00 32.92     0.185 C 
ATOM     18  OE1 GLU D 570     -20.634  -8.391 -15.216  1.00 32.92    -0.647 OA
ATOM     19  OE2 GLU D 570     -21.177  -7.114 -16.911  1.00 32.92    -0.647 OA
ENDBRANCH  16  17
ENDBRANCH  15  16
ENDBRANCH  14  15
END_RES GLU D 570
ENDMDL
