MODEL 1
REMARK VINA RESULT:      -8.8      0.000      0.000
REMARK  10 active torsions:
REMARK  status: ('A' for Active; 'I' for Inactive)
REMARK    1  A    between atoms: O_2  and  C_3 
REMARK    2  A    between atoms: C_5  and  C_6 
REMARK    3  A    between atoms: C_6  and  N_7 
REMARK       I    between atoms: N_7  and  C_8 
REMARK    4  A    between atoms: C_8  and  C_10 
REMARK    5  A    between atoms: C_10  and  C_11 
REMARK    6  A    between atoms: C_11  and  C_12 
REMARK    7  A    between atoms: C_12  and  C_13 
REMARK    8  A    between atoms: C_13  and  C_14 
REMARK    9  A    between atoms: C_15  and  C_16 
REMARK   10  A    between atoms: C_21  and  O_22 
ROOT
HETATM    1  N   UNL     1     -21.237  -5.117  -6.589  1.00  0.00    -0.357 N 
HETATM    2  C   UNL     1     -20.656  -6.353  -6.452  1.00  0.00     0.217 C 
HETATM    3  O   UNL     1     -19.559  -6.638  -6.925  1.00  0.00    -0.274 OA
HETATM    4  H   UNL     1     -22.172  -4.955  -6.237  1.00  0.00     0.162 HD
ENDROOT
BRANCH   1   5
HETATM    5  C   UNL     1     -20.587  -4.050  -7.315  1.00  0.00     0.161 C 
BRANCH   5   6
HETATM    6  C   UNL     1     -21.011  -4.011  -8.762  1.00  0.00    -0.038 A 
HETATM    7  C   UNL     1     -22.341  -3.713  -9.115  1.00  0.00     0.048 A 
HETATM    8  C   UNL     1     -22.726  -3.615 -10.457  1.00  0.00     0.101 A 
HETATM    9  C   UNL     1     -21.758  -3.818 -11.452  1.00  0.00     0.099 A 
HETATM   10  C   UNL     1     -20.436  -4.110 -11.119  1.00  0.00     0.040 A 
HETATM   11  C   UNL     1     -20.066  -4.205  -9.778  1.00  0.00     0.012 A 
BRANCH   8  12
HETATM   12  O   UNL     1     -23.991  -3.321 -10.896  1.00  0.00    -0.353 OA
HETATM   13  C   UNL     1     -25.024  -3.262  -9.923  1.00  0.00     0.210 C 
ENDBRANCH   8  12
BRANCH   9  14
HETATM   14  O   UNL     1     -22.116  -3.721 -12.771  1.00  0.00    -0.358 OA
HETATM   15  H   UNL     1     -23.081  -3.774 -12.844  1.00  0.00     0.217 HD
ENDBRANCH   9  14
ENDBRANCH   5   6
ENDBRANCH   1   5
BRANCH   2  16
HETATM   16  C   UNL     1     -21.500  -7.350  -5.684  1.00  0.00     0.103 C 
BRANCH  16  17
HETATM   17  C   UNL     1     -22.202  -6.706  -4.488  1.00  0.00     0.010 C 
BRANCH  17  18
HETATM   18  C   UNL     1     -21.330  -6.729  -3.229  1.00  0.00     0.004 C 
BRANCH  18  19
HETATM   19  C   UNL     1     -22.011  -6.000  -2.073  1.00  0.00     0.027 C 
BRANCH  19  20
HETATM   20  C   UNL     1     -22.394  -6.962  -0.986  1.00  0.00    -0.030 C 
HETATM   21  C   UNL     1     -21.798  -8.150  -0.801  1.00  0.00    -0.027 C 
BRANCH  21  22
HETATM   22  C   UNL     1     -22.183  -9.121   0.287  1.00  0.00    -0.001 C 
HETATM   23  C   UNL     1     -23.362  -9.979  -0.172  1.00  0.00     0.013 C 
HETATM   24  C   UNL     1     -20.989 -10.001   0.656  1.00  0.00     0.013 C 
ENDBRANCH  21  22
ENDBRANCH  19  20
ENDBRANCH  18  19
ENDBRANCH  17  18
ENDBRANCH  16  17
ENDBRANCH   2  16
TORSDOF 10
BEGIN_RES ARG D 557
REMARK  4 active torsions:
REMARK  status: ('A' for Active; 'I' for Inactive)
REMARK    1  A    between atoms: CA   and  CB  
REMARK    2  A    between atoms: CB   and  CG  
REMARK    3  A    between atoms: CG   and  CD  
REMARK    4  A    between atoms: CD   and  NE  
REMARK       I    between atoms: NE   and  CZ  
REMARK       I    between atoms: CZ   and  NH1 
REMARK       I    between atoms: CZ   and  NH2 
ROOT
ATOM      1  CA  ARG D 557     -26.217   2.705 -17.014  1.00 35.49     0.159 C 
ENDROOT
BRANCH   1   2
ATOM      2  CB  ARG D 557     -26.789   1.319 -17.183  1.00 35.49     0.034 C 
BRANCH   2   3
ATOM      3  CG  ARG D 557     -25.835   0.203 -17.160  1.00 35.49     0.027 C 
BRANCH   3   4
ATOM      4  CD  ARG D 557     -24.777   0.387 -16.141  1.00 35.49     0.116 C 
BRANCH   4   5
ATOM      5  NE  ARG D 557     -24.957  -0.483 -15.009  1.00 35.49    -0.212 N 
ATOM      6  CZ  ARG D 557     -24.144  -1.450 -14.646  1.00 35.49     0.666 C 
ATOM      7  NH1 ARG D 557     -23.045  -1.742 -15.317  1.00 35.49    -0.235 N 
ATOM      8  NH2 ARG D 557     -24.455  -2.126 -13.578  1.00 35.49    -0.235 N 
ATOM      9  HH  ARG D 557     -22.821  -1.309 -16.021  1.00 35.49     0.174 HD
ATOM     10  HH  ARG D 557     -22.552  -2.382 -15.032  1.00 35.49     0.174 HD
ATOM     11  HH  ARG D 557     -25.167  -1.911 -13.161  1.00 35.49     0.174 HD
ATOM     12  HH  ARG D 557     -23.953  -2.755 -13.311  1.00 35.49     0.174 HD
ATOM     13  HE  ARG D 557     -25.677  -0.413 -14.562  1.00 35.49     0.178 HD
ENDBRANCH   4   5
ENDBRANCH   3   4
ENDBRANCH   2   3
ENDBRANCH   1   2
END_RES ARG D 557
BEGIN_RES GLU D 570
REMARK  3 active torsions:
REMARK  status: ('A' for Active; 'I' for Inactive)
REMARK    5  A    between atoms: CA   and  CB  
REMARK    6  A    between atoms: CB   and  CG  
REMARK    7  A    between atoms: CG   and  CD  
ROOT
ATOM     14  CA  GLU D 570     -18.033  -6.348 -13.375  1.00 32.92     0.160 C 
ENDROOT
BRANCH  14  15
ATOM     15  CB  GLU D 570     -19.500  -6.345 -13.794  1.00 32.92     0.043 C 
BRANCH  15  16
ATOM     16  CG  GLU D 570     -19.803  -6.076 -15.223  1.00 32.92     0.100 C 
BRANCH  16  17
ATOM     17  CD  GLU D 570     -21.267  -5.799 -15.473  1.00 32.92     0.185 C 
ATOM     18  OE1 GLU D 570     -22.044  -6.757 -15.647  1.00 32.92    -0.647 OA
ATOM     19  OE2 GLU D 570     -21.638  -4.609 -15.513  1.00 32.92    -0.647 OA
ENDBRANCH  16  17
ENDBRANCH  15  16
ENDBRANCH  14  15
END_RES GLU D 570
ENDMDL
MODEL 2
REMARK VINA RESULT:      -8.7      1.737      2.498
REMARK  10 active torsions:
REMARK  status: ('A' for Active; 'I' for Inactive)
REMARK    1  A    between atoms: O_2  and  C_3 
REMARK    2  A    between atoms: C_5  and  C_6 
REMARK    3  A    between atoms: C_6  and  N_7 
REMARK       I    between atoms: N_7  and  C_8 
REMARK    4  A    between atoms: C_8  and  C_10 
REMARK    5  A    between atoms: C_10  and  C_11 
REMARK    6  A    between atoms: C_11  and  C_12 
REMARK    7  A    between atoms: C_12  and  C_13 
REMARK    8  A    between atoms: C_13  and  C_14 
REMARK    9  A    between atoms: C_15  and  C_16 
REMARK   10  A    between atoms: C_21  and  O_22 
ROOT
HETATM    1  N   UNL     1     -20.583  -4.194  -7.909  1.00  0.00    -0.357 N 
HETATM    2  C   UNL     1     -20.275  -5.277  -7.123  1.00  0.00     0.217 C 
HETATM    3  O   UNL     1     -19.818  -6.326  -7.570  1.00  0.00    -0.274 OA
HETATM    4  H   UNL     1     -21.019  -3.379  -7.498  1.00  0.00     0.162 HD
ENDROOT
BRANCH   1   5
HETATM    5  C   UNL     1     -20.390  -4.217  -9.340  1.00  0.00     0.161 C 
BRANCH   5   6
HETATM    6  C   UNL     1     -21.646  -3.845 -10.086  1.00  0.00    -0.038 A 
HETATM    7  C   UNL     1     -21.595  -3.480 -11.445  1.00  0.00     0.048 A 
HETATM    8  C   UNL     1     -22.764  -3.192 -12.160  1.00  0.00     0.101 A 
HETATM    9  C   UNL     1     -23.996  -3.275 -11.494  1.00  0.00     0.099 A 
HETATM   10  C   UNL     1     -24.064  -3.638 -10.150  1.00  0.00     0.040 A 
HETATM   11  C   UNL     1     -22.892  -3.922  -9.450  1.00  0.00     0.012 A 
BRANCH   8  12
HETATM   12  O   UNL     1     -22.814  -2.839 -13.483  1.00  0.00    -0.353 OA
HETATM   13  C   UNL     1     -22.581  -3.860 -14.442  1.00  0.00     0.210 C 
ENDBRANCH   8  12
BRANCH   9  14
HETATM   14  O   UNL     1     -25.152  -3.002 -12.179  1.00  0.00    -0.358 OA
HETATM   15  H   UNL     1     -25.787  -3.720 -12.031  1.00  0.00     0.217 HD
ENDBRANCH   9  14
ENDBRANCH   5   6
ENDBRANCH   1   5
BRANCH   2  16
HETATM   16  C   UNL     1     -20.573  -5.076  -5.651  1.00  0.00     0.103 C 
BRANCH  16  17
HETATM   17  C   UNL     1     -21.678  -6.008  -5.157  1.00  0.00     0.010 C 
BRANCH  17  18
HETATM   18  C   UNL     1     -21.213  -6.882  -3.987  1.00  0.00     0.004 C 
BRANCH  18  19
HETATM   19  C   UNL     1     -21.541  -6.227  -2.646  1.00  0.00     0.027 C 
BRANCH  19  20
HETATM   20  C   UNL     1     -21.652  -7.260  -1.562  1.00  0.00    -0.030 C 
HETATM   21  C   UNL     1     -22.554  -7.201  -0.570  1.00  0.00    -0.027 C 
BRANCH  21  22
HETATM   22  C   UNL     1     -22.666  -8.234   0.523  1.00  0.00    -0.001 C 
HETATM   23  C   UNL     1     -23.240  -9.534  -0.042  1.00  0.00     0.013 C 
HETATM   24  C   UNL     1     -21.299  -8.481   1.159  1.00  0.00     0.013 C 
ENDBRANCH  21  22
ENDBRANCH  19  20
ENDBRANCH  18  19
ENDBRANCH  17  18
ENDBRANCH  16  17
ENDBRANCH   2  16
TORSDOF 10
BEGIN_RES ARG D 557
REMARK  4 active torsions:
REMARK  status: ('A' for Active; 'I' for Inactive)
REMARK    1  A    between atoms: CA   and  CB  
REMARK    2  A    between atoms: CB   and  CG  
REMARK    3  A    between atoms: CG   and  CD  
REMARK    4  A    between atoms: CD   and  NE  
REMARK       I    between atoms: NE   and  CZ  
REMARK       I    between atoms: CZ   and  NH1 
REMARK       I    between atoms: CZ   and  NH2 
ROOT
ATOM      1  CA  ARG D 557     -26.217   2.705 -17.014  1.00 35.49     0.159 C 
ENDROOT
BRANCH   1   2
ATOM      2  CB  ARG D 557     -26.789   1.319 -17.183  1.00 35.49     0.034 C 
BRANCH   2   3
ATOM      3  CG  ARG D 557     -28.174   1.117 -16.741  1.00 35.49     0.027 C 
BRANCH   3   4
ATOM      4  CD  ARG D 557     -28.493  -0.311 -16.517  1.00 35.49     0.116 C 
BRANCH   4   5
ATOM      5  NE  ARG D 557     -27.459  -0.989 -15.781  1.00 35.49    -0.212 N 
ATOM      6  CZ  ARG D 557     -27.179  -2.271 -15.853  1.00 35.49     0.666 C 
ATOM      7  NH1 ARG D 557     -27.852  -3.102 -16.628  1.00 35.49    -0.235 N 
ATOM      8  NH2 ARG D 557     -26.191  -2.711 -15.129  1.00 35.49    -0.235 N 
ATOM      9  HH  ARG D 557     -28.504  -2.833 -17.114  1.00 35.49     0.174 HD
ATOM     10  HH  ARG D 557     -27.622  -3.927 -16.636  1.00 35.49     0.174 HD
ATOM     11  HH  ARG D 557     -25.769  -2.151 -14.644  1.00 35.49     0.174 HD
ATOM     12  HH  ARG D 557     -25.978  -3.532 -15.152  1.00 35.49     0.174 HD
ATOM     13  HE  ARG D 557     -27.022  -0.543 -15.203  1.00 35.49     0.178 HD
ENDBRANCH   4   5
ENDBRANCH   3   4
ENDBRANCH   2   3
ENDBRANCH   1   2
END_RES ARG D 557
BEGIN_RES GLU D 570
REMARK  3 active torsions:
REMARK  status: ('A' for Active; 'I' for Inactive)
REMARK    5  A    between atoms: CA   and  CB  
REMARK    6  A    between atoms: CB   and  CG  
REMARK    7  A    between atoms: CG   and  CD  
ROOT
ATOM     14  CA  GLU D 570     -18.033  -6.348 -13.375  1.00 32.92     0.160 C 
ENDROOT
BRANCH  14  15
ATOM     15  CB  GLU D 570     -19.500  -6.345 -13.794  1.00 32.92     0.043 C 
BRANCH  15  16
ATOM     16  CG  GLU D 570     -19.796  -6.285 -15.249  1.00 32.92     0.100 C 
BRANCH  16  17
ATOM     17  CD  GLU D 570     -20.831  -7.297 -15.682  1.00 32.92     0.185 C 
ATOM     18  OE1 GLU D 570     -21.914  -6.894 -16.148  1.00 32.92    -0.647 OA
ATOM     19  OE2 GLU D 570     -20.563  -8.506 -15.537  1.00 32.92    -0.647 OA
ENDBRANCH  16  17
ENDBRANCH  15  16
ENDBRANCH  14  15
END_RES GLU D 570
ENDMDL
MODEL 3
REMARK VINA RESULT:      -8.2      5.397      8.820
REMARK  10 active torsions:
REMARK  status: ('A' for Active; 'I' for Inactive)
REMARK    1  A    between atoms: O_2  and  C_3 
REMARK    2  A    between atoms: C_5  and  C_6 
REMARK    3  A    between atoms: C_6  and  N_7 
REMARK       I    between atoms: N_7  and  C_8 
REMARK    4  A    between atoms: C_8  and  C_10 
REMARK    5  A    between atoms: C_10  and  C_11 
REMARK    6  A    between atoms: C_11  and  C_12 
REMARK    7  A    between atoms: C_12  and  C_13 
REMARK    8  A    between atoms: C_13  and  C_14 
REMARK    9  A    between atoms: C_15  and  C_16 
REMARK   10  A    between atoms: C_21  and  O_22 
ROOT
HETATM    1  N   UNL     1     -26.463  -6.777 -15.631  1.00  0.00    -0.357 N 
HETATM    2  C   UNL     1     -25.316  -6.776 -16.385  1.00  0.00     0.217 C 
HETATM    3  O   UNL     1     -25.315  -6.692 -17.611  1.00  0.00    -0.274 OA
HETATM    4  H   UNL     1     -26.410  -6.914 -14.630  1.00  0.00     0.162 HD
ENDROOT
BRANCH   1   5
HETATM    5  C   UNL     1     -27.769  -6.681 -16.239  1.00  0.00     0.161 C 
BRANCH   5   6
HETATM    6  C   UNL     1     -28.144  -5.255 -16.555  1.00  0.00    -0.038 A 
HETATM    7  C   UNL     1     -29.367  -4.955 -17.184  1.00  0.00     0.048 A 
HETATM    8  C   UNL     1     -29.748  -3.629 -17.425  1.00  0.00     0.101 A 
HETATM    9  C   UNL     1     -28.884  -2.598 -17.026  1.00  0.00     0.099 A 
HETATM   10  C   UNL     1     -27.671  -2.879 -16.399  1.00  0.00     0.040 A 
HETATM   11  C   UNL     1     -27.304  -4.204 -16.165  1.00  0.00     0.012 A 
BRANCH   8  12
HETATM   12  O   UNL     1     -30.919  -3.240 -18.020  1.00  0.00    -0.353 OA
HETATM   13  C   UNL     1     -32.132  -3.702 -17.442  1.00  0.00     0.210 C 
ENDBRANCH   8  12
BRANCH   9  14
HETATM   14  O   UNL     1     -29.242  -1.294 -17.249  1.00  0.00    -0.358 OA
HETATM   15  H   UNL     1     -30.199  -1.200 -17.119  1.00  0.00     0.217 HD
ENDBRANCH   9  14
ENDBRANCH   5   6
ENDBRANCH   1   5
BRANCH   2  16
HETATM   16  C   UNL     1     -24.043  -6.912 -15.574  1.00  0.00     0.103 C 
BRANCH  16  17
HETATM   17  C   UNL     1     -23.597  -5.577 -14.979  1.00  0.00     0.010 C 
BRANCH  17  18
HETATM   18  C   UNL     1     -23.461  -5.644 -13.454  1.00  0.00     0.004 C 
BRANCH  18  19
HETATM   19  C   UNL     1     -22.306  -4.772 -12.965  1.00  0.00     0.027 C 
BRANCH  19  20
HETATM   20  C   UNL     1     -22.573  -4.261 -11.579  1.00  0.00    -0.030 C 
HETATM   21  C   UNL     1     -23.491  -4.791 -10.756  1.00  0.00    -0.027 C 
BRANCH  21  22
HETATM   22  C   UNL     1     -23.766  -4.278  -9.364  1.00  0.00    -0.001 C 
HETATM   23  C   UNL     1     -22.476  -3.742  -8.741  1.00  0.00     0.013 C 
HETATM   24  C   UNL     1     -24.837  -3.189  -9.403  1.00  0.00     0.013 C 
ENDBRANCH  21  22
ENDBRANCH  19  20
ENDBRANCH  18  19
ENDBRANCH  17  18
ENDBRANCH  16  17
ENDBRANCH   2  16
TORSDOF 10
BEGIN_RES ARG D 557
REMARK  4 active torsions:
REMARK  status: ('A' for Active; 'I' for Inactive)
REMARK    1  A    between atoms: CA   and  CB  
REMARK    2  A    between atoms: CB   and  CG  
REMARK    3  A    between atoms: CG   and  CD  
REMARK    4  A    between atoms: CD   and  NE  
REMARK       I    between atoms: NE   and  CZ  
REMARK       I    between atoms: CZ   and  NH1 
REMARK       I    between atoms: CZ   and  NH2 
ROOT
ATOM      1  CA  ARG D 557     -26.217   2.705 -17.014  1.00 35.49     0.159 C 
ENDROOT
BRANCH   1   2
ATOM      2  CB  ARG D 557     -26.789   1.319 -17.183  1.00 35.49     0.034 C 
BRANCH   2   3
ATOM      3  CG  ARG D 557     -25.831   0.207 -17.200  1.00 35.49     0.027 C 
BRANCH   3   4
ATOM      4  CD  ARG D 557     -24.772   0.358 -16.177  1.00 35.49     0.116 C 
BRANCH   4   5
ATOM      5  NE  ARG D 557     -24.998  -0.487 -15.034  1.00 35.49    -0.212 N 
ATOM      6  CZ  ARG D 557     -24.221  -1.471 -14.640  1.00 35.49     0.666 C 
ATOM      7  NH1 ARG D 557     -23.119  -1.806 -15.286  1.00 35.49    -0.235 N 
ATOM      8  NH2 ARG D 557     -24.570  -2.119 -13.567  1.00 35.49    -0.235 N 
ATOM      9  HH  ARG D 557     -22.869  -1.392 -15.993  1.00 35.49     0.174 HD
ATOM     10  HH  ARG D 557     -22.650  -2.455 -14.981  1.00 35.49     0.174 HD
ATOM     11  HH  ARG D 557     -25.282  -1.876 -13.166  1.00 35.49     0.174 HD
ATOM     12  HH  ARG D 557     -24.091  -2.758 -13.280  1.00 35.49     0.174 HD
ATOM     13  HE  ARG D 557     -25.724  -0.389 -14.601  1.00 35.49     0.178 HD
ENDBRANCH   4   5
ENDBRANCH   3   4
ENDBRANCH   2   3
ENDBRANCH   1   2
END_RES ARG D 557
BEGIN_RES GLU D 570
REMARK  3 active torsions:
REMARK  status: ('A' for Active; 'I' for Inactive)
REMARK    5  A    between atoms: CA   and  CB  
REMARK    6  A    between atoms: CB   and  CG  
REMARK    7  A    between atoms: CG   and  CD  
ROOT
ATOM     14  CA  GLU D 570     -18.033  -6.348 -13.375  1.00 32.92     0.160 C 
ENDROOT
BRANCH  14  15
ATOM     15  CB  GLU D 570     -19.500  -6.345 -13.794  1.00 32.92     0.043 C 
BRANCH  15  16
ATOM     16  CG  GLU D 570     -20.085  -7.633 -14.247  1.00 32.92     0.100 C 
BRANCH  16  17
ATOM     17  CD  GLU D 570     -20.505  -7.612 -15.698  1.00 32.92     0.185 C 
ATOM     18  OE1 GLU D 570     -20.562  -6.520 -16.296  1.00 32.92    -0.647 OA
ATOM     19  OE2 GLU D 570     -20.796  -8.697 -16.239  1.00 32.92    -0.647 OA
ENDBRANCH  16  17
ENDBRANCH  15  16
ENDBRANCH  14  15
END_RES GLU D 570
ENDMDL
MODEL 4
REMARK VINA RESULT:      -7.8      4.802      8.591
REMARK  10 active torsions:
REMARK  status: ('A' for Active; 'I' for Inactive)
REMARK    1  A    between atoms: O_2  and  C_3 
REMARK    2  A    between atoms: C_5  and  C_6 
REMARK    3  A    between atoms: C_6  and  N_7 
REMARK       I    between atoms: N_7  and  C_8 
REMARK    4  A    between atoms: C_8  and  C_10 
REMARK    5  A    between atoms: C_10  and  C_11 
REMARK    6  A    between atoms: C_11  and  C_12 
REMARK    7  A    between atoms: C_12  and  C_13 
REMARK    8  A    between atoms: C_13  and  C_14 
REMARK    9  A    between atoms: C_15  and  C_16 
REMARK   10  A    between atoms: C_21  and  O_22 
ROOT
HETATM    1  N   UNL     1     -26.289  -5.606 -16.064  1.00  0.00    -0.357 N 
HETATM    2  C   UNL     1     -25.249  -6.212 -15.403  1.00  0.00     0.217 C 
HETATM    3  O   UNL     1     -25.139  -7.430 -15.290  1.00  0.00    -0.274 OA
HETATM    4  H   UNL     1     -26.366  -4.598 -16.070  1.00  0.00     0.162 HD
ENDROOT
BRANCH   1   5
HETATM    5  C   UNL     1     -27.345  -6.376 -16.679  1.00  0.00     0.161 C 
BRANCH   5   6
HETATM    6  C   UNL     1     -28.607  -5.569 -16.850  1.00  0.00    -0.038 A 
HETATM    7  C   UNL     1     -28.549  -4.181 -17.076  1.00  0.00     0.048 A 
HETATM    8  C   UNL     1     -29.715  -3.436 -17.295  1.00  0.00     0.101 A 
HETATM    9  C   UNL     1     -30.949  -4.102 -17.287  1.00  0.00     0.099 A 
HETATM   10  C   UNL     1     -31.023  -5.477 -17.068  1.00  0.00     0.040 A 
HETATM   11  C   UNL     1     -29.855  -6.206 -16.851  1.00  0.00     0.012 A 
BRANCH   8  12
HETATM   12  O   UNL     1     -29.757  -2.087 -17.533  1.00  0.00    -0.353 OA
HETATM   13  C   UNL     1     -28.801  -1.275 -16.867  1.00  0.00     0.210 C 
ENDBRANCH   8  12
BRANCH   9  14
HETATM   14  O   UNL     1     -32.100  -3.390 -17.505  1.00  0.00    -0.358 OA
HETATM   15  H   UNL     1     -31.964  -2.471 -17.226  1.00  0.00     0.217 HD
ENDBRANCH   9  14
ENDBRANCH   5   6
ENDBRANCH   1   5
BRANCH   2  16
HETATM   16  C   UNL     1     -24.254  -5.241 -14.798  1.00  0.00     0.103 C 
BRANCH  16  17
HETATM   17  C   UNL     1     -23.406  -5.894 -13.707  1.00  0.00     0.010 C 
BRANCH  17  18
HETATM   18  C   UNL     1     -23.430  -5.091 -12.403  1.00  0.00     0.004 C 
BRANCH  18  19
HETATM   19  C   UNL     1     -22.079  -4.429 -12.139  1.00  0.00     0.027 C 
BRANCH  19  20
HETATM   20  C   UNL     1     -21.953  -4.030 -10.697  1.00  0.00    -0.030 C 
HETATM   21  C   UNL     1     -20.877  -4.301  -9.941  1.00  0.00    -0.027 C 
BRANCH  21  22
HETATM   22  C   UNL     1     -20.749  -3.905  -8.492  1.00  0.00    -0.001 C 
HETATM   23  C   UNL     1     -22.051  -4.210  -7.750  1.00  0.00     0.013 C 
HETATM   24  C   UNL     1     -19.576  -4.640  -7.845  1.00  0.00     0.013 C 
ENDBRANCH  21  22
ENDBRANCH  19  20
ENDBRANCH  18  19
ENDBRANCH  17  18
ENDBRANCH  16  17
ENDBRANCH   2  16
TORSDOF 10
BEGIN_RES ARG D 557
REMARK  4 active torsions:
REMARK  status: ('A' for Active; 'I' for Inactive)
REMARK    1  A    between atoms: CA   and  CB  
REMARK    2  A    between atoms: CB   and  CG  
REMARK    3  A    between atoms: CG   and  CD  
REMARK    4  A    between atoms: CD   and  NE  
REMARK       I    between atoms: NE   and  CZ  
REMARK       I    between atoms: CZ   and  NH1 
REMARK       I    between atoms: CZ   and  NH2 
ROOT
ATOM      1  CA  ARG D 557     -26.217   2.705 -17.014  1.00 35.49     0.159 C 
ENDROOT
BRANCH   1   2
ATOM      2  CB  ARG D 557     -26.789   1.319 -17.183  1.00 35.49     0.034 C 
BRANCH   2   3
ATOM      3  CG  ARG D 557     -25.834   0.204 -17.173  1.00 35.49     0.027 C 
BRANCH   3   4
ATOM      4  CD  ARG D 557     -24.704   0.437 -16.245  1.00 35.49     0.116 C 
BRANCH   4   5
ATOM      5  NE  ARG D 557     -24.811  -0.358 -15.050  1.00 35.49    -0.212 N 
ATOM      6  CZ  ARG D 557     -23.999  -1.329 -14.699  1.00 35.49     0.666 C 
ATOM      7  NH1 ARG D 557     -22.971  -1.698 -15.441  1.00 35.49    -0.235 N 
ATOM      8  NH2 ARG D 557     -24.235  -1.930 -13.568  1.00 35.49    -0.235 N 
ATOM      9  HH  ARG D 557     -22.796  -1.315 -16.187  1.00 35.49     0.174 HD
ATOM     10  HH  ARG D 557     -22.474  -2.337 -15.159  1.00 35.49     0.174 HD
ATOM     11  HH  ARG D 557     -24.902  -1.666 -13.106  1.00 35.49     0.174 HD
ATOM     12  HH  ARG D 557     -23.731  -2.559 -13.306  1.00 35.49     0.174 HD
ATOM     13  HE  ARG D 557     -25.488  -0.236 -14.549  1.00 35.49     0.178 HD
ENDBRANCH   4   5
ENDBRANCH   3   4
ENDBRANCH   2   3
ENDBRANCH   1   2
END_RES ARG D 557
BEGIN_RES GLU D 570
REMARK  3 active torsions:
REMARK  status: ('A' for Active; 'I' for Inactive)
REMARK    5  A    between atoms: CA   and  CB  
REMARK    6  A    between atoms: CB   and  CG  
REMARK    7  A    between atoms: CG   and  CD  
ROOT
ATOM     14  CA  GLU D 570     -18.033  -6.348 -13.375  1.00 32.92     0.160 C 
ENDROOT
BRANCH  14  15
ATOM     15  CB  GLU D 570     -19.500  -6.345 -13.794  1.00 32.92     0.043 C 
BRANCH  15  16
ATOM     16  CG  GLU D 570     -19.799  -6.160 -15.238  1.00 32.92     0.100 C 
BRANCH  16  17
ATOM     17  CD  GLU D 570     -20.675  -7.255 -15.802  1.00 32.92     0.185 C 
ATOM     18  OE1 GLU D 570     -20.629  -8.390 -15.292  1.00 32.92    -0.647 OA
ATOM     19  OE2 GLU D 570     -21.402  -6.977 -16.777  1.00 32.92    -0.647 OA
ENDBRANCH  16  17
ENDBRANCH  15  16
ENDBRANCH  14  15
END_RES GLU D 570
ENDMDL
MODEL 5
REMARK VINA RESULT:      -7.6      2.796      8.277
REMARK  10 active torsions:
REMARK  status: ('A' for Active; 'I' for Inactive)
REMARK    1  A    between atoms: O_2  and  C_3 
REMARK    2  A    between atoms: C_5  and  C_6 
REMARK    3  A    between atoms: C_6  and  N_7 
REMARK       I    between atoms: N_7  and  C_8 
REMARK    4  A    between atoms: C_8  and  C_10 
REMARK    5  A    between atoms: C_10  and  C_11 
REMARK    6  A    between atoms: C_11  and  C_12 
REMARK    7  A    between atoms: C_12  and  C_13 
REMARK    8  A    between atoms: C_13  and  C_14 
REMARK    9  A    between atoms: C_15  and  C_16 
REMARK   10  A    between atoms: C_21  and  O_22 
ROOT
HETATM    1  N   UNL     1     -21.220  -6.143  -3.359  1.00  0.00    -0.357 N 
HETATM    2  C   UNL     1     -21.673  -6.160  -4.655  1.00  0.00     0.217 C 
HETATM    3  O   UNL     1     -22.860  -6.260  -4.954  1.00  0.00    -0.274 OA
HETATM    4  H   UNL     1     -20.227  -6.126  -3.170  1.00  0.00     0.162 HD
ENDROOT
BRANCH   1   5
HETATM    5  C   UNL     1     -22.127  -6.247  -2.240  1.00  0.00     0.161 C 
BRANCH   5   6
HETATM    6  C   UNL     1     -21.815  -7.437  -1.367  1.00  0.00    -0.038 A 
HETATM    7  C   UNL     1     -21.042  -8.507  -1.858  1.00  0.00     0.048 A 
HETATM    8  C   UNL     1     -20.698  -9.585  -1.034  1.00  0.00     0.101 A 
HETATM    9  C   UNL     1     -21.137  -9.581   0.298  1.00  0.00     0.099 A 
HETATM   10  C   UNL     1     -21.900  -8.528   0.800  1.00  0.00     0.040 A 
HETATM   11  C   UNL     1     -22.236  -7.460  -0.031  1.00  0.00     0.012 A 
BRANCH   8  12
HETATM   12  O   UNL     1     -19.944 -10.663  -1.419  1.00  0.00    -0.353 OA
HETATM   13  C   UNL     1     -18.803 -10.409  -2.227  1.00  0.00     0.210 C 
ENDBRANCH   8  12
BRANCH   9  14
HETATM   14  O   UNL     1     -20.805 -10.626   1.120  1.00  0.00    -0.358 OA
HETATM   15  H   UNL     1     -20.151 -11.187   0.675  1.00  0.00     0.217 HD
ENDBRANCH   9  14
ENDBRANCH   5   6
ENDBRANCH   1   5
BRANCH   2  16
HETATM   16  C   UNL     1     -20.572  -6.070  -5.694  1.00  0.00     0.103 C 
BRANCH  16  17
HETATM   17  C   UNL     1     -20.017  -4.651  -5.819  1.00  0.00     0.010 C 
BRANCH  17  18
HETATM   18  C   UNL     1     -19.936  -4.192  -7.277  1.00  0.00     0.004 C 
BRANCH  18  19
HETATM   19  C   UNL     1     -20.447  -5.275  -8.226  1.00  0.00     0.027 C 
BRANCH  19  20
HETATM   20  C   UNL     1     -20.932  -4.672  -9.512  1.00  0.00    -0.030 C 
HETATM   21  C   UNL     1     -22.228  -4.481  -9.802  1.00  0.00    -0.027 C 
BRANCH  21  22
HETATM   22  C   UNL     1     -22.718  -3.880 -11.096  1.00  0.00    -0.001 C 
HETATM   23  C   UNL     1     -24.103  -3.263 -10.894  1.00  0.00     0.013 C 
HETATM   24  C   UNL     1     -21.729  -2.829 -11.599  1.00  0.00     0.013 C 
ENDBRANCH  21  22
ENDBRANCH  19  20
ENDBRANCH  18  19
ENDBRANCH  17  18
ENDBRANCH  16  17
ENDBRANCH   2  16
TORSDOF 10
BEGIN_RES ARG D 557
REMARK  4 active torsions:
REMARK  status: ('A' for Active; 'I' for Inactive)
REMARK    1  A    between atoms: CA   and  CB  
REMARK    2  A    between atoms: CB   and  CG  
REMARK    3  A    between atoms: CG   and  CD  
REMARK    4  A    between atoms: CD   and  NE  
REMARK       I    between atoms: NE   and  CZ  
REMARK       I    between atoms: CZ   and  NH1 
REMARK       I    between atoms: CZ   and  NH2 
ROOT
ATOM      1  CA  ARG D 557     -26.217   2.705 -17.014  1.00 35.49     0.159 C 
ENDROOT
BRANCH   1   2
ATOM      2  CB  ARG D 557     -26.789   1.319 -17.183  1.00 35.49     0.034 C 
BRANCH   2   3
ATOM      3  CG  ARG D 557     -28.230   1.166 -16.951  1.00 35.49     0.027 C 
BRANCH   3   4
ATOM      4  CD  ARG D 557     -28.610  -0.236 -16.663  1.00 35.49     0.116 C 
BRANCH   4   5
ATOM      5  NE  ARG D 557     -27.582  -0.939 -15.943  1.00 35.49    -0.212 N 
ATOM      6  CZ  ARG D 557     -27.343  -2.230 -16.011  1.00 35.49     0.666 C 
ATOM      7  NH1 ARG D 557     -28.057  -3.045 -16.764  1.00 35.49    -0.235 N 
ATOM      8  NH2 ARG D 557     -26.354  -2.695 -15.303  1.00 35.49    -0.235 N 
ATOM      9  HH  ARG D 557     -28.711  -2.760 -17.239  1.00 35.49     0.174 HD
ATOM     10  HH  ARG D 557     -27.853  -3.877 -16.770  1.00 35.49     0.174 HD
ATOM     11  HH  ARG D 557     -25.905  -2.144 -14.832  1.00 35.49     0.174 HD
ATOM     12  HH  ARG D 557     -26.167  -3.522 -15.324  1.00 35.49     0.174 HD
ATOM     13  HE  ARG D 557     -27.120  -0.503 -15.378  1.00 35.49     0.178 HD
ENDBRANCH   4   5
ENDBRANCH   3   4
ENDBRANCH   2   3
ENDBRANCH   1   2
END_RES ARG D 557
BEGIN_RES GLU D 570
REMARK  3 active torsions:
REMARK  status: ('A' for Active; 'I' for Inactive)
REMARK    5  A    between atoms: CA   and  CB  
REMARK    6  A    between atoms: CB   and  CG  
REMARK    7  A    between atoms: CG   and  CD  
ROOT
ATOM     14  CA  GLU D 570     -18.033  -6.348 -13.375  1.00 32.92     0.160 C 
ENDROOT
BRANCH  14  15
ATOM     15  CB  GLU D 570     -19.500  -6.345 -13.794  1.00 32.92     0.043 C 
BRANCH  15  16
ATOM     16  CG  GLU D 570     -19.805  -6.042 -15.216  1.00 32.92     0.100 C 
BRANCH  16  17
ATOM     17  CD  GLU D 570     -21.135  -5.349 -15.399  1.00 32.92     0.185 C 
ATOM     18  OE1 GLU D 570     -21.820  -5.080 -14.394  1.00 32.92    -0.647 OA
ATOM     19  OE2 GLU D 570     -21.503  -5.087 -16.561  1.00 32.92    -0.647 OA
ENDBRANCH  16  17
ENDBRANCH  15  16
ENDBRANCH  14  15
END_RES GLU D 570
ENDMDL
MODEL 6
REMARK VINA RESULT:      -7.6      2.614      7.967
REMARK  10 active torsions:
REMARK  status: ('A' for Active; 'I' for Inactive)
REMARK    1  A    between atoms: O_2  and  C_3 
REMARK    2  A    between atoms: C_5  and  C_6 
REMARK    3  A    between atoms: C_6  and  N_7 
REMARK       I    between atoms: N_7  and  C_8 
REMARK    4  A    between atoms: C_8  and  C_10 
REMARK    5  A    between atoms: C_10  and  C_11 
REMARK    6  A    between atoms: C_11  and  C_12 
REMARK    7  A    between atoms: C_12  and  C_13 
REMARK    8  A    between atoms: C_13  and  C_14 
REMARK    9  A    between atoms: C_15  and  C_16 
REMARK   10  A    between atoms: C_21  and  O_22 
ROOT
HETATM    1  N   UNL     1     -21.197  -6.002  -3.296  1.00  0.00    -0.357 N 
HETATM    2  C   UNL     1     -21.425  -5.876  -4.644  1.00  0.00     0.217 C 
HETATM    3  O   UNL     1     -22.531  -6.024  -5.158  1.00  0.00    -0.274 OA
HETATM    4  H   UNL     1     -20.255  -5.935  -2.934  1.00  0.00     0.162 HD
ENDROOT
BRANCH   1   5
HETATM    5  C   UNL     1     -22.262  -6.326  -2.375  1.00  0.00     0.161 C 
BRANCH   5   6
HETATM    6  C   UNL     1     -21.888  -7.461  -1.455  1.00  0.00    -0.038 A 
HETATM    7  C   UNL     1     -21.129  -8.549  -1.926  1.00  0.00     0.048 A 
HETATM    8  C   UNL     1     -20.727  -9.575  -1.063  1.00  0.00     0.101 A 
HETATM    9  C   UNL     1     -21.095  -9.500   0.289  1.00  0.00     0.099 A 
HETATM   10  C   UNL     1     -21.843  -8.427   0.771  1.00  0.00     0.040 A 
HETATM   11  C   UNL     1     -22.237  -7.412  -0.099  1.00  0.00     0.012 A 
BRANCH   8  12
HETATM   12  O   UNL     1     -19.981 -10.666  -1.426  1.00  0.00    -0.353 OA
HETATM   13  C   UNL     1     -18.803 -10.430  -2.183  1.00  0.00     0.210 C 
ENDBRANCH   8  12
BRANCH   9  14
HETATM   14  O   UNL     1     -20.706 -10.493   1.150  1.00  0.00    -0.358 OA
HETATM   15  H   UNL     1     -19.971 -10.987   0.755  1.00  0.00     0.217 HD
ENDBRANCH   9  14
ENDBRANCH   5   6
ENDBRANCH   1   5
BRANCH   2  16
HETATM   16  C   UNL     1     -20.182  -5.561  -5.453  1.00  0.00     0.103 C 
BRANCH  16  17
HETATM   17  C   UNL     1     -20.294  -6.060  -6.893  1.00  0.00     0.010 C 
BRANCH  17  18
HETATM   18  C   UNL     1     -19.752  -5.040  -7.899  1.00  0.00     0.004 C 
BRANCH  18  19
HETATM   19  C   UNL     1     -20.650  -3.806  -7.970  1.00  0.00     0.027 C 
BRANCH  19  20
HETATM   20  C   UNL     1     -21.802  -4.037  -8.905  1.00  0.00    -0.030 C 
HETATM   21  C   UNL     1     -23.071  -4.189  -8.497  1.00  0.00    -0.027 C 
BRANCH  21  22
HETATM   22  C   UNL     1     -24.230  -4.426  -9.432  1.00  0.00    -0.001 C 
HETATM   23  C   UNL     1     -24.965  -3.113  -9.697  1.00  0.00     0.013 C 
HETATM   24  C   UNL     1     -23.736  -5.040 -10.741  1.00  0.00     0.013 C 
ENDBRANCH  21  22
ENDBRANCH  19  20
ENDBRANCH  18  19
ENDBRANCH  17  18
ENDBRANCH  16  17
ENDBRANCH   2  16
TORSDOF 10
BEGIN_RES ARG D 557
REMARK  4 active torsions:
REMARK  status: ('A' for Active; 'I' for Inactive)
REMARK    1  A    between atoms: CA   and  CB  
REMARK    2  A    between atoms: CB   and  CG  
REMARK    3  A    between atoms: CG   and  CD  
REMARK    4  A    between atoms: CD   and  NE  
REMARK       I    between atoms: NE   and  CZ  
REMARK       I    between atoms: CZ   and  NH1 
REMARK       I    between atoms: CZ   and  NH2 
ROOT
ATOM      1  CA  ARG D 557     -26.217   2.705 -17.014  1.00 35.49     0.159 C 
ENDROOT
BRANCH   1   2
ATOM      2  CB  ARG D 557     -26.789   1.319 -17.183  1.00 35.49     0.034 C 
BRANCH   2   3
ATOM      3  CG  ARG D 557     -25.928   0.197 -16.790  1.00 35.49     0.027 C 
BRANCH   3   4
ATOM      4  CD  ARG D 557     -26.673  -0.858 -16.064  1.00 35.49     0.116 C 
BRANCH   4   5
ATOM      5  NE  ARG D 557     -25.913  -1.404 -14.971  1.00 35.49    -0.212 N 
ATOM      6  CZ  ARG D 557     -25.885  -2.667 -14.610  1.00 35.49     0.666 C 
ATOM      7  NH1 ARG D 557     -26.589  -3.597 -15.229  1.00 35.49    -0.235 N 
ATOM      8  NH2 ARG D 557     -25.122  -2.988 -13.606  1.00 35.49    -0.235 N 
ATOM      9  HH  ARG D 557     -27.096  -3.409 -15.893  1.00 35.49     0.174 HD
ATOM     10  HH  ARG D 557     -26.529  -4.405 -14.950  1.00 35.49     0.174 HD
ATOM     11  HH  ARG D 557     -24.673  -2.367 -13.230  1.00 35.49     0.174 HD
ATOM     12  HH  ARG D 557     -25.075  -3.794 -13.346  1.00 35.49     0.174 HD
ATOM     13  HE  ARG D 557     -25.487  -0.863 -14.471  1.00 35.49     0.178 HD
ENDBRANCH   4   5
ENDBRANCH   3   4
ENDBRANCH   2   3
ENDBRANCH   1   2
END_RES ARG D 557
BEGIN_RES GLU D 570
REMARK  3 active torsions:
REMARK  status: ('A' for Active; 'I' for Inactive)
REMARK    5  A    between atoms: CA   and  CB  
REMARK    6  A    between atoms: CB   and  CG  
REMARK    7  A    between atoms: CG   and  CD  
ROOT
ATOM     14  CA  GLU D 570     -18.033  -6.348 -13.375  1.00 32.92     0.160 C 
ENDROOT
BRANCH  14  15
ATOM     15  CB  GLU D 570     -19.500  -6.345 -13.794  1.00 32.92     0.043 C 
BRANCH  15  16
ATOM     16  CG  GLU D 570     -20.428  -5.470 -13.032  1.00 32.92     0.100 C 
BRANCH  16  17
ATOM     17  CD  GLU D 570     -21.730  -5.220 -13.755  1.00 32.92     0.185 C 
ATOM     18  OE1 GLU D 570     -22.220  -4.074 -13.741  1.00 32.92    -0.647 OA
ATOM     19  OE2 GLU D 570     -22.275  -6.183 -14.329  1.00 32.92    -0.647 OA
ENDBRANCH  16  17
ENDBRANCH  15  16
ENDBRANCH  14  15
END_RES GLU D 570
ENDMDL
MODEL 7
REMARK VINA RESULT:      -7.3      2.922      8.492
REMARK  10 active torsions:
REMARK  status: ('A' for Active; 'I' for Inactive)
REMARK    1  A    between atoms: O_2  and  C_3 
REMARK    2  A    between atoms: C_5  and  C_6 
REMARK    3  A    between atoms: C_6  and  N_7 
REMARK       I    between atoms: N_7  and  C_8 
REMARK    4  A    between atoms: C_8  and  C_10 
REMARK    5  A    between atoms: C_10  and  C_11 
REMARK    6  A    between atoms: C_11  and  C_12 
REMARK    7  A    between atoms: C_12  and  C_13 
REMARK    8  A    between atoms: C_13  and  C_14 
REMARK    9  A    between atoms: C_15  and  C_16 
REMARK   10  A    between atoms: C_21  and  O_22 
ROOT
HETATM    1  N   UNL     1     -20.646  -6.486  -4.646  1.00  0.00    -0.357 N 
HETATM    2  C   UNL     1     -20.543  -6.115  -5.964  1.00  0.00     0.217 C 
HETATM    3  O   UNL     1     -20.847  -6.853  -6.898  1.00  0.00    -0.274 OA
HETATM    4  H   UNL     1     -20.320  -5.863  -3.918  1.00  0.00     0.162 HD
ENDROOT
BRANCH   1   5
HETATM    5  C   UNL     1     -21.124  -7.794  -4.262  1.00  0.00     0.161 C 
BRANCH   5   6
HETATM    6  C   UNL     1     -21.473  -7.862  -2.797  1.00  0.00    -0.038 A 
HETATM    7  C   UNL     1     -21.203  -9.021  -2.046  1.00  0.00     0.048 A 
HETATM    8  C   UNL     1     -21.468  -9.069  -0.672  1.00  0.00     0.101 A 
HETATM    9  C   UNL     1     -22.011  -7.933  -0.052  1.00  0.00     0.099 A 
HETATM   10  C   UNL     1     -22.281  -6.776  -0.781  1.00  0.00     0.040 A 
HETATM   11  C   UNL     1     -22.011  -6.742  -2.149  1.00  0.00     0.012 A 
BRANCH   8  12
HETATM   12  O   UNL     1     -21.231 -10.146   0.142  1.00  0.00    -0.353 OA
HETATM   13  C   UNL     1     -20.160 -11.009  -0.211  1.00  0.00     0.210 C 
ENDBRANCH   8  12
BRANCH   9  14
HETATM   14  O   UNL     1     -22.273  -7.959   1.293  1.00  0.00    -0.358 OA
HETATM   15  H   UNL     1     -22.254  -8.878   1.603  1.00  0.00     0.217 HD
ENDBRANCH   9  14
ENDBRANCH   5   6
ENDBRANCH   1   5
BRANCH   2  16
HETATM   16  C   UNL     1     -19.996  -4.717  -6.170  1.00  0.00     0.103 C 
BRANCH  16  17
HETATM   17  C   UNL     1     -20.732  -3.972  -7.283  1.00  0.00     0.010 C 
BRANCH  17  18
HETATM   18  C   UNL     1     -19.844  -3.750  -8.511  1.00  0.00     0.004 C 
BRANCH  18  19
HETATM   19  C   UNL     1     -20.309  -4.605  -9.689  1.00  0.00     0.027 C 
BRANCH  19  20
HETATM   20  C   UNL     1     -21.542  -4.024 -10.317  1.00  0.00    -0.030 C 
HETATM   21  C   UNL     1     -21.528  -3.282 -11.435  1.00  0.00    -0.027 C 
BRANCH  21  22
HETATM   22  C   UNL     1     -22.765  -2.693 -12.066  1.00  0.00    -0.001 C 
HETATM   23  C   UNL     1     -22.826  -3.069 -13.547  1.00  0.00     0.013 C 
HETATM   24  C   UNL     1     -24.015  -3.181 -11.335  1.00  0.00     0.013 C 
ENDBRANCH  21  22
ENDBRANCH  19  20
ENDBRANCH  18  19
ENDBRANCH  17  18
ENDBRANCH  16  17
ENDBRANCH   2  16
TORSDOF 10
BEGIN_RES ARG D 557
REMARK  4 active torsions:
REMARK  status: ('A' for Active; 'I' for Inactive)
REMARK    1  A    between atoms: CA   and  CB  
REMARK    2  A    between atoms: CB   and  CG  
REMARK    3  A    between atoms: CG   and  CD  
REMARK    4  A    between atoms: CD   and  NE  
REMARK       I    between atoms: NE   and  CZ  
REMARK       I    between atoms: CZ   and  NH1 
REMARK       I    between atoms: CZ   and  NH2 
ROOT
ATOM      1  CA  ARG D 557     -26.217   2.705 -17.014  1.00 35.49     0.159 C 
ENDROOT
BRANCH   1   2
ATOM      2  CB  ARG D 557     -26.789   1.319 -17.183  1.00 35.49     0.034 C 
BRANCH   2   3
ATOM      3  CG  ARG D 557     -28.185   1.126 -16.772  1.00 35.49     0.027 C 
BRANCH   3   4
ATOM      4  CD  ARG D 557     -28.717  -0.193 -17.185  1.00 35.49     0.116 C 
BRANCH   4   5
ATOM      5  NE  ARG D 557     -27.989  -1.282 -16.590  1.00 35.49    -0.212 N 
ATOM      6  CZ  ARG D 557     -28.236  -2.561 -16.771  1.00 35.49     0.666 C 
ATOM      7  NH1 ARG D 557     -29.223  -2.991 -17.534  1.00 35.49    -0.235 N 
ATOM      8  NH2 ARG D 557     -27.459  -3.413 -16.168  1.00 35.49    -0.235 N 
ATOM      9  HH  ARG D 557     -29.746  -2.448 -17.942  1.00 35.49     0.174 HD
ATOM     10  HH  ARG D 557     -29.335  -3.837 -17.617  1.00 35.49     0.174 HD
ATOM     11  HH  ARG D 557     -26.825  -3.106 -15.687  1.00 35.49     0.174 HD
ATOM     12  HH  ARG D 557     -27.585  -4.246 -16.264  1.00 35.49     0.174 HD
ATOM     13  HE  ARG D 557     -27.381  -1.096 -16.026  1.00 35.49     0.178 HD
ENDBRANCH   4   5
ENDBRANCH   3   4
ENDBRANCH   2   3
ENDBRANCH   1   2
END_RES ARG D 557
BEGIN_RES GLU D 570
REMARK  3 active torsions:
REMARK  status: ('A' for Active; 'I' for Inactive)
REMARK    5  A    between atoms: CA   and  CB  
REMARK    6  A    between atoms: CB   and  CG  
REMARK    7  A    between atoms: CG   and  CD  
ROOT
ATOM     14  CA  GLU D 570     -18.033  -6.348 -13.375  1.00 32.92     0.160 C 
ENDROOT
BRANCH  14  15
ATOM     15  CB  GLU D 570     -19.500  -6.345 -13.794  1.00 32.92     0.043 C 
BRANCH  15  16
ATOM     16  CG  GLU D 570     -19.797  -6.235 -15.246  1.00 32.92     0.100 C 
BRANCH  16  17
ATOM     17  CD  GLU D 570     -20.798  -7.262 -15.722  1.00 32.92     0.185 C 
ATOM     18  OE1 GLU D 570     -20.569  -8.470 -15.519  1.00 32.92    -0.647 OA
ATOM     19  OE2 GLU D 570     -21.814  -6.855 -16.319  1.00 32.92    -0.647 OA
ENDBRANCH  16  17
ENDBRANCH  15  16
ENDBRANCH  14  15
END_RES GLU D 570
ENDMDL
MODEL 8
REMARK VINA RESULT:      -7.1      4.490      9.642
REMARK  10 active torsions:
REMARK  status: ('A' for Active; 'I' for Inactive)
REMARK    1  A    between atoms: O_2  and  C_3 
REMARK    2  A    between atoms: C_5  and  C_6 
REMARK    3  A    between atoms: C_6  and  N_7 
REMARK       I    between atoms: N_7  and  C_8 
REMARK    4  A    between atoms: C_8  and  C_10 
REMARK    5  A    between atoms: C_10  and  C_11 
REMARK    6  A    between atoms: C_11  and  C_12 
REMARK    7  A    between atoms: C_12  and  C_13 
REMARK    8  A    between atoms: C_13  and  C_14 
REMARK    9  A    between atoms: C_15  and  C_16 
REMARK   10  A    between atoms: C_21  and  O_22 
ROOT
HETATM    1  N   UNL     1     -22.871  -5.370 -13.156  1.00  0.00    -0.357 N 
HETATM    2  C   UNL     1     -23.160  -5.130 -14.477  1.00  0.00     0.217 C 
HETATM    3  O   UNL     1     -22.781  -4.129 -15.079  1.00  0.00    -0.274 OA
HETATM    4  H   UNL     1     -23.264  -6.177 -12.691  1.00  0.00     0.162 HD
ENDROOT
BRANCH   1   5
HETATM    5  C   UNL     1     -22.090  -4.442 -12.372  1.00  0.00     0.161 C 
BRANCH   5   6
HETATM    6  C   UNL     1     -22.527  -4.413 -10.929  1.00  0.00    -0.038 A 
HETATM    7  C   UNL     1     -21.581  -4.305  -9.892  1.00  0.00     0.048 A 
HETATM    8  C   UNL     1     -21.984  -4.216  -8.554  1.00  0.00     0.101 A 
HETATM    9  C   UNL     1     -23.356  -4.235  -8.262  1.00  0.00     0.099 A 
HETATM   10  C   UNL     1     -24.305  -4.338  -9.278  1.00  0.00     0.040 A 
HETATM   11  C   UNL     1     -23.890  -4.426 -10.606  1.00  0.00     0.012 A 
BRANCH   8  12
HETATM   12  O   UNL     1     -21.140  -4.099  -7.481  1.00  0.00    -0.353 OA
HETATM   13  C   UNL     1     -19.757  -4.328  -7.709  1.00  0.00     0.210 C 
ENDBRANCH   8  12
BRANCH   9  14
HETATM   14  O   UNL     1     -23.770  -4.144  -6.959  1.00  0.00    -0.358 OA
HETATM   15  H   UNL     1     -23.281  -3.431  -6.519  1.00  0.00     0.217 HD
ENDBRANCH   9  14
ENDBRANCH   5   6
ENDBRANCH   1   5
BRANCH   2  16
HETATM   16  C   UNL     1     -24.015  -6.201 -15.125  1.00  0.00     0.103 C 
BRANCH  16  17
HETATM   17  C   UNL     1     -25.448  -5.726 -15.362  1.00  0.00     0.010 C 
BRANCH  17  18
HETATM   18  C   UNL     1     -26.264  -6.741 -16.167  1.00  0.00     0.004 C 
BRANCH  18  19
HETATM   19  C   UNL     1     -26.239  -6.410 -17.659  1.00  0.00     0.027 C 
BRANCH  19  20
HETATM   20  C   UNL     1     -27.614  -6.066 -18.152  1.00  0.00    -0.030 C 
HETATM   21  C   UNL     1     -28.584  -5.572 -17.367  1.00  0.00    -0.027 C 
BRANCH  21  22
HETATM   22  C   UNL     1     -29.968  -5.229 -17.858  1.00  0.00    -0.001 C 
HETATM   23  C   UNL     1     -30.996  -6.164 -17.220  1.00  0.00     0.013 C 
HETATM   24  C   UNL     1     -30.296  -3.771 -17.538  1.00  0.00     0.013 C 
ENDBRANCH  21  22
ENDBRANCH  19  20
ENDBRANCH  18  19
ENDBRANCH  17  18
ENDBRANCH  16  17
ENDBRANCH   2  16
TORSDOF 10
BEGIN_RES ARG D 557
REMARK  4 active torsions:
REMARK  status: ('A' for Active; 'I' for Inactive)
REMARK    1  A    between atoms: CA   and  CB  
REMARK    2  A    between atoms: CB   and  CG  
REMARK    3  A    between atoms: CG   and  CD  
REMARK    4  A    between atoms: CD   and  NE  
REMARK       I    between atoms: NE   and  CZ  
REMARK       I    between atoms: CZ   and  NH1 
REMARK       I    between atoms: CZ   and  NH2 
ROOT
ATOM      1  CA  ARG D 557     -26.217   2.705 -17.014  1.00 35.49     0.159 C 
ENDROOT
BRANCH   1   2
ATOM      2  CB  ARG D 557     -26.789   1.319 -17.183  1.00 35.49     0.034 C 
BRANCH   2   3
ATOM      3  CG  ARG D 557     -26.950   0.517 -15.964  1.00 35.49     0.027 C 
BRANCH   3   4
ATOM      4  CD  ARG D 557     -26.756  -0.930 -16.210  1.00 35.49     0.116 C 
BRANCH   4   5
ATOM      5  NE  ARG D 557     -26.145  -1.594 -15.089  1.00 35.49    -0.212 N 
ATOM      6  CZ  ARG D 557     -24.920  -1.397 -14.655  1.00 35.49     0.666 C 
ATOM      7  NH1 ARG D 557     -24.091  -0.548 -15.233  1.00 35.49    -0.235 N 
ATOM      8  NH2 ARG D 557     -24.538  -2.072 -13.610  1.00 35.49    -0.235 N 
ATOM      9  HH  ARG D 557     -24.321  -0.092 -15.920  1.00 35.49     0.174 HD
ATOM     10  HH  ARG D 557     -23.304  -0.459 -14.903  1.00 35.49     0.174 HD
ATOM     11  HH  ARG D 557     -25.098  -2.607 -13.253  1.00 35.49     0.174 HD
ATOM     12  HH  ARG D 557     -23.757  -1.969 -13.298  1.00 35.49     0.174 HD
ATOM     13  HE  ARG D 557     -26.584  -2.211 -14.702  1.00 35.49     0.178 HD
ENDBRANCH   4   5
ENDBRANCH   3   4
ENDBRANCH   2   3
ENDBRANCH   1   2
END_RES ARG D 557
BEGIN_RES GLU D 570
REMARK  3 active torsions:
REMARK  status: ('A' for Active; 'I' for Inactive)
REMARK    5  A    between atoms: CA   and  CB  
REMARK    6  A    between atoms: CB   and  CG  
REMARK    7  A    between atoms: CG   and  CD  
ROOT
ATOM     14  CA  GLU D 570     -18.033  -6.348 -13.375  1.00 32.92     0.160 C 
ENDROOT
BRANCH  14  15
ATOM     15  CB  GLU D 570     -19.500  -6.345 -13.794  1.00 32.92     0.043 C 
BRANCH  15  16
ATOM     16  CG  GLU D 570     -20.094  -7.640 -14.216  1.00 32.92     0.100 C 
BRANCH  16  17
ATOM     17  CD  GLU D 570     -20.626  -7.611 -15.630  1.00 32.92     0.185 C 
ATOM     18  OE1 GLU D 570     -20.558  -6.551 -16.281  1.00 32.92    -0.647 OA
ATOM     19  OE2 GLU D 570     -21.130  -8.656 -16.086  1.00 32.92    -0.647 OA
ENDBRANCH  16  17
ENDBRANCH  15  16
ENDBRANCH  14  15
END_RES GLU D 570
ENDMDL
MODEL 9
REMARK VINA RESULT:      -7.0      3.188      8.934
REMARK  10 active torsions:
REMARK  status: ('A' for Active; 'I' for Inactive)
REMARK    1  A    between atoms: O_2  and  C_3 
REMARK    2  A    between atoms: C_5  and  C_6 
REMARK    3  A    between atoms: C_6  and  N_7 
REMARK       I    between atoms: N_7  and  C_8 
REMARK    4  A    between atoms: C_8  and  C_10 
REMARK    5  A    between atoms: C_10  and  C_11 
REMARK    6  A    between atoms: C_11  and  C_12 
REMARK    7  A    between atoms: C_12  and  C_13 
REMARK    8  A    between atoms: C_13  and  C_14 
REMARK    9  A    between atoms: C_15  and  C_16 
REMARK   10  A    between atoms: C_21  and  O_22 
ROOT
HETATM    1  N   UNL     1     -23.562  -4.939 -11.785  1.00  0.00    -0.357 N 
HETATM    2  C   UNL     1     -23.071  -5.040 -13.063  1.00  0.00     0.217 C 
HETATM    3  O   UNL     1     -22.379  -4.173 -13.591  1.00  0.00    -0.274 OA
HETATM    4  H   UNL     1     -24.181  -5.652 -11.423  1.00  0.00     0.162 HD
ENDROOT
BRANCH   1   5
HETATM    5  C   UNL     1     -23.296  -3.782 -10.962  1.00  0.00     0.161 C 
BRANCH   5   6
HETATM    6  C   UNL     1     -22.176  -4.029  -9.983  1.00  0.00    -0.038 A 
HETATM    7  C   UNL     1     -22.435  -4.127  -8.603  1.00  0.00     0.048 A 
HETATM    8  C   UNL     1     -21.408  -4.417  -7.695  1.00  0.00     0.101 A 
HETATM    9  C   UNL     1     -20.110  -4.610  -8.188  1.00  0.00     0.099 A 
HETATM   10  C   UNL     1     -19.838  -4.520  -9.553  1.00  0.00     0.040 A 
HETATM   11  C   UNL     1     -20.869  -4.231 -10.446  1.00  0.00     0.012 A 
BRANCH   8  12
HETATM   12  O   UNL     1     -21.565  -4.541  -6.340  1.00  0.00    -0.353 OA
HETATM   13  C   UNL     1     -21.959  -5.811  -5.840  1.00  0.00     0.210 C 
ENDBRANCH   8  12
BRANCH   9  14
HETATM   14  O   UNL     1     -19.093  -4.900  -7.316  1.00  0.00    -0.358 OA
HETATM   15  H   UNL     1     -18.243  -4.731  -7.751  1.00  0.00     0.217 HD
ENDBRANCH   9  14
ENDBRANCH   5   6
ENDBRANCH   1   5
BRANCH   2  16
HETATM   16  C   UNL     1     -23.478  -6.312 -13.781  1.00  0.00     0.103 C 
BRANCH  16  17
HETATM   17  C   UNL     1     -24.313  -6.023 -15.028  1.00  0.00     0.010 C 
BRANCH  17  18
HETATM   18  C   UNL     1     -24.258  -7.175 -16.036  1.00  0.00     0.004 C 
BRANCH  18  19
HETATM   19  C   UNL     1     -25.231  -6.943 -17.191  1.00  0.00     0.027 C 
BRANCH  19  20
HETATM   20  C   UNL     1     -26.361  -6.052 -16.766  1.00  0.00    -0.030 C 
HETATM   21  C   UNL     1     -27.509  -5.929 -17.451  1.00  0.00    -0.027 C 
BRANCH  21  22
HETATM   22  C   UNL     1     -28.645  -5.031 -17.030  1.00  0.00    -0.001 C 
HETATM   23  C   UNL     1     -29.420  -5.673 -15.879  1.00  0.00     0.013 C 
HETATM   24  C   UNL     1     -28.110  -3.659 -16.618  1.00  0.00     0.013 C 
ENDBRANCH  21  22
ENDBRANCH  19  20
ENDBRANCH  18  19
ENDBRANCH  17  18
ENDBRANCH  16  17
ENDBRANCH   2  16
TORSDOF 10
BEGIN_RES ARG D 557
REMARK  4 active torsions:
REMARK  status: ('A' for Active; 'I' for Inactive)
REMARK    1  A    between atoms: CA   and  CB  
REMARK    2  A    between atoms: CB   and  CG  
REMARK    3  A    between atoms: CG   and  CD  
REMARK    4  A    between atoms: CD   and  NE  
REMARK       I    between atoms: NE   and  CZ  
REMARK       I    between atoms: CZ   and  NH1 
REMARK       I    between atoms: CZ   and  NH2 
ROOT
ATOM      1  CA  ARG D 557     -26.217   2.705 -17.014  1.00 35.49     0.159 C 
ENDROOT
BRANCH   1   2
ATOM      2  CB  ARG D 557     -26.789   1.319 -17.183  1.00 35.49     0.034 C 
BRANCH   2   3
ATOM      3  CG  ARG D 557     -25.853   0.197 -17.047  1.00 35.49     0.027 C 
BRANCH   3   4
ATOM      4  CD  ARG D 557     -26.120  -0.619 -15.841  1.00 35.49     0.116 C 
BRANCH   4   5
ATOM      5  NE  ARG D 557     -24.975  -0.694 -14.972  1.00 35.49    -0.212 N 
ATOM      6  CZ  ARG D 557     -24.645  -1.722 -14.223  1.00 35.49     0.666 C 
ATOM      7  NH1 ARG D 557     -25.366  -2.828 -14.179  1.00 35.49    -0.235 N 
ATOM      8  NH2 ARG D 557     -23.559  -1.624 -13.513  1.00 35.49    -0.235 N 
ATOM      9  HH  ARG D 557     -26.083  -2.915 -14.640  1.00 35.49     0.174 HD
ATOM     10  HH  ARG D 557     -25.100  -3.467 -13.675  1.00 35.49     0.174 HD
ATOM     11  HH  ARG D 557     -23.110  -0.901 -13.567  1.00 35.49     0.174 HD
ATOM     12  HH  ARG D 557     -23.312  -2.268 -13.020  1.00 35.49     0.174 HD
ATOM     13  HE  ARG D 557     -24.495   0.002 -14.883  1.00 35.49     0.178 HD
ENDBRANCH   4   5
ENDBRANCH   3   4
ENDBRANCH   2   3
ENDBRANCH   1   2
END_RES ARG D 557
BEGIN_RES GLU D 570
REMARK  3 active torsions:
REMARK  status: ('A' for Active; 'I' for Inactive)
REMARK    5  A    between atoms: CA   and  CB  
REMARK    6  A    between atoms: CB   and  CG  
REMARK    7  A    between atoms: CG   and  CD  
ROOT
ATOM     14  CA  GLU D 570     -18.033  -6.348 -13.375  1.00 32.92     0.160 C 
ENDROOT
BRANCH  14  15
ATOM     15  CB  GLU D 570     -19.500  -6.345 -13.794  1.00 32.92     0.043 C 
BRANCH  15  16
ATOM     16  CG  GLU D 570     -20.087  -7.635 -14.240  1.00 32.92     0.100 C 
BRANCH  16  17
ATOM     17  CD  GLU D 570     -20.584  -7.595 -15.666  1.00 32.92     0.185 C 
ATOM     18  OE1 GLU D 570     -20.843  -8.666 -16.247  1.00 32.92    -0.647 OA
ATOM     19  OE2 GLU D 570     -20.698  -6.481 -16.215  1.00 32.92    -0.647 OA
ENDBRANCH  16  17
ENDBRANCH  15  16
ENDBRANCH  14  15
END_RES GLU D 570
ENDMDL
