MODEL 1
REMARK VINA RESULT:     -10.7      0.000      0.000
REMARK  6 active torsions:
REMARK  status: ('A' for Active; 'I' for Inactive)
REMARK       I    between atoms: C_2  and  N_4 
REMARK    1  A    between atoms: N_4  and  C_5 
REMARK    2  A    between atoms: C_9  and  O_10 
REMARK    3  A    between atoms: O_10  and  C_11 
REMARK    4  A    between atoms: C_13  and  N_14 
REMARK    5  A    between atoms: N_17  and  C_18 
REMARK    6  A    between atoms: C_18  and  C_20 
ROOT
HETATM    1  C   UNL     1     -24.853  -4.680 -14.656  1.00  0.00     0.152 A 
HETATM    2  C   UNL     1     -23.972  -5.103 -13.684  1.00  0.00     0.104 A 
HETATM    3  C   UNL     1     -23.728  -4.239 -12.630  1.00  0.00     0.108 A 
HETATM    4  N   UNL     1     -24.308  -3.028 -12.595  1.00  0.00    -0.339 N 
ATOM      5  HN  UNL     1     -24.155  -2.390 -11.814  1.00  0.00     0.168 HD
HETATM    6  C   UNL     1     -25.097  -2.689 -13.625  1.00  0.00     0.183 A 
HETATM    7  N   UNL     1     -25.400  -3.456 -14.674  1.00  0.00    -0.333 N 
ATOM      8  HN  UNL     1     -26.002  -3.135 -15.433  1.00  0.00     0.168 HD
ENDROOT
BRANCH   1   9
HETATM    9  O   UNL     1     -25.188  -5.599 -15.648  1.00  0.00    -0.291 OA
BRANCH   9  10
HETATM   10  C   UNL     1     -26.526  -5.727 -15.996  1.00  0.00     0.105 A 
HETATM   11  C   UNL     1     -26.859  -6.166 -17.305  1.00  0.00     0.085 A 
HETATM   12  N   UNL     1     -25.979  -6.481 -18.346  1.00  0.00    -0.333 N 
HETATM   13  C   UNL     1     -28.211  -6.297 -17.636  1.00  0.00     0.038 A 
HETATM   14  C   UNL     1     -26.661  -6.734 -19.438  1.00  0.00     0.152 A 
ATOM     15  HN  UNL     1     -24.962  -6.509 -18.268  1.00  0.00     0.168 HD
HETATM   16  S   UNL     1     -28.350  -6.801 -19.269  1.00  0.00    -0.052 SA
HETATM   17  C   UNL     1     -29.248  -6.036 -16.728  1.00  0.00     0.021 A 
HETATM   18  C   UNL     1     -28.905  -5.637 -15.439  1.00  0.00     0.004 A 
HETATM   19  C   UNL     1     -27.569  -5.507 -15.072  1.00  0.00     0.040 A 
BRANCH  14  20
HETATM   20  N   UNL     1     -26.048  -6.994 -20.641  1.00  0.00    -0.307 N 
HETATM   21  C   UNL     1     -24.762  -7.470 -20.795  1.00  0.00     0.219 C 
HETATM   22  C   UNL     1     -24.374  -7.625 -22.242  1.00  0.00     0.117 C 
HETATM   23  O   UNL     1     -23.966  -7.765 -19.911  1.00  0.00    -0.274 OA
HETATM   24  H   UNL     1     -26.684  -7.010 -21.426  1.00  0.00     0.171 HD
ENDBRANCH  14  20
ENDBRANCH   9  10
ENDBRANCH   1   9
BRANCH   3  25
HETATM   25  N   UNL     1     -22.944  -4.647 -11.560  1.00  0.00    -0.364 N 
HETATM   26  C   UNL     1     -23.615  -4.984 -10.294  1.00  0.00     0.154 C 
HETATM   27  C   UNL     1     -23.232  -4.036  -9.140  1.00  0.00     0.293 C 
HETATM   28  N   UNL     1     -21.769  -3.837  -8.955  1.00  0.00     0.100 N 
HETATM   29  C   UNL     1     -21.276  -3.299 -10.250  1.00  0.00     0.293 C 
HETATM   30  C   UNL     1     -21.546  -4.194 -11.489  1.00  0.00     0.154 C 
BRANCH  28  31
HETATM   31  C   UNL     1     -21.062  -5.081  -8.539  1.00  0.00     0.252 C 
HETATM   32  C   UNL     1     -19.588  -5.080  -8.985  1.00  0.00     0.048 C 
BRANCH  31  33
HETATM   33  C   UNL     1     -21.112  -5.328  -7.027  1.00  0.00    -0.025 A 
HETATM   34  C   UNL     1     -20.230  -4.628  -6.182  1.00  0.00     0.012 A 
HETATM   35  C   UNL     1     -20.230  -4.856  -4.805  1.00  0.00     0.043 A 
HETATM   36  C   UNL     1     -21.116  -5.779  -4.264  1.00  0.00     0.116 A 
HETATM   37  F   UNL     1     -21.107  -6.004  -2.943  1.00  0.00    -0.206 F 
HETATM   38  C   UNL     1     -22.006  -6.473  -5.074  1.00  0.00     0.043 A 
HETATM   39  C   UNL     1     -22.003  -6.251  -6.452  1.00  0.00     0.012 A 
ENDBRANCH  31  33
ENDBRANCH  28  31
ENDBRANCH   3  25
TORSDOF 6
BEGIN_RES ARG D 557
REMARK  4 active torsions:
REMARK  status: ('A' for Active; 'I' for Inactive)
REMARK    1  A    between atoms: CA   and  CB  
REMARK    2  A    between atoms: CB   and  CG  
REMARK    3  A    between atoms: CG   and  CD  
REMARK    4  A    between atoms: CD   and  NE  
REMARK       I    between atoms: NE   and  CZ  
REMARK       I    between atoms: CZ   and  NH1 
REMARK       I    between atoms: CZ   and  NH2 
ROOT
ATOM      1  CA  ARG D 557     -26.217   2.705 -17.014  1.00 35.49     0.159 C 
ENDROOT
BRANCH   1   2
ATOM      2  CB  ARG D 557     -26.789   1.319 -17.183  1.00 35.49     0.034 C 
BRANCH   2   3
ATOM      3  CG  ARG D 557     -28.239   1.224 -17.395  1.00 35.49     0.027 C 
BRANCH   3   4
ATOM      4  CD  ARG D 557     -28.892   0.318 -16.422  1.00 35.49     0.116 C 
BRANCH   4   5
ATOM      5  NE  ARG D 557     -29.542  -0.792 -17.068  1.00 35.49    -0.212 N 
ATOM      6  CZ  ARG D 557     -29.069  -2.015 -17.152  1.00 35.49     0.666 C 
ATOM      7  NH1 ARG D 557     -27.899  -2.360 -16.647  1.00 35.49    -0.235 N 
ATOM      8  NH2 ARG D 557     -29.805  -2.903 -17.756  1.00 35.49    -0.235 N 
ATOM      9  HH  ARG D 557     -27.399  -1.793 -16.243  1.00 35.49     0.174 HD
ATOM     10  HH  ARG D 557     -27.643  -3.173 -16.730  1.00 35.49     0.174 HD
ATOM     11  HH  ARG D 557     -30.559  -2.654 -18.066  1.00 35.49     0.174 HD
ATOM     12  HH  ARG D 557     -29.535  -3.704 -17.827  1.00 35.49     0.174 HD
ATOM     13  HE  ARG D 557     -30.269  -0.643 -17.484  1.00 35.49     0.178 HD
ENDBRANCH   4   5
ENDBRANCH   3   4
ENDBRANCH   2   3
ENDBRANCH   1   2
END_RES ARG D 557
BEGIN_RES GLU D 570
REMARK  3 active torsions:
REMARK  status: ('A' for Active; 'I' for Inactive)
REMARK    5  A    between atoms: CA   and  CB  
REMARK    6  A    between atoms: CB   and  CG  
REMARK    7  A    between atoms: CG   and  CD  
ROOT
ATOM     14  CA  GLU D 570     -18.033  -6.348 -13.375  1.00 32.92     0.160 C 
ENDROOT
BRANCH  14  15
ATOM     15  CB  GLU D 570     -19.500  -6.345 -13.794  1.00 32.92     0.043 C 
BRANCH  15  16
ATOM     16  CG  GLU D 570     -19.796  -6.329 -15.250  1.00 32.92     0.100 C 
BRANCH  16  17
ATOM     17  CD  GLU D 570     -20.879  -7.307 -15.642  1.00 32.92     0.185 C 
ATOM     18  OE1 GLU D 570     -20.632  -8.528 -15.611  1.00 32.92    -0.647 OA
ATOM     19  OE2 GLU D 570     -21.981  -6.847 -16.000  1.00 32.92    -0.647 OA
ENDBRANCH  16  17
ENDBRANCH  15  16
ENDBRANCH  14  15
END_RES GLU D 570
ENDMDL
MODEL 2
REMARK VINA RESULT:     -10.6      5.410      9.919
REMARK  6 active torsions:
REMARK  status: ('A' for Active; 'I' for Inactive)
REMARK       I    between atoms: C_2  and  N_4 
REMARK    1  A    between atoms: N_4  and  C_5 
REMARK    2  A    between atoms: C_9  and  O_10 
REMARK    3  A    between atoms: O_10  and  C_11 
REMARK    4  A    between atoms: C_13  and  N_14 
REMARK    5  A    between atoms: N_17  and  C_18 
REMARK    6  A    between atoms: C_18  and  C_20 
ROOT
HETATM    1  C   UNL     1     -33.989  -4.069 -15.538  1.00  0.00     0.152 A 
HETATM    2  C   UNL     1     -32.843  -4.784 -15.813  1.00  0.00     0.104 A 
HETATM    3  C   UNL     1     -32.086  -4.376 -16.899  1.00  0.00     0.108 A 
HETATM    4  N   UNL     1     -32.491  -3.347 -17.661  1.00  0.00    -0.339 N 
ATOM      5  HN  UNL     1     -31.932  -3.022 -18.451  1.00  0.00     0.168 HD
HETATM    6  C   UNL     1     -33.655  -2.762 -17.345  1.00  0.00     0.183 A 
HETATM    7  N   UNL     1     -34.443  -3.076 -16.315  1.00  0.00    -0.333 N 
ATOM      8  HN  UNL     1     -35.326  -2.597 -16.134  1.00  0.00     0.168 HD
ENDROOT
BRANCH   1   9
HETATM    9  O   UNL     1     -34.679  -4.406 -14.376  1.00  0.00    -0.291 OA
BRANCH   9  10
HETATM   10  C   UNL     1     -34.343  -3.746 -13.202  1.00  0.00     0.105 A 
HETATM   11  C   UNL     1     -34.705  -2.381 -13.050  1.00  0.00     0.085 A 
HETATM   12  N   UNL     1     -35.367  -1.569 -13.977  1.00  0.00    -0.333 N 
HETATM   13  C   UNL     1     -34.367  -1.733 -11.858  1.00  0.00     0.038 A 
HETATM   14  C   UNL     1     -35.421  -0.338 -13.526  1.00  0.00     0.152 A 
ATOM     15  HN  UNL     1     -35.750  -1.885 -14.869  1.00  0.00     0.168 HD
HETATM   16  S   UNL     1     -34.876  -0.098 -11.935  1.00  0.00    -0.052 SA
HETATM   17  C   UNL     1     -33.707  -2.377 -10.801  1.00  0.00     0.021 A 
HETATM   18  C   UNL     1     -33.387  -3.723 -10.952  1.00  0.00     0.004 A 
HETATM   19  C   UNL     1     -33.719  -4.402 -12.120  1.00  0.00     0.040 A 
BRANCH  14  20
HETATM   20  N   UNL     1     -35.946   0.693 -14.270  1.00  0.00    -0.307 N 
HETATM   21  C   UNL     1     -36.181   0.658 -15.628  1.00  0.00     0.219 C 
HETATM   22  C   UNL     1     -36.737   1.957 -16.151  1.00  0.00     0.117 C 
HETATM   23  O   UNL     1     -35.997  -0.283 -16.392  1.00  0.00    -0.274 OA
HETATM   24  H   UNL     1     -36.352   1.431 -13.710  1.00  0.00     0.171 HD
ENDBRANCH  14  20
ENDBRANCH   9  10
ENDBRANCH   1   9
BRANCH   3  25
HETATM   25  N   UNL     1     -30.864  -4.976 -17.163  1.00  0.00    -0.364 N 
HETATM   26  C   UNL     1     -30.285  -5.859 -16.136  1.00  0.00     0.154 C 
HETATM   27  C   UNL     1     -28.959  -5.321 -15.561  1.00  0.00     0.293 C 
HETATM   28  N   UNL     1     -27.951  -4.926 -16.581  1.00  0.00     0.100 N 
HETATM   29  C   UNL     1     -28.614  -3.883 -17.408  1.00  0.00     0.293 C 
HETATM   30  C   UNL     1     -29.935  -4.319 -18.096  1.00  0.00     0.154 C 
BRANCH  28  31
HETATM   31  C   UNL     1     -27.458  -6.077 -17.389  1.00  0.00     0.252 C 
HETATM   32  C   UNL     1     -27.545  -5.797 -18.900  1.00  0.00     0.048 C 
BRANCH  31  33
HETATM   33  C   UNL     1     -26.018  -6.479 -17.052  1.00  0.00    -0.025 A 
HETATM   34  C   UNL     1     -25.120  -6.777 -18.094  1.00  0.00     0.012 A 
HETATM   35  C   UNL     1     -23.813  -7.178 -17.816  1.00  0.00     0.043 A 
HETATM   36  C   UNL     1     -23.393  -7.276 -16.495  1.00  0.00     0.116 A 
HETATM   37  F   UNL     1     -22.140  -7.671 -16.231  1.00  0.00    -0.206 F 
HETATM   38  C   UNL     1     -24.254  -6.974 -15.449  1.00  0.00     0.043 A 
HETATM   39  C   UNL     1     -25.565  -6.580 -15.724  1.00  0.00     0.012 A 
ENDBRANCH  31  33
ENDBRANCH  28  31
ENDBRANCH   3  25
TORSDOF 6
BEGIN_RES ARG D 557
REMARK  4 active torsions:
REMARK  status: ('A' for Active; 'I' for Inactive)
REMARK    1  A    between atoms: CA   and  CB  
REMARK    2  A    between atoms: CB   and  CG  
REMARK    3  A    between atoms: CG   and  CD  
REMARK    4  A    between atoms: CD   and  NE  
REMARK       I    between atoms: NE   and  CZ  
REMARK       I    between atoms: CZ   and  NH1 
REMARK       I    between atoms: CZ   and  NH2 
ROOT
ATOM      1  CA  ARG D 557     -26.217   2.705 -17.014  1.00 35.49     0.159 C 
ENDROOT
BRANCH   1   2
ATOM      2  CB  ARG D 557     -26.789   1.319 -17.183  1.00 35.49     0.034 C 
BRANCH   2   3
ATOM      3  CG  ARG D 557     -25.865   0.195 -16.991  1.00 35.49     0.027 C 
BRANCH   3   4
ATOM      4  CD  ARG D 557     -26.275  -0.689 -15.877  1.00 35.49     0.116 C 
BRANCH   4   5
ATOM      5  NE  ARG D 557     -25.211  -0.900 -14.931  1.00 35.49    -0.212 N 
ATOM      6  CZ  ARG D 557     -24.905  -2.043 -14.360  1.00 35.49     0.666 C 
ATOM      7  NH1 ARG D 557     -25.578  -3.155 -14.594  1.00 35.49    -0.235 N 
ATOM      8  NH2 ARG D 557     -23.893  -2.054 -13.542  1.00 35.49    -0.235 N 
ATOM      9  HH  ARG D 557     -26.246  -3.171 -15.130  1.00 35.49     0.174 HD
ATOM     10  HH  ARG D 557     -25.331  -3.871 -14.195  1.00 35.49     0.174 HD
ATOM     11  HH  ARG D 557     -23.473  -1.323 -13.416  1.00 35.49     0.174 HD
ATOM     12  HH  ARG D 557     -23.663  -2.774 -13.157  1.00 35.49     0.174 HD
ATOM     13  HE  ARG D 557     -24.771  -0.221 -14.667  1.00 35.49     0.178 HD
ENDBRANCH   4   5
ENDBRANCH   3   4
ENDBRANCH   2   3
ENDBRANCH   1   2
END_RES ARG D 557
BEGIN_RES GLU D 570
REMARK  3 active torsions:
REMARK  status: ('A' for Active; 'I' for Inactive)
REMARK    5  A    between atoms: CA   and  CB  
REMARK    6  A    between atoms: CB   and  CG  
REMARK    7  A    between atoms: CG   and  CD  
ROOT
ATOM     14  CA  GLU D 570     -18.033  -6.348 -13.375  1.00 32.92     0.160 C 
ENDROOT
BRANCH  14  15
ATOM     15  CB  GLU D 570     -19.500  -6.345 -13.794  1.00 32.92     0.043 C 
BRANCH  15  16
ATOM     16  CG  GLU D 570     -20.453  -5.584 -12.945  1.00 32.92     0.100 C 
BRANCH  16  17
ATOM     17  CD  GLU D 570     -21.643  -5.064 -13.717  1.00 32.92     0.185 C 
ATOM     18  OE1 GLU D 570     -22.727  -4.906 -13.123  1.00 32.92    -0.647 OA
ATOM     19  OE2 GLU D 570     -21.495  -4.827 -14.932  1.00 32.92    -0.647 OA
ENDBRANCH  16  17
ENDBRANCH  15  16
ENDBRANCH  14  15
END_RES GLU D 570
ENDMDL
MODEL 3
REMARK VINA RESULT:     -10.3      1.453      2.397
REMARK  6 active torsions:
REMARK  status: ('A' for Active; 'I' for Inactive)
REMARK       I    between atoms: C_2  and  N_4 
REMARK    1  A    between atoms: N_4  and  C_5 
REMARK    2  A    between atoms: C_9  and  O_10 
REMARK    3  A    between atoms: O_10  and  C_11 
REMARK    4  A    between atoms: C_13  and  N_14 
REMARK    5  A    between atoms: N_17  and  C_18 
REMARK    6  A    between atoms: C_18  and  C_20 
ROOT
HETATM    1  C   UNL     1     -25.795  -5.880 -16.145  1.00  0.00     0.152 A 
HETATM    2  C   UNL     1     -25.078  -5.346 -15.096  1.00  0.00     0.104 A 
HETATM    3  C   UNL     1     -23.915  -5.998 -14.724  1.00  0.00     0.108 A 
HETATM    4  N   UNL     1     -23.539  -7.126 -15.350  1.00  0.00    -0.339 N 
ATOM      5  HN  UNL     1     -22.673  -7.605 -15.102  1.00  0.00     0.168 HD
HETATM    6  C   UNL     1     -24.344  -7.598 -16.313  1.00  0.00     0.183 A 
HETATM    7  N   UNL     1     -25.473  -7.034 -16.746  1.00  0.00    -0.333 N 
ATOM      8  HN  UNL     1     -26.047  -7.450 -17.480  1.00  0.00     0.168 HD
ENDROOT
BRANCH   1   9
HETATM    9  O   UNL     1     -26.896  -5.153 -16.593  1.00  0.00    -0.291 OA
BRANCH   9  10
HETATM   10  C   UNL     1     -27.991  -5.857 -17.075  1.00  0.00     0.105 A 
HETATM   11  C   UNL     1     -27.866  -6.575 -18.293  1.00  0.00     0.085 A 
HETATM   12  N   UNL     1     -26.742  -6.655 -19.123  1.00  0.00    -0.333 N 
HETATM   13  C   UNL     1     -28.976  -7.286 -18.761  1.00  0.00     0.038 A 
HETATM   14  C   UNL     1     -27.046  -7.315 -20.215  1.00  0.00     0.152 A 
ATOM     15  HN  UNL     1     -25.826  -6.261 -18.911  1.00  0.00     0.168 HD
HETATM   16  S   UNL     1     -28.586  -8.031 -20.254  1.00  0.00    -0.052 SA
HETATM   17  C   UNL     1     -30.196  -7.337 -18.069  1.00  0.00     0.021 A 
HETATM   18  C   UNL     1     -30.293  -6.654 -16.861  1.00  0.00     0.004 A 
HETATM   19  C   UNL     1     -29.204  -5.946 -16.361  1.00  0.00     0.040 A 
BRANCH  14  20
HETATM   20  N   UNL     1     -26.152  -7.476 -21.247  1.00  0.00    -0.307 N 
HETATM   21  C   UNL     1     -24.796  -7.687 -21.103  1.00  0.00     0.219 C 
HETATM   22  C   UNL     1     -24.085  -7.796 -22.426  1.00  0.00     0.117 C 
HETATM   23  O   UNL     1     -24.166  -7.795 -20.056  1.00  0.00    -0.274 OA
HETATM   24  H   UNL     1     -26.591  -7.639 -22.143  1.00  0.00     0.171 HD
ENDBRANCH  14  20
ENDBRANCH   9  10
ENDBRANCH   1   9
BRANCH   3  25
HETATM   25  N   UNL     1     -23.086  -5.451 -13.756  1.00  0.00    -0.364 N 
HETATM   26  C   UNL     1     -23.351  -5.779 -12.346  1.00  0.00     0.154 C 
HETATM   27  C   UNL     1     -23.756  -4.548 -11.509  1.00  0.00     0.293 C 
HETATM   28  N   UNL     1     -22.849  -3.376 -11.644  1.00  0.00     0.100 N 
HETATM   29  C   UNL     1     -22.851  -3.039 -13.092  1.00  0.00     0.293 C 
HETATM   30  C   UNL     1     -22.401  -4.180 -14.042  1.00  0.00     0.154 C 
BRANCH  28  31
HETATM   31  C   UNL     1     -21.482  -3.636 -11.112  1.00  0.00     0.252 C 
HETATM   32  C   UNL     1     -20.557  -2.417 -11.285  1.00  0.00     0.048 C 
BRANCH  31  33
HETATM   33  C   UNL     1     -21.475  -4.045  -9.635  1.00  0.00    -0.025 A 
HETATM   34  C   UNL     1     -20.370  -4.745  -9.114  1.00  0.00     0.012 A 
HETATM   35  C   UNL     1     -20.351  -5.159  -7.782  1.00  0.00     0.043 A 
HETATM   36  C   UNL     1     -21.432  -4.869  -6.960  1.00  0.00     0.116 A 
HETATM   37  F   UNL     1     -21.416  -5.276  -5.683  1.00  0.00    -0.206 F 
HETATM   38  C   UNL     1     -22.528  -4.167  -7.444  1.00  0.00     0.043 A 
HETATM   39  C   UNL     1     -22.553  -3.758  -8.779  1.00  0.00     0.012 A 
ENDBRANCH  31  33
ENDBRANCH  28  31
ENDBRANCH   3  25
TORSDOF 6
BEGIN_RES ARG D 557
REMARK  4 active torsions:
REMARK  status: ('A' for Active; 'I' for Inactive)
REMARK    1  A    between atoms: CA   and  CB  
REMARK    2  A    between atoms: CB   and  CG  
REMARK    3  A    between atoms: CG   and  CD  
REMARK    4  A    between atoms: CD   and  NE  
REMARK       I    between atoms: NE   and  CZ  
REMARK       I    between atoms: CZ   and  NH1 
REMARK       I    between atoms: CZ   and  NH2 
ROOT
ATOM      1  CA  ARG D 557     -26.217   2.705 -17.014  1.00 35.49     0.159 C 
ENDROOT
BRANCH   1   2
ATOM      2  CB  ARG D 557     -26.789   1.319 -17.183  1.00 35.49     0.034 C 
BRANCH   2   3
ATOM      3  CG  ARG D 557     -28.231   1.226 -17.444  1.00 35.49     0.027 C 
BRANCH   3   4
ATOM      4  CD  ARG D 557     -28.917   0.313 -16.502  1.00 35.49     0.116 C 
BRANCH   4   5
ATOM      5  NE  ARG D 557     -29.335  -0.908 -17.138  1.00 35.49    -0.212 N 
ATOM      6  CZ  ARG D 557     -28.714  -2.065 -17.065  1.00 35.49     0.666 C 
ATOM      7  NH1 ARG D 557     -27.594  -2.226 -16.385  1.00 35.49    -0.235 N 
ATOM      8  NH2 ARG D 557     -29.249  -3.074 -17.689  1.00 35.49    -0.235 N 
ATOM      9  HH  ARG D 557     -27.226  -1.576 -15.964  1.00 35.49     0.174 HD
ATOM     10  HH  ARG D 557     -27.236  -3.004 -16.370  1.00 35.49     0.174 HD
ATOM     11  HH  ARG D 557     -29.976  -2.941 -18.114  1.00 35.49     0.174 HD
ATOM     12  HH  ARG D 557     -28.879  -3.836 -17.661  1.00 35.49     0.174 HD
ATOM     13  HE  ARG D 557     -30.009  -0.878 -17.657  1.00 35.49     0.178 HD
ENDBRANCH   4   5
ENDBRANCH   3   4
ENDBRANCH   2   3
ENDBRANCH   1   2
END_RES ARG D 557
BEGIN_RES GLU D 570
REMARK  3 active torsions:
REMARK  status: ('A' for Active; 'I' for Inactive)
REMARK    5  A    between atoms: CA   and  CB  
REMARK    6  A    between atoms: CB   and  CG  
REMARK    7  A    between atoms: CG   and  CD  
ROOT
ATOM     14  CA  GLU D 570     -18.033  -6.348 -13.375  1.00 32.92     0.160 C 
ENDROOT
BRANCH  14  15
ATOM     15  CB  GLU D 570     -19.500  -6.345 -13.794  1.00 32.92     0.043 C 
BRANCH  15  16
ATOM     16  CG  GLU D 570     -20.091  -7.638 -14.226  1.00 32.92     0.100 C 
BRANCH  16  17
ATOM     17  CD  GLU D 570     -20.556  -7.622 -15.664  1.00 32.92     0.185 C 
ATOM     18  OE1 GLU D 570     -20.863  -8.698 -16.213  1.00 32.92    -0.647 OA
ATOM     19  OE2 GLU D 570     -20.597  -6.524 -16.253  1.00 32.92    -0.647 OA
ENDBRANCH  16  17
ENDBRANCH  15  16
ENDBRANCH  14  15
END_RES GLU D 570
ENDMDL
MODEL 4
REMARK VINA RESULT:      -9.9      5.885     10.903
REMARK  6 active torsions:
REMARK  status: ('A' for Active; 'I' for Inactive)
REMARK       I    between atoms: C_2  and  N_4 
REMARK    1  A    between atoms: N_4  and  C_5 
REMARK    2  A    between atoms: C_9  and  O_10 
REMARK    3  A    between atoms: O_10  and  C_11 
REMARK    4  A    between atoms: C_13  and  N_14 
REMARK    5  A    between atoms: N_17  and  C_18 
REMARK    6  A    between atoms: C_18  and  C_20 
ROOT
HETATM    1  C   UNL     1     -21.445  -8.334  -1.988  1.00  0.00     0.152 A 
HETATM    2  C   UNL     1     -21.354  -7.749  -3.233  1.00  0.00     0.104 A 
HETATM    3  C   UNL     1     -21.740  -6.423  -3.340  1.00  0.00     0.108 A 
HETATM    4  N   UNL     1     -22.217  -5.765  -2.271  1.00  0.00    -0.339 N 
ATOM      5  HN  UNL     1     -22.484  -4.783  -2.330  1.00  0.00     0.168 HD
HETATM    6  C   UNL     1     -22.327  -6.449  -1.122  1.00  0.00     0.183 A 
HETATM    7  N   UNL     1     -21.971  -7.718  -0.920  1.00  0.00    -0.333 N 
ATOM      8  HN  UNL     1     -22.089  -8.185  -0.021  1.00  0.00     0.168 HD
ENDROOT
BRANCH   1   9
HETATM    9  O   UNL     1     -20.942  -9.627  -1.861  1.00  0.00    -0.291 OA
BRANCH   9  10
HETATM   10  C   UNL     1     -21.845 -10.664  -1.673  1.00  0.00     0.105 A 
HETATM   11  C   UNL     1     -21.863 -11.739  -2.600  1.00  0.00     0.085 A 
HETATM   12  N   UNL     1     -21.069 -11.891  -3.743  1.00  0.00    -0.333 N 
HETATM   13  C   UNL     1     -22.773 -12.780  -2.392  1.00  0.00     0.038 A 
HETATM   14  C   UNL     1     -21.454 -12.953  -4.410  1.00  0.00     0.152 A 
ATOM     15  HN  UNL     1     -20.307 -11.270  -4.016  1.00  0.00     0.168 HD
HETATM   16  S   UNL     1     -22.623 -13.928  -3.656  1.00  0.00    -0.052 SA
HETATM   17  C   UNL     1     -23.651 -12.818  -1.298  1.00  0.00     0.021 A 
HETATM   18  C   UNL     1     -23.600 -11.772  -0.381  1.00  0.00     0.004 A 
HETATM   19  C   UNL     1     -22.699 -10.727  -0.552  1.00  0.00     0.040 A 
BRANCH  14  20
HETATM   20  N   UNL     1     -20.901 -13.299  -5.621  1.00  0.00    -0.307 N 
HETATM   21  C   UNL     1     -20.688 -12.436  -6.676  1.00  0.00     0.219 C 
HETATM   22  C   UNL     1     -20.091 -13.126  -7.874  1.00  0.00     0.117 C 
HETATM   23  O   UNL     1     -20.919 -11.232  -6.712  1.00  0.00    -0.274 OA
HETATM   24  H   UNL     1     -20.459 -14.207  -5.620  1.00  0.00     0.171 HD
ENDBRANCH  14  20
ENDBRANCH   9  10
ENDBRANCH   1   9
BRANCH   3  25
HETATM   25  N   UNL     1     -21.564  -5.739  -4.534  1.00  0.00    -0.364 N 
HETATM   26  C   UNL     1     -22.482  -6.034  -5.647  1.00  0.00     0.154 C 
HETATM   27  C   UNL     1     -21.769  -6.661  -6.863  1.00  0.00     0.293 C 
HETATM   28  N   UNL     1     -20.559  -5.928  -7.323  1.00  0.00     0.100 N 
HETATM   29  C   UNL     1     -19.646  -5.896  -6.150  1.00  0.00     0.293 C 
HETATM   30  C   UNL     1     -20.226  -5.231  -4.873  1.00  0.00     0.154 C 
BRANCH  28  31
HETATM   31  C   UNL     1     -20.868  -4.570  -7.852  1.00  0.00     0.252 C 
HETATM   32  C   UNL     1     -19.612  -3.683  -7.928  1.00  0.00     0.048 C 
BRANCH  31  33
HETATM   33  C   UNL     1     -21.528  -4.596  -9.235  1.00  0.00    -0.025 A 
HETATM   34  C   UNL     1     -20.732  -4.440 -10.386  1.00  0.00     0.012 A 
HETATM   35  C   UNL     1     -21.310  -4.427 -11.656  1.00  0.00     0.043 A 
HETATM   36  C   UNL     1     -22.685  -4.576 -11.785  1.00  0.00     0.116 A 
HETATM   37  F   UNL     1     -23.238  -4.553 -13.005  1.00  0.00    -0.206 F 
HETATM   38  C   UNL     1     -23.491  -4.746 -10.667  1.00  0.00     0.043 A 
HETATM   39  C   UNL     1     -22.917  -4.753  -9.395  1.00  0.00     0.012 A 
ENDBRANCH  31  33
ENDBRANCH  28  31
ENDBRANCH   3  25
TORSDOF 6
BEGIN_RES ARG D 557
REMARK  4 active torsions:
REMARK  status: ('A' for Active; 'I' for Inactive)
REMARK    1  A    between atoms: CA   and  CB  
REMARK    2  A    between atoms: CB   and  CG  
REMARK    3  A    between atoms: CG   and  CD  
REMARK    4  A    between atoms: CD   and  NE  
REMARK       I    between atoms: NE   and  CZ  
REMARK       I    between atoms: CZ   and  NH1 
REMARK       I    between atoms: CZ   and  NH2 
ROOT
ATOM      1  CA  ARG D 557     -26.217   2.705 -17.014  1.00 35.49     0.159 C 
ENDROOT
BRANCH   1   2
ATOM      2  CB  ARG D 557     -26.789   1.319 -17.183  1.00 35.49     0.034 C 
BRANCH   2   3
ATOM      3  CG  ARG D 557     -25.828   0.211 -17.245  1.00 35.49     0.027 C 
BRANCH   3   4
ATOM      4  CD  ARG D 557     -24.705   0.383 -16.296  1.00 35.49     0.116 C 
BRANCH   4   5
ATOM      5  NE  ARG D 557     -24.882  -0.397 -15.099  1.00 35.49    -0.212 N 
ATOM      6  CZ  ARG D 557     -24.096  -1.368 -14.692  1.00 35.49     0.666 C 
ATOM      7  NH1 ARG D 557     -23.032  -1.751 -15.373  1.00 35.49    -0.235 N 
ATOM      8  NH2 ARG D 557     -24.398  -1.954 -13.570  1.00 35.49    -0.235 N 
ATOM      9  HH  ARG D 557     -22.813  -1.378 -16.112  1.00 35.49     0.174 HD
ATOM     10  HH  ARG D 557     -22.555  -2.389 -15.057  1.00 35.49     0.174 HD
ATOM     11  HH  ARG D 557     -25.087  -1.680 -13.148  1.00 35.49     0.174 HD
ATOM     12  HH  ARG D 557     -23.912  -2.582 -13.273  1.00 35.49     0.174 HD
ATOM     13  HE  ARG D 557     -25.584  -0.266 -14.637  1.00 35.49     0.178 HD
ENDBRANCH   4   5
ENDBRANCH   3   4
ENDBRANCH   2   3
ENDBRANCH   1   2
END_RES ARG D 557
BEGIN_RES GLU D 570
REMARK  3 active torsions:
REMARK  status: ('A' for Active; 'I' for Inactive)
REMARK    5  A    between atoms: CA   and  CB  
REMARK    6  A    between atoms: CB   and  CG  
REMARK    7  A    between atoms: CG   and  CD  
ROOT
ATOM     14  CA  GLU D 570     -18.033  -6.348 -13.375  1.00 32.92     0.160 C 
ENDROOT
BRANCH  14  15
ATOM     15  CB  GLU D 570     -19.500  -6.345 -13.794  1.00 32.92     0.043 C 
BRANCH  15  16
ATOM     16  CG  GLU D 570     -19.813  -5.936 -15.188  1.00 32.92     0.100 C 
BRANCH  16  17
ATOM     17  CD  GLU D 570     -21.282  -5.657 -15.404  1.00 32.92     0.185 C 
ATOM     18  OE1 GLU D 570     -21.633  -4.523 -15.782  1.00 32.92    -0.647 OA
ATOM     19  OE2 GLU D 570     -22.092  -6.578 -15.178  1.00 32.92    -0.647 OA
ENDBRANCH  16  17
ENDBRANCH  15  16
ENDBRANCH  14  15
END_RES GLU D 570
ENDMDL
MODEL 5
REMARK VINA RESULT:      -9.9      5.778     10.713
REMARK  6 active torsions:
REMARK  status: ('A' for Active; 'I' for Inactive)
REMARK       I    between atoms: C_2  and  N_4 
REMARK    1  A    between atoms: N_4  and  C_5 
REMARK    2  A    between atoms: C_9  and  O_10 
REMARK    3  A    between atoms: O_10  and  C_11 
REMARK    4  A    between atoms: C_13  and  N_14 
REMARK    5  A    between atoms: N_17  and  C_18 
REMARK    6  A    between atoms: C_18  and  C_20 
ROOT
HETATM    1  C   UNL     1     -21.439  -8.373  -2.063  1.00  0.00     0.152 A 
HETATM    2  C   UNL     1     -21.341  -7.765  -3.296  1.00  0.00     0.104 A 
HETATM    3  C   UNL     1     -21.727  -6.438  -3.382  1.00  0.00     0.108 A 
HETATM    4  N   UNL     1     -22.210  -5.799  -2.303  1.00  0.00    -0.339 N 
ATOM      5  HN  UNL     1     -22.477  -4.816  -2.346  1.00  0.00     0.168 HD
HETATM    6  C   UNL     1     -22.326  -6.503  -1.167  1.00  0.00     0.183 A 
HETATM    7  N   UNL     1     -21.970  -7.777  -0.987  1.00  0.00    -0.333 N 
ATOM      8  HN  UNL     1     -22.094  -8.260  -0.096  1.00  0.00     0.168 HD
ENDROOT
BRANCH   1   9
HETATM    9  O   UNL     1     -20.936  -9.668  -1.956  1.00  0.00    -0.291 OA
BRANCH   9  10
HETATM   10  C   UNL     1     -21.837 -10.704  -1.752  1.00  0.00     0.105 A 
HETATM   11  C   UNL     1     -21.874 -11.777  -2.681  1.00  0.00     0.085 A 
HETATM   12  N   UNL     1     -21.105 -11.927  -3.839  1.00  0.00    -0.333 N 
HETATM   13  C   UNL     1     -22.782 -12.817  -2.456  1.00  0.00     0.038 A 
HETATM   14  C   UNL     1     -21.504 -12.988  -4.500  1.00  0.00     0.152 A 
ATOM     15  HN  UNL     1     -20.347 -11.307  -4.126  1.00  0.00     0.168 HD
HETATM   16  S   UNL     1     -22.660 -13.962  -3.725  1.00  0.00    -0.052 SA
HETATM   17  C   UNL     1     -23.638 -12.856  -1.345  1.00  0.00     0.021 A 
HETATM   18  C   UNL     1     -23.567 -11.812  -0.427  1.00  0.00     0.004 A 
HETATM   19  C   UNL     1     -22.667 -10.767  -0.614  1.00  0.00     0.040 A 
BRANCH  14  20
HETATM   20  N   UNL     1     -20.977 -13.332  -5.723  1.00  0.00    -0.307 N 
HETATM   21  C   UNL     1     -20.751 -12.460  -6.768  1.00  0.00     0.219 C 
HETATM   22  C   UNL     1     -20.190 -13.150  -7.983  1.00  0.00     0.117 C 
HETATM   23  O   UNL     1     -20.948 -11.250  -6.785  1.00  0.00    -0.274 OA
HETATM   24  H   UNL     1     -20.562 -14.253  -5.741  1.00  0.00     0.171 HD
ENDBRANCH  14  20
ENDBRANCH   9  10
ENDBRANCH   1   9
BRANCH   3  25
HETATM   25  N   UNL     1     -21.545  -5.732  -4.562  1.00  0.00    -0.364 N 
HETATM   26  C   UNL     1     -22.511  -5.939  -5.653  1.00  0.00     0.154 C 
HETATM   27  C   UNL     1     -21.875  -6.574  -6.907  1.00  0.00     0.293 C 
HETATM   28  N   UNL     1     -20.636  -5.903  -7.385  1.00  0.00     0.100 N 
HETATM   29  C   UNL     1     -19.689  -5.960  -6.241  1.00  0.00     0.293 C 
HETATM   30  C   UNL     1     -20.188  -5.298  -4.929  1.00  0.00     0.154 C 
BRANCH  28  31
HETATM   31  C   UNL     1     -20.876  -4.515  -7.868  1.00  0.00     0.252 C 
HETATM   32  C   UNL     1     -19.563  -3.730  -8.036  1.00  0.00     0.048 C 
BRANCH  31  33
HETATM   33  C   UNL     1     -21.647  -4.460  -9.192  1.00  0.00    -0.025 A 
HETATM   34  C   UNL     1     -23.055  -4.443  -9.174  1.00  0.00     0.012 A 
HETATM   35  C   UNL     1     -23.783  -4.427 -10.364  1.00  0.00     0.043 A 
HETATM   36  C   UNL     1     -23.109  -4.419 -11.579  1.00  0.00     0.116 A 
HETATM   37  F   UNL     1     -23.811  -4.413 -12.720  1.00  0.00    -0.206 F 
HETATM   38  C   UNL     1     -21.722  -4.420 -11.625  1.00  0.00     0.043 A 
HETATM   39  C   UNL     1     -20.991  -4.444 -10.435  1.00  0.00     0.012 A 
ENDBRANCH  31  33
ENDBRANCH  28  31
ENDBRANCH   3  25
TORSDOF 6
BEGIN_RES ARG D 557
REMARK  4 active torsions:
REMARK  status: ('A' for Active; 'I' for Inactive)
REMARK    1  A    between atoms: CA   and  CB  
REMARK    2  A    between atoms: CB   and  CG  
REMARK    3  A    between atoms: CG   and  CD  
REMARK    4  A    between atoms: CD   and  NE  
REMARK       I    between atoms: NE   and  CZ  
REMARK       I    between atoms: CZ   and  NH1 
REMARK       I    between atoms: CZ   and  NH2 
ROOT
ATOM      1  CA  ARG D 557     -26.217   2.705 -17.014  1.00 35.49     0.159 C 
ENDROOT
BRANCH   1   2
ATOM      2  CB  ARG D 557     -26.789   1.319 -17.183  1.00 35.49     0.034 C 
BRANCH   2   3
ATOM      3  CG  ARG D 557     -28.234   1.226 -17.426  1.00 35.49     0.027 C 
BRANCH   3   4
ATOM      4  CD  ARG D 557     -28.905   0.298 -16.487  1.00 35.49     0.116 C 
BRANCH   4   5
ATOM      5  NE  ARG D 557     -29.286  -0.936 -17.123  1.00 35.49    -0.212 N 
ATOM      6  CZ  ARG D 557     -28.643  -2.078 -17.028  1.00 35.49     0.666 C 
ATOM      7  NH1 ARG D 557     -27.534  -2.212 -16.325  1.00 35.49    -0.235 N 
ATOM      8  NH2 ARG D 557     -29.144  -3.103 -17.655  1.00 35.49    -0.235 N 
ATOM      9  HH  ARG D 557     -27.187  -1.552 -15.903  1.00 35.49     0.174 HD
ATOM     10  HH  ARG D 557     -27.160  -2.982 -16.297  1.00 35.49     0.174 HD
ATOM     11  HH  ARG D 557     -29.866  -2.989 -18.095  1.00 35.49     0.174 HD
ATOM     12  HH  ARG D 557     -28.760  -3.857 -17.614  1.00 35.49     0.174 HD
ATOM     13  HE  ARG D 557     -29.949  -0.923 -17.654  1.00 35.49     0.178 HD
ENDBRANCH   4   5
ENDBRANCH   3   4
ENDBRANCH   2   3
ENDBRANCH   1   2
END_RES ARG D 557
BEGIN_RES GLU D 570
REMARK  3 active torsions:
REMARK  status: ('A' for Active; 'I' for Inactive)
REMARK    5  A    between atoms: CA   and  CB  
REMARK    6  A    between atoms: CB   and  CG  
REMARK    7  A    between atoms: CG   and  CD  
ROOT
ATOM     14  CA  GLU D 570     -18.033  -6.348 -13.375  1.00 32.92     0.160 C 
ENDROOT
BRANCH  14  15
ATOM     15  CB  GLU D 570     -19.500  -6.345 -13.794  1.00 32.92     0.043 C 
BRANCH  15  16
ATOM     16  CG  GLU D 570     -19.809  -5.983 -15.201  1.00 32.92     0.100 C 
BRANCH  16  17
ATOM     17  CD  GLU D 570     -21.283  -5.747 -15.439  1.00 32.92     0.185 C 
ATOM     18  OE1 GLU D 570     -21.635  -5.043 -16.405  1.00 32.92    -0.647 OA
ATOM     19  OE2 GLU D 570     -22.093  -6.258 -14.641  1.00 32.92    -0.647 OA
ENDBRANCH  16  17
ENDBRANCH  15  16
ENDBRANCH  14  15
END_RES GLU D 570
ENDMDL
MODEL 6
REMARK VINA RESULT:      -9.7      7.320     12.903
REMARK  6 active torsions:
REMARK  status: ('A' for Active; 'I' for Inactive)
REMARK       I    between atoms: C_2  and  N_4 
REMARK    1  A    between atoms: N_4  and  C_5 
REMARK    2  A    between atoms: C_9  and  O_10 
REMARK    3  A    between atoms: O_10  and  C_11 
REMARK    4  A    between atoms: C_13  and  N_14 
REMARK    5  A    between atoms: N_17  and  C_18 
REMARK    6  A    between atoms: C_18  and  C_20 
ROOT
HETATM    1  C   UNL     1     -21.196  -9.367   0.225  1.00  0.00     0.152 A 
HETATM    2  C   UNL     1     -20.826  -8.953  -1.037  1.00  0.00     0.104 A 
HETATM    3  C   UNL     1     -21.462  -7.835  -1.551  1.00  0.00     0.108 A 
HETATM    4  N   UNL     1     -22.425  -7.217  -0.846  1.00  0.00    -0.339 N 
ATOM      5  HN  UNL     1     -22.886  -6.381  -1.202  1.00  0.00     0.168 HD
HETATM    6  C   UNL     1     -22.755  -7.742   0.343  1.00  0.00     0.183 A 
HETATM    7  N   UNL     1     -22.191  -8.804   0.923  1.00  0.00    -0.333 N 
ATOM      8  HN  UNL     1     -22.496  -9.160   1.830  1.00  0.00     0.168 HD
ENDROOT
BRANCH   1   9
HETATM    9  O   UNL     1     -20.468 -10.415   0.784  1.00  0.00    -0.291 OA
BRANCH   9  10
HETATM   10  C   UNL     1     -20.798 -11.711   0.411  1.00  0.00     0.105 A 
HETATM   11  C   UNL     1     -19.916 -12.430  -0.438  1.00  0.00     0.085 A 
HETATM   12  N   UNL     1     -18.713 -11.979  -0.992  1.00  0.00    -0.333 N 
HETATM   13  C   UNL     1     -20.259 -13.737  -0.797  1.00  0.00     0.038 A 
HETATM   14  C   UNL     1     -18.239 -12.885  -1.815  1.00  0.00     0.152 A 
ATOM     15  HN  UNL     1     -18.271 -11.083  -0.788  1.00  0.00     0.168 HD
HETATM   16  S   UNL     1     -19.062 -14.371  -1.847  1.00  0.00    -0.052 SA
HETATM   17  C   UNL     1     -21.422 -14.374  -0.339  1.00  0.00     0.021 A 
HETATM   18  C   UNL     1     -22.261 -13.667   0.518  1.00  0.00     0.004 A 
HETATM   19  C   UNL     1     -21.944 -12.369   0.905  1.00  0.00     0.040 A 
BRANCH  14  20
HETATM   20  N   UNL     1     -17.106 -12.674  -2.565  1.00  0.00    -0.307 N 
HETATM   21  C   UNL     1     -16.028 -11.903  -2.182  1.00  0.00     0.219 C 
HETATM   22  C   UNL     1     -14.954 -11.848  -3.237  1.00  0.00     0.117 C 
HETATM   23  O   UNL     1     -15.877 -11.308  -1.120  1.00  0.00    -0.274 OA
HETATM   24  H   UNL     1     -17.019 -13.300  -3.353  1.00  0.00     0.171 HD
ENDBRANCH  14  20
ENDBRANCH   9  10
ENDBRANCH   1   9
BRANCH   3  25
HETATM   25  N   UNL     1     -21.057  -7.296  -2.763  1.00  0.00    -0.364 N 
HETATM   26  C   UNL     1     -21.831  -6.174  -3.319  1.00  0.00     0.154 C 
HETATM   27  C   UNL     1     -22.523  -6.523  -4.652  1.00  0.00     0.293 C 
HETATM   28  N   UNL     1     -21.635  -7.142  -5.673  1.00  0.00     0.100 N 
HETATM   29  C   UNL     1     -21.095  -8.372  -5.034  1.00  0.00     0.293 C 
HETATM   30  C   UNL     1     -20.319  -8.148  -3.709  1.00  0.00     0.154 C 
BRANCH  28  31
HETATM   31  C   UNL     1     -20.565  -6.221  -6.148  1.00  0.00     0.252 C 
HETATM   32  C   UNL     1     -19.274  -6.977  -6.509  1.00  0.00     0.048 C 
BRANCH  31  33
HETATM   33  C   UNL     1     -20.987  -5.377  -7.357  1.00  0.00    -0.025 A 
HETATM   34  C   UNL     1     -20.075  -5.169  -8.409  1.00  0.00     0.012 A 
HETATM   35  C   UNL     1     -20.420  -4.379  -9.506  1.00  0.00     0.043 A 
HETATM   36  C   UNL     1     -21.681  -3.798  -9.562  1.00  0.00     0.116 A 
HETATM   37  F   UNL     1     -22.006  -3.032 -10.612  1.00  0.00    -0.206 F 
HETATM   38  C   UNL     1     -22.604  -3.999  -8.545  1.00  0.00     0.043 A 
HETATM   39  C   UNL     1     -22.259  -4.784  -7.442  1.00  0.00     0.012 A 
ENDBRANCH  31  33
ENDBRANCH  28  31
ENDBRANCH   3  25
TORSDOF 6
BEGIN_RES ARG D 557
REMARK  4 active torsions:
REMARK  status: ('A' for Active; 'I' for Inactive)
REMARK    1  A    between atoms: CA   and  CB  
REMARK    2  A    between atoms: CB   and  CG  
REMARK    3  A    between atoms: CG   and  CD  
REMARK    4  A    between atoms: CD   and  NE  
REMARK       I    between atoms: NE   and  CZ  
REMARK       I    between atoms: CZ   and  NH1 
REMARK       I    between atoms: CZ   and  NH2 
ROOT
ATOM      1  CA  ARG D 557     -26.217   2.705 -17.014  1.00 35.49     0.159 C 
ENDROOT
BRANCH   1   2
ATOM      2  CB  ARG D 557     -26.789   1.319 -17.183  1.00 35.49     0.034 C 
BRANCH   2   3
ATOM      3  CG  ARG D 557     -25.835   0.203 -17.159  1.00 35.49     0.027 C 
BRANCH   3   4
ATOM      4  CD  ARG D 557     -24.749   0.410 -16.174  1.00 35.49     0.116 C 
BRANCH   4   5
ATOM      5  NE  ARG D 557     -24.898  -0.433 -15.018  1.00 35.49    -0.212 N 
ATOM      6  CZ  ARG D 557     -24.084  -1.404 -14.665  1.00 35.49     0.666 C 
ATOM      7  NH1 ARG D 557     -23.015  -1.724 -15.370  1.00 35.49    -0.235 N 
ATOM      8  NH2 ARG D 557     -24.363  -2.053 -13.572  1.00 35.49    -0.235 N 
ATOM      9  HH  ARG D 557     -22.812  -1.309 -16.092  1.00 35.49     0.174 HD
ATOM     10  HH  ARG D 557     -22.520  -2.365 -15.090  1.00 35.49     0.174 HD
ATOM     11  HH  ARG D 557     -25.055  -1.819 -13.133  1.00 35.49     0.174 HD
ATOM     12  HH  ARG D 557     -23.859  -2.683 -13.310  1.00 35.49     0.174 HD
ATOM     13  HE  ARG D 557     -25.599  -0.344 -14.546  1.00 35.49     0.178 HD
ENDBRANCH   4   5
ENDBRANCH   3   4
ENDBRANCH   2   3
ENDBRANCH   1   2
END_RES ARG D 557
BEGIN_RES GLU D 570
REMARK  3 active torsions:
REMARK  status: ('A' for Active; 'I' for Inactive)
REMARK    5  A    between atoms: CA   and  CB  
REMARK    6  A    between atoms: CB   and  CG  
REMARK    7  A    between atoms: CG   and  CD  
ROOT
ATOM     14  CA  GLU D 570     -18.033  -6.348 -13.375  1.00 32.92     0.160 C 
ENDROOT
BRANCH  14  15
ATOM     15  CB  GLU D 570     -19.500  -6.345 -13.794  1.00 32.92     0.043 C 
BRANCH  15  16
ATOM     16  CG  GLU D 570     -20.440  -5.520 -12.991  1.00 32.92     0.100 C 
BRANCH  16  17
ATOM     17  CD  GLU D 570     -21.730  -5.222 -13.718  1.00 32.92     0.185 C 
ATOM     18  OE1 GLU D 570     -22.317  -4.146 -13.492  1.00 32.92    -0.647 OA
ATOM     19  OE2 GLU D 570     -22.169  -6.081 -14.508  1.00 32.92    -0.647 OA
ENDBRANCH  16  17
ENDBRANCH  15  16
ENDBRANCH  14  15
END_RES GLU D 570
ENDMDL
MODEL 7
REMARK VINA RESULT:      -9.5      6.809     11.955
REMARK  6 active torsions:
REMARK  status: ('A' for Active; 'I' for Inactive)
REMARK       I    between atoms: C_2  and  N_4 
REMARK    1  A    between atoms: N_4  and  C_5 
REMARK    2  A    between atoms: C_9  and  O_10 
REMARK    3  A    between atoms: O_10  and  C_11 
REMARK    4  A    between atoms: C_13  and  N_14 
REMARK    5  A    between atoms: N_17  and  C_18 
REMARK    6  A    between atoms: C_18  and  C_20 
ROOT
HETATM    1  C   UNL     1     -21.232  -9.998  -0.330  1.00  0.00     0.152 A 
HETATM    2  C   UNL     1     -20.970  -9.439  -1.562  1.00  0.00     0.104 A 
HETATM    3  C   UNL     1     -21.303  -8.106  -1.738  1.00  0.00     0.108 A 
HETATM    4  N   UNL     1     -21.891  -7.416  -0.747  1.00  0.00    -0.339 N 
ATOM      5  HN  UNL     1     -22.121  -6.429  -0.855  1.00  0.00     0.168 HD
HETATM    6  C   UNL     1     -22.163  -8.074   0.389  1.00  0.00     0.183 A 
HETATM    7  N   UNL     1     -21.869  -9.349   0.654  1.00  0.00    -0.333 N 
ATOM      8  HN  UNL     1     -22.112  -9.795   1.539  1.00  0.00     0.168 HD
ENDROOT
BRANCH   1   9
HETATM    9  O   UNL     1     -20.784 -11.301  -0.120  1.00  0.00    -0.291 OA
BRANCH   9  10
HETATM   10  C   UNL     1     -21.731 -12.313  -0.052  1.00  0.00     0.105 A 
HETATM   11  C   UNL     1     -22.103 -12.990  -1.243  1.00  0.00     0.085 A 
HETATM   12  N   UNL     1     -21.638 -12.748  -2.540  1.00  0.00    -0.333 N 
HETATM   13  C   UNL     1     -23.052 -14.014  -1.156  1.00  0.00     0.038 A 
HETATM   14  C   UNL     1     -22.298 -13.495  -3.393  1.00  0.00     0.152 A 
ATOM     15  HN  UNL     1     -20.898 -12.090  -2.786  1.00  0.00     0.168 HD
HETATM   16  S   UNL     1     -23.355 -14.643  -2.721  1.00  0.00    -0.052 SA
HETATM   17  C   UNL     1     -23.634 -14.413   0.057  1.00  0.00     0.021 A 
HETATM   18  C   UNL     1     -23.235 -13.762   1.220  1.00  0.00     0.004 A 
HETATM   19  C   UNL     1     -22.285 -12.747   1.171  1.00  0.00     0.040 A 
BRANCH  14  20
HETATM   20  N   UNL     1     -22.105 -13.404  -4.751  1.00  0.00    -0.307 N 
HETATM   21  C   UNL     1     -21.228 -12.541  -5.376  1.00  0.00     0.219 C 
HETATM   22  C   UNL     1     -21.268 -12.665  -6.877  1.00  0.00     0.117 C 
HETATM   23  O   UNL     1     -20.464 -11.742  -4.846  1.00  0.00    -0.274 OA
HETATM   24  H   UNL     1     -22.507 -14.172  -5.271  1.00  0.00     0.171 HD
ENDBRANCH  14  20
ENDBRANCH   9  10
ENDBRANCH   1   9
BRANCH   3  25
HETATM   25  N   UNL     1     -20.960  -7.450  -2.911  1.00  0.00    -0.364 N 
HETATM   26  C   UNL     1     -21.742  -6.264  -3.299  1.00  0.00     0.154 C 
HETATM   27  C   UNL     1     -22.521  -6.462  -4.615  1.00  0.00     0.293 C 
HETATM   28  N   UNL     1     -21.710  -6.984  -5.748  1.00  0.00     0.100 N 
HETATM   29  C   UNL     1     -21.159  -8.281  -5.274  1.00  0.00     0.293 C 
HETATM   30  C   UNL     1     -20.299  -8.209  -3.984  1.00  0.00     0.154 C 
BRANCH  28  31
HETATM   31  C   UNL     1     -20.651  -6.034  -6.191  1.00  0.00     0.252 C 
HETATM   32  C   UNL     1     -19.323  -6.753  -6.490  1.00  0.00     0.048 C 
BRANCH  31  33
HETATM   33  C   UNL     1     -21.050  -5.218  -7.426  1.00  0.00    -0.025 A 
HETATM   34  C   UNL     1     -20.146  -5.097  -8.498  1.00  0.00     0.012 A 
HETATM   35  C   UNL     1     -20.469  -4.333  -9.621  1.00  0.00     0.043 A 
HETATM   36  C   UNL     1     -21.700  -3.693  -9.682  1.00  0.00     0.116 A 
HETATM   37  F   UNL     1     -22.003  -2.952 -10.756  1.00  0.00    -0.206 F 
HETATM   38  C   UNL     1     -22.616  -3.808  -8.645  1.00  0.00     0.043 A 
HETATM   39  C   UNL     1     -22.292  -4.565  -7.517  1.00  0.00     0.012 A 
ENDBRANCH  31  33
ENDBRANCH  28  31
ENDBRANCH   3  25
TORSDOF 6
BEGIN_RES ARG D 557
REMARK  4 active torsions:
REMARK  status: ('A' for Active; 'I' for Inactive)
REMARK    1  A    between atoms: CA   and  CB  
REMARK    2  A    between atoms: CB   and  CG  
REMARK    3  A    between atoms: CG   and  CD  
REMARK    4  A    between atoms: CD   and  NE  
REMARK       I    between atoms: NE   and  CZ  
REMARK       I    between atoms: CZ   and  NH1 
REMARK       I    between atoms: CZ   and  NH2 
ROOT
ATOM      1  CA  ARG D 557     -26.217   2.705 -17.014  1.00 35.49     0.159 C 
ENDROOT
BRANCH   1   2
ATOM      2  CB  ARG D 557     -26.789   1.319 -17.183  1.00 35.49     0.034 C 
BRANCH   2   3
ATOM      3  CG  ARG D 557     -25.836   0.203 -17.150  1.00 35.49     0.027 C 
BRANCH   3   4
ATOM      4  CD  ARG D 557     -24.748   0.419 -16.169  1.00 35.49     0.116 C 
BRANCH   4   5
ATOM      5  NE  ARG D 557     -24.881  -0.431 -15.015  1.00 35.49    -0.212 N 
ATOM      6  CZ  ARG D 557     -24.061  -1.399 -14.675  1.00 35.49     0.666 C 
ATOM      7  NH1 ARG D 557     -22.998  -1.713 -15.393  1.00 35.49    -0.235 N 
ATOM      8  NH2 ARG D 557     -24.325  -2.054 -13.582  1.00 35.49    -0.235 N 
ATOM      9  HH  ARG D 557     -22.803  -1.294 -16.115  1.00 35.49     0.174 HD
ATOM     10  HH  ARG D 557     -22.497  -2.352 -15.120  1.00 35.49     0.174 HD
ATOM     11  HH  ARG D 557     -25.014  -1.825 -13.135  1.00 35.49     0.174 HD
ATOM     12  HH  ARG D 557     -23.816  -2.683 -13.328  1.00 35.49     0.174 HD
ATOM     13  HE  ARG D 557     -25.578  -0.346 -14.535  1.00 35.49     0.178 HD
ENDBRANCH   4   5
ENDBRANCH   3   4
ENDBRANCH   2   3
ENDBRANCH   1   2
END_RES ARG D 557
BEGIN_RES GLU D 570
REMARK  3 active torsions:
REMARK  status: ('A' for Active; 'I' for Inactive)
REMARK    5  A    between atoms: CA   and  CB  
REMARK    6  A    between atoms: CB   and  CG  
REMARK    7  A    between atoms: CG   and  CD  
ROOT
ATOM     14  CA  GLU D 570     -18.033  -6.348 -13.375  1.00 32.92     0.160 C 
ENDROOT
BRANCH  14  15
ATOM     15  CB  GLU D 570     -19.500  -6.345 -13.794  1.00 32.92     0.043 C 
BRANCH  15  16
ATOM     16  CG  GLU D 570     -20.430  -5.477 -13.026  1.00 32.92     0.100 C 
BRANCH  16  17
ATOM     17  CD  GLU D 570     -21.737  -5.233 -13.743  1.00 32.92     0.185 C 
ATOM     18  OE1 GLU D 570     -22.381  -4.196 -13.491  1.00 32.92    -0.647 OA
ATOM     19  OE2 GLU D 570     -22.129  -6.095 -14.553  1.00 32.92    -0.647 OA
ENDBRANCH  16  17
ENDBRANCH  15  16
ENDBRANCH  14  15
END_RES GLU D 570
ENDMDL
MODEL 8
REMARK VINA RESULT:      -9.5      6.791     12.414
REMARK  6 active torsions:
REMARK  status: ('A' for Active; 'I' for Inactive)
REMARK       I    between atoms: C_2  and  N_4 
REMARK    1  A    between atoms: N_4  and  C_5 
REMARK    2  A    between atoms: C_9  and  O_10 
REMARK    3  A    between atoms: O_10  and  C_11 
REMARK    4  A    between atoms: C_13  and  N_14 
REMARK    5  A    between atoms: N_17  and  C_18 
REMARK    6  A    between atoms: C_18  and  C_20 
ROOT
HETATM    1  C   UNL     1     -21.313  -8.581  -2.895  1.00  0.00     0.152 A 
HETATM    2  C   UNL     1     -21.300  -7.823  -4.046  1.00  0.00     0.104 A 
HETATM    3  C   UNL     1     -21.529  -6.464  -3.913  1.00  0.00     0.108 A 
HETATM    4  N   UNL     1     -21.790  -5.933  -2.707  1.00  0.00    -0.339 N 
ATOM      5  HN  UNL     1     -21.939  -4.931  -2.592  1.00  0.00     0.168 HD
HETATM    6  C   UNL     1     -21.846  -6.770  -1.661  1.00  0.00     0.183 A 
HETATM    7  N   UNL     1     -21.627  -8.086  -1.689  1.00  0.00    -0.333 N 
ATOM      8  HN  UNL     1     -21.694  -8.671  -0.856  1.00  0.00     0.168 HD
ENDROOT
BRANCH   1   9
HETATM    9  O   UNL     1     -20.962  -9.924  -3.019  1.00  0.00    -0.291 OA
BRANCH   9  10
HETATM   10  C   UNL     1     -19.708 -10.314  -2.571  1.00  0.00     0.105 A 
HETATM   11  C   UNL     1     -19.614 -11.333  -1.586  1.00  0.00     0.085 A 
HETATM   12  N   UNL     1     -20.666 -12.011  -0.961  1.00  0.00    -0.333 N 
HETATM   13  C   UNL     1     -18.343 -11.721  -1.151  1.00  0.00     0.038 A 
HETATM   14  C   UNL     1     -20.190 -12.797  -0.024  1.00  0.00     0.152 A 
ATOM     15  HN  UNL     1     -21.653 -11.911  -1.198  1.00  0.00     0.168 HD
HETATM   16  S   UNL     1     -18.498 -12.928   0.055  1.00  0.00    -0.052 SA
HETATM   17  C   UNL     1     -17.160 -11.164  -1.661  1.00  0.00     0.021 A 
HETATM   18  C   UNL     1     -17.267 -10.190  -2.649  1.00  0.00     0.004 A 
HETATM   19  C   UNL     1     -18.516  -9.789  -3.112  1.00  0.00     0.040 A 
BRANCH  14  20
HETATM   20  N   UNL     1     -21.007 -13.525   0.808  1.00  0.00    -0.307 N 
HETATM   21  C   UNL     1     -22.308 -13.200   1.133  1.00  0.00     0.219 C 
HETATM   22  C   UNL     1     -22.927 -14.185   2.090  1.00  0.00     0.117 C 
HETATM   23  O   UNL     1     -22.962 -12.246   0.726  1.00  0.00    -0.274 OA
HETATM   24  H   UNL     1     -20.656 -14.450   1.014  1.00  0.00     0.171 HD
ENDBRANCH  14  20
ENDBRANCH   9  10
ENDBRANCH   1   9
BRANCH   3  25
HETATM   25  N   UNL     1     -21.414  -5.626  -5.013  1.00  0.00    -0.364 N 
HETATM   26  C   UNL     1     -22.468  -5.677  -6.040  1.00  0.00     0.154 C 
HETATM   27  C   UNL     1     -21.950  -6.171  -7.407  1.00  0.00     0.293 C 
HETATM   28  N   UNL     1     -20.729  -5.477  -7.900  1.00  0.00     0.100 N 
HETATM   29  C   UNL     1     -19.700  -5.694  -6.849  1.00  0.00     0.293 C 
HETATM   30  C   UNL     1     -20.076  -5.183  -5.433  1.00  0.00     0.154 C 
BRANCH  28  31
HETATM   31  C   UNL     1     -20.960  -4.035  -8.194  1.00  0.00     0.252 C 
HETATM   32  C   UNL     1     -19.657  -3.313  -8.584  1.00  0.00     0.048 C 
BRANCH  31  33
HETATM   33  C   UNL     1     -21.994  -3.802  -9.302  1.00  0.00    -0.025 A 
HETATM   34  C   UNL     1     -21.564  -3.683 -10.637  1.00  0.00     0.012 A 
HETATM   35  C   UNL     1     -22.478  -3.438 -11.662  1.00  0.00     0.043 A 
HETATM   36  C   UNL     1     -23.829  -3.318 -11.360  1.00  0.00     0.116 A 
HETATM   37  F   UNL     1     -24.704  -3.072 -12.344  1.00  0.00    -0.206 F 
HETATM   38  C   UNL     1     -24.281  -3.445 -10.053  1.00  0.00     0.043 A 
HETATM   39  C   UNL     1     -23.367  -3.683  -9.025  1.00  0.00     0.012 A 
ENDBRANCH  31  33
ENDBRANCH  28  31
ENDBRANCH   3  25
TORSDOF 6
BEGIN_RES ARG D 557
REMARK  4 active torsions:
REMARK  status: ('A' for Active; 'I' for Inactive)
REMARK    1  A    between atoms: CA   and  CB  
REMARK    2  A    between atoms: CB   and  CG  
REMARK    3  A    between atoms: CG   and  CD  
REMARK    4  A    between atoms: CD   and  NE  
REMARK       I    between atoms: NE   and  CZ  
REMARK       I    between atoms: CZ   and  NH1 
REMARK       I    between atoms: CZ   and  NH2 
ROOT
ATOM      1  CA  ARG D 557     -26.217   2.705 -17.014  1.00 35.49     0.159 C 
ENDROOT
BRANCH   1   2
ATOM      2  CB  ARG D 557     -26.789   1.319 -17.183  1.00 35.49     0.034 C 
BRANCH   2   3
ATOM      3  CG  ARG D 557     -28.247   1.188 -17.072  1.00 35.49     0.027 C 
BRANCH   3   4
ATOM      4  CD  ARG D 557     -28.673  -0.216 -16.869  1.00 35.49     0.116 C 
BRANCH   4   5
ATOM      5  NE  ARG D 557     -27.704  -0.974 -16.123  1.00 35.49    -0.212 N 
ATOM      6  CZ  ARG D 557     -27.558  -2.280 -16.158  1.00 35.49     0.666 C 
ATOM      7  NH1 ARG D 557     -28.325  -3.059 -16.899  1.00 35.49    -0.235 N 
ATOM      8  NH2 ARG D 557     -26.611  -2.798 -15.432  1.00 35.49    -0.235 N 
ATOM      9  HH  ARG D 557     -28.953  -2.739 -17.387  1.00 35.49     0.174 HD
ATOM     10  HH  ARG D 557     -28.182  -3.904 -16.884  1.00 35.49     0.174 HD
ATOM     11  HH  ARG D 557     -26.127  -2.270 -14.969  1.00 35.49     0.174 HD
ATOM     12  HH  ARG D 557     -26.485  -3.637 -15.431  1.00 35.49     0.174 HD
ATOM     13  HE  ARG D 557     -27.216  -0.559 -15.564  1.00 35.49     0.178 HD
ENDBRANCH   4   5
ENDBRANCH   3   4
ENDBRANCH   2   3
ENDBRANCH   1   2
END_RES ARG D 557
BEGIN_RES GLU D 570
REMARK  3 active torsions:
REMARK  status: ('A' for Active; 'I' for Inactive)
REMARK    5  A    between atoms: CA   and  CB  
REMARK    6  A    between atoms: CB   and  CG  
REMARK    7  A    between atoms: CG   and  CD  
ROOT
ATOM     14  CA  GLU D 570     -18.033  -6.348 -13.375  1.00 32.92     0.160 C 
ENDROOT
BRANCH  14  15
ATOM     15  CB  GLU D 570     -19.500  -6.345 -13.794  1.00 32.92     0.043 C 
BRANCH  15  16
ATOM     16  CG  GLU D 570     -19.813  -5.939 -15.189  1.00 32.92     0.100 C 
BRANCH  16  17
ATOM     17  CD  GLU D 570     -21.294  -5.776 -15.437  1.00 32.92     0.185 C 
ATOM     18  OE1 GLU D 570     -21.732  -4.659 -15.774  1.00 32.92    -0.647 OA
ATOM     19  OE2 GLU D 570     -22.027  -6.771 -15.276  1.00 32.92    -0.647 OA
ENDBRANCH  16  17
ENDBRANCH  15  16
ENDBRANCH  14  15
END_RES GLU D 570
ENDMDL
MODEL 9
REMARK VINA RESULT:      -9.5      6.837     12.435
REMARK  6 active torsions:
REMARK  status: ('A' for Active; 'I' for Inactive)
REMARK       I    between atoms: C_2  and  N_4 
REMARK    1  A    between atoms: N_4  and  C_5 
REMARK    2  A    between atoms: C_9  and  O_10 
REMARK    3  A    between atoms: O_10  and  C_11 
REMARK    4  A    between atoms: C_13  and  N_14 
REMARK    5  A    between atoms: N_17  and  C_18 
REMARK    6  A    between atoms: C_18  and  C_20 
ROOT
HETATM    1  C   UNL     1     -20.939  -8.197  -2.159  1.00  0.00     0.152 A 
HETATM    2  C   UNL     1     -20.884  -7.573  -3.387  1.00  0.00     0.104 A 
HETATM    3  C   UNL     1     -21.562  -6.373  -3.521  1.00  0.00     0.108 A 
HETATM    4  N   UNL     1     -22.269  -5.874  -2.493  1.00  0.00    -0.339 N 
ATOM      5  HN  UNL     1     -22.755  -4.981  -2.570  1.00  0.00     0.168 HD
HETATM    6  C   UNL     1     -22.311  -6.595  -1.363  1.00  0.00     0.183 A 
HETATM    7  N   UNL     1     -21.683  -7.750  -1.138  1.00  0.00    -0.333 N 
ATOM      8  HN  UNL     1     -21.763  -8.255  -0.255  1.00  0.00     0.168 HD
ENDROOT
BRANCH   1   9
HETATM    9  O   UNL     1     -20.157  -9.338  -1.995  1.00  0.00    -0.291 OA
BRANCH   9  10
HETATM   10  C   UNL     1     -20.803 -10.561  -1.877  1.00  0.00     0.105 A 
HETATM   11  C   UNL     1     -20.195 -11.590  -1.110  1.00  0.00     0.085 A 
HETATM   12  N   UNL     1     -18.965 -11.542  -0.446  1.00  0.00    -0.333 N 
HETATM   13  C   UNL     1     -20.863 -12.813  -0.993  1.00  0.00     0.038 A 
HETATM   14  C   UNL     1     -18.688 -12.723   0.055  1.00  0.00     0.152 A 
ATOM     15  HN  UNL     1     -18.373 -10.715  -0.363  1.00  0.00     0.168 HD
HETATM   16  S   UNL     1     -19.915 -13.892  -0.058  1.00  0.00    -0.052 SA
HETATM   17  C   UNL     1     -22.114 -13.058  -1.581  1.00  0.00     0.021 A 
HETATM   18  C   UNL     1     -22.711 -12.029  -2.302  1.00  0.00     0.004 A 
HETATM   19  C   UNL     1     -22.080 -10.796  -2.429  1.00  0.00     0.040 A 
BRANCH  14  20
HETATM   20  N   UNL     1     -17.498 -12.988   0.693  1.00  0.00    -0.307 N 
HETATM   21  C   UNL     1     -16.288 -12.392   0.405  1.00  0.00     0.219 C 
HETATM   22  C   UNL     1     -15.168 -12.917   1.263  1.00  0.00     0.117 C 
HETATM   23  O   UNL     1     -16.067 -11.520  -0.429  1.00  0.00    -0.274 OA
HETATM   24  H   UNL     1     -17.606 -13.514   1.549  1.00  0.00     0.171 HD
ENDBRANCH  14  20
ENDBRANCH   9  10
ENDBRANCH   1   9
BRANCH   3  25
HETATM   25  N   UNL     1     -21.453  -5.635  -4.690  1.00  0.00    -0.364 N 
HETATM   26  C   UNL     1     -22.435  -5.877  -5.760  1.00  0.00     0.154 C 
HETATM   27  C   UNL     1     -21.797  -6.449  -7.043  1.00  0.00     0.293 C 
HETATM   28  N   UNL     1     -20.612  -5.699  -7.539  1.00  0.00     0.100 N 
HETATM   29  C   UNL     1     -19.633  -5.722  -6.421  1.00  0.00     0.293 C 
HETATM   30  C   UNL     1     -20.133  -5.115  -5.083  1.00  0.00     0.154 C 
BRANCH  28  31
HETATM   31  C   UNL     1     -20.945  -4.317  -7.986  1.00  0.00     0.252 C 
HETATM   32  C   UNL     1     -19.682  -3.486  -8.273  1.00  0.00     0.048 C 
BRANCH  31  33
HETATM   33  C   UNL     1     -21.840  -4.284  -9.230  1.00  0.00    -0.025 A 
HETATM   34  C   UNL     1     -21.266  -4.467 -10.502  1.00  0.00     0.012 A 
HETATM   35  C   UNL     1     -22.050  -4.408 -11.655  1.00  0.00     0.043 A 
HETATM   36  C   UNL     1     -23.415  -4.175 -11.542  1.00  0.00     0.116 A 
HETATM   37  F   UNL     1     -24.165  -4.110 -12.651  1.00  0.00    -0.206 F 
HETATM   38  C   UNL     1     -24.010  -4.006 -10.299  1.00  0.00     0.043 A 
HETATM   39  C   UNL     1     -23.226  -4.057  -9.145  1.00  0.00     0.012 A 
ENDBRANCH  31  33
ENDBRANCH  28  31
ENDBRANCH   3  25
TORSDOF 6
BEGIN_RES ARG D 557
REMARK  4 active torsions:
REMARK  status: ('A' for Active; 'I' for Inactive)
REMARK    1  A    between atoms: CA   and  CB  
REMARK    2  A    between atoms: CB   and  CG  
REMARK    3  A    between atoms: CG   and  CD  
REMARK    4  A    between atoms: CD   and  NE  
REMARK       I    between atoms: NE   and  CZ  
REMARK       I    between atoms: CZ   and  NH1 
REMARK       I    between atoms: CZ   and  NH2 
ROOT
ATOM      1  CA  ARG D 557     -26.217   2.705 -17.014  1.00 35.49     0.159 C 
ENDROOT
BRANCH   1   2
ATOM      2  CB  ARG D 557     -26.789   1.319 -17.183  1.00 35.49     0.034 C 
BRANCH   2   3
ATOM      3  CG  ARG D 557     -28.234   1.226 -17.427  1.00 35.49     0.027 C 
BRANCH   3   4
ATOM      4  CD  ARG D 557     -28.904   0.293 -16.493  1.00 35.49     0.116 C 
BRANCH   4   5
ATOM      5  NE  ARG D 557     -29.305  -0.929 -17.141  1.00 35.49    -0.212 N 
ATOM      6  CZ  ARG D 557     -28.688  -2.085 -17.048  1.00 35.49     0.666 C 
ATOM      7  NH1 ARG D 557     -27.589  -2.248 -16.335  1.00 35.49    -0.235 N 
ATOM      8  NH2 ARG D 557     -29.205  -3.094 -17.687  1.00 35.49    -0.235 N 
ATOM      9  HH  ARG D 557     -27.232  -1.598 -15.904  1.00 35.49     0.174 HD
ATOM     10  HH  ARG D 557     -27.232  -3.026 -16.309  1.00 35.49     0.174 HD
ATOM     11  HH  ARG D 557     -29.919  -2.962 -18.133  1.00 35.49     0.174 HD
ATOM     12  HH  ARG D 557     -28.837  -3.857 -17.648  1.00 35.49     0.174 HD
ATOM     13  HE  ARG D 557     -29.963  -0.898 -17.679  1.00 35.49     0.178 HD
ENDBRANCH   4   5
ENDBRANCH   3   4
ENDBRANCH   2   3
ENDBRANCH   1   2
END_RES ARG D 557
BEGIN_RES GLU D 570
REMARK  3 active torsions:
REMARK  status: ('A' for Active; 'I' for Inactive)
REMARK    5  A    between atoms: CA   and  CB  
REMARK    6  A    between atoms: CB   and  CG  
REMARK    7  A    between atoms: CG   and  CD  
ROOT
ATOM     14  CA  GLU D 570     -18.033  -6.348 -13.375  1.00 32.92     0.160 C 
ENDROOT
BRANCH  14  15
ATOM     15  CB  GLU D 570     -19.500  -6.345 -13.794  1.00 32.92     0.043 C 
BRANCH  15  16
ATOM     16  CG  GLU D 570     -20.077  -7.627 -14.275  1.00 32.92     0.100 C 
BRANCH  16  17
ATOM     17  CD  GLU D 570     -21.138  -7.435 -15.334  1.00 32.92     0.185 C 
ATOM     18  OE1 GLU D 570     -21.949  -6.497 -15.215  1.00 32.92    -0.647 OA
ATOM     19  OE2 GLU D 570     -21.167  -8.241 -16.284  1.00 32.92    -0.647 OA
ENDBRANCH  16  17
ENDBRANCH  15  16
ENDBRANCH  14  15
END_RES GLU D 570
ENDMDL
