MODEL 1
REMARK VINA RESULT:      -6.0      0.000      0.000
REMARK  10 active torsions:
REMARK  status: ('A' for Active; 'I' for Inactive)
REMARK    1  A    between atoms: C_2  and  O_3 
REMARK    2  A    between atoms: O_3  and  C_4 
REMARK    3  A    between atoms: C_4  and  C_6 
REMARK    4  A    between atoms: C_7  and  C_8 
REMARK    5  A    between atoms: C_17  and  C_18 
REMARK    6  A    between atoms: C_18  and  S_20 
REMARK    7  A    between atoms: S_20  and  C_21 
REMARK    8  A    between atoms: C_21  and  C_22 
REMARK    9  A    between atoms: C_22  and  O_23 
REMARK   10  A    between atoms: C_25  and  C_26 
ROOT
HETATM    1  C   UNL     1     -20.936  -8.731  -3.803  1.00  0.00     0.053 C 
HETATM    2  C   UNL     1     -21.318  -7.446  -3.609  1.00  0.00     0.055 C 
HETATM    3  N   UNL     1     -21.798  -7.036  -2.387  1.00  0.00    -0.358 N 
HETATM    4  C   UNL     1     -22.045  -7.868  -1.304  1.00  0.00     0.017 C 
HETATM    5  C   UNL     1     -22.659  -7.137  -0.126  1.00  0.00     0.069 C 
HETATM    6  C   UNL     1     -21.712  -9.188  -1.359  1.00  0.00     0.030 C 
HETATM    7  C   UNL     1     -20.978  -9.739  -2.628  1.00  0.00     0.066 C 
HETATM    8  H   UNL     1     -22.032  -6.048  -2.309  1.00  0.00     0.166 HD
ENDROOT
BRANCH   6   9
HETATM    9  C   UNL     1     -21.983 -10.083  -0.157  1.00  0.00     0.217 C 
HETATM   10  O   UNL     1     -21.117 -10.397   0.650  1.00  0.00    -0.280 OA
BRANCH   9  11
HETATM   11  S   UNL     1     -23.600 -10.761   0.030  1.00  0.00    -0.085 SA
BRANCH  11  12
HETATM   12  C   UNL     1     -23.290 -12.567   0.007  1.00  0.00     0.108 C 
BRANCH  12  13
HETATM   13  C   UNL     1     -23.244 -13.297   1.355  1.00  0.00     0.177 C 
BRANCH  13  14
HETATM   14  O   UNL     1     -21.901 -13.624   1.715  1.00  0.00    -0.395 OA
HETATM   15  C   UNL     1     -21.102 -13.895   0.566  1.00  0.00     0.201 C 
ENDBRANCH  13  14
ENDBRANCH  12  13
ENDBRANCH  11  12
ENDBRANCH   9  11
ENDBRANCH   6   9
BRANCH   7  16
HETATM   16  C   UNL     1     -21.388 -11.166  -3.075  1.00  0.00     0.010 C 
HETATM   17  C   UNL     1     -22.792 -11.340  -3.607  1.00  0.00     0.006 C 
ENDBRANCH   7  16
BRANCH   1  18
HETATM   18  C   UNL     1     -20.391  -9.104  -5.143  1.00  0.00     0.292 C 
HETATM   19  O   UNL     1     -21.038  -9.569  -6.076  1.00  0.00    -0.259 OA
BRANCH  18  20
HETATM   20  O   UNL     1     -19.078  -8.845  -5.224  1.00  0.00    -0.318 OA
BRANCH  20  21
HETATM   21  C   UNL     1     -18.166  -9.924  -5.007  1.00  0.00     0.174 C 
HETATM   22  C   UNL     1     -17.347  -9.708  -3.751  1.00  0.00     0.034 C 
ENDBRANCH  20  21
ENDBRANCH  18  20
ENDBRANCH   1  18
BRANCH   2  23
HETATM   23  C   UNL     1     -21.273  -6.380  -4.634  1.00  0.00    -0.009 A 
HETATM   24  C   UNL     1     -22.337  -6.209  -5.536  1.00  0.00     0.014 A 
HETATM   25  C   UNL     1     -22.267  -5.234  -6.529  1.00  0.00     0.001 A 
HETATM   26  C   UNL     1     -21.148  -4.409  -6.627  1.00  0.00     0.000 A 
HETATM   27  C   UNL     1     -20.094  -4.557  -5.727  1.00  0.00     0.001 A 
HETATM   28  C   UNL     1     -20.154  -5.537  -4.733  1.00  0.00     0.014 A 
ENDBRANCH   2  23
TORSDOF 10
BEGIN_RES ARG D 557
REMARK  4 active torsions:
REMARK  status: ('A' for Active; 'I' for Inactive)
REMARK    1  A    between atoms: CA   and  CB  
REMARK    2  A    between atoms: CB   and  CG  
REMARK    3  A    between atoms: CG   and  CD  
REMARK    4  A    between atoms: CD   and  NE  
REMARK       I    between atoms: NE   and  CZ  
REMARK       I    between atoms: CZ   and  NH1 
REMARK       I    between atoms: CZ   and  NH2 
ROOT
ATOM      1  CA  ARG D 557     -26.217   2.705 -17.014  1.00 35.49     0.159 C 
ENDROOT
BRANCH   1   2
ATOM      2  CB  ARG D 557     -26.789   1.319 -17.183  1.00 35.49     0.034 C 
BRANCH   2   3
ATOM      3  CG  ARG D 557     -25.835   0.203 -17.160  1.00 35.49     0.027 C 
BRANCH   3   4
ATOM      4  CD  ARG D 557     -24.756   0.404 -16.166  1.00 35.49     0.116 C 
BRANCH   4   5
ATOM      5  NE  ARG D 557     -24.915  -0.445 -15.014  1.00 35.49    -0.212 N 
ATOM      6  CZ  ARG D 557     -24.106  -1.419 -14.660  1.00 35.49     0.666 C 
ATOM      7  NH1 ARG D 557     -23.032  -1.738 -15.359  1.00 35.49    -0.235 N 
ATOM      8  NH2 ARG D 557     -24.394  -2.072 -13.572  1.00 35.49    -0.235 N 
ATOM      9  HH  ARG D 557     -22.823  -1.319 -16.077  1.00 35.49     0.174 HD
ATOM     10  HH  ARG D 557     -22.540  -2.380 -15.078  1.00 35.49     0.174 HD
ATOM     11  HH  ARG D 557     -25.090  -1.839 -13.138  1.00 35.49     0.174 HD
ATOM     12  HH  ARG D 557     -23.893  -2.704 -13.310  1.00 35.49     0.174 HD
ATOM     13  HE  ARG D 557     -25.620  -0.357 -14.547  1.00 35.49     0.178 HD
ENDBRANCH   4   5
ENDBRANCH   3   4
ENDBRANCH   2   3
ENDBRANCH   1   2
END_RES ARG D 557
BEGIN_RES GLU D 570
REMARK  3 active torsions:
REMARK  status: ('A' for Active; 'I' for Inactive)
REMARK    5  A    between atoms: CA   and  CB  
REMARK    6  A    between atoms: CB   and  CG  
REMARK    7  A    between atoms: CG   and  CD  
ROOT
ATOM     14  CA  GLU D 570     -18.033  -6.348 -13.375  1.00 32.92     0.160 C 
ENDROOT
BRANCH  14  15
ATOM     15  CB  GLU D 570     -19.500  -6.345 -13.794  1.00 32.92     0.043 C 
BRANCH  15  16
ATOM     16  CG  GLU D 570     -20.439  -5.517 -12.994  1.00 32.92     0.100 C 
BRANCH  16  17
ATOM     17  CD  GLU D 570     -21.699  -5.159 -13.747  1.00 32.92     0.185 C 
ATOM     18  OE1 GLU D 570     -22.046  -5.864 -14.714  1.00 32.92    -0.647 OA
ATOM     19  OE2 GLU D 570     -22.336  -4.153 -13.377  1.00 32.92    -0.647 OA
ENDBRANCH  16  17
ENDBRANCH  15  16
ENDBRANCH  14  15
END_RES GLU D 570
ENDMDL
MODEL 2
REMARK VINA RESULT:      -6.0      2.927      5.186
REMARK  10 active torsions:
REMARK  status: ('A' for Active; 'I' for Inactive)
REMARK    1  A    between atoms: C_2  and  O_3 
REMARK    2  A    between atoms: O_3  and  C_4 
REMARK    3  A    between atoms: C_4  and  C_6 
REMARK    4  A    between atoms: C_7  and  C_8 
REMARK    5  A    between atoms: C_17  and  C_18 
REMARK    6  A    between atoms: C_18  and  S_20 
REMARK    7  A    between atoms: S_20  and  C_21 
REMARK    8  A    between atoms: C_21  and  C_22 
REMARK    9  A    between atoms: C_22  and  O_23 
REMARK   10  A    between atoms: C_25  and  C_26 
ROOT
HETATM    1  C   UNL     1     -20.010 -10.522  -1.821  1.00  0.00     0.053 C 
HETATM    2  C   UNL     1     -19.625  -9.473  -2.588  1.00  0.00     0.055 C 
HETATM    3  N   UNL     1     -18.306  -9.313  -2.944  1.00  0.00    -0.358 N 
HETATM    4  C   UNL     1     -17.255 -10.097  -2.489  1.00  0.00     0.017 C 
HETATM    5  C   UNL     1     -15.904  -9.617  -2.986  1.00  0.00     0.069 C 
HETATM    6  C   UNL     1     -17.493 -11.185  -1.707  1.00  0.00     0.030 C 
HETATM    7  C   UNL     1     -18.973 -11.588  -1.389  1.00  0.00     0.066 C 
HETATM    8  H   UNL     1     -18.101  -8.521  -3.549  1.00  0.00     0.166 HD
ENDROOT
BRANCH   6   9
HETATM    9  C   UNL     1     -16.327 -12.038  -1.225  1.00  0.00     0.217 C 
HETATM   10  O   UNL     1     -15.641 -11.743  -0.255  1.00  0.00    -0.280 OA
BRANCH   9  11
HETATM   11  S   UNL     1     -15.901 -13.472  -2.159  1.00  0.00    -0.085 SA
BRANCH  11  12
HETATM   12  C   UNL     1     -14.341 -12.972  -2.983  1.00  0.00     0.108 C 
BRANCH  12  13
HETATM   13  C   UNL     1     -13.700 -13.971  -3.953  1.00  0.00     0.177 C 
BRANCH  13  14
HETATM   14  O   UNL     1     -13.340 -13.334  -5.180  1.00  0.00    -0.395 OA
HETATM   15  C   UNL     1     -13.966 -12.060  -5.312  1.00  0.00     0.201 C 
ENDBRANCH  13  14
ENDBRANCH  12  13
ENDBRANCH  11  12
ENDBRANCH   9  11
ENDBRANCH   6   9
BRANCH   7  16
HETATM   16  C   UNL     1     -19.231 -12.132   0.040  1.00  0.00     0.010 C 
HETATM   17  C   UNL     1     -19.682 -13.569   0.155  1.00  0.00     0.006 C 
ENDBRANCH   7  16
BRANCH   1  18
HETATM   18  C   UNL     1     -21.463 -10.657  -1.498  1.00  0.00     0.292 C 
HETATM   19  O   UNL     1     -22.292 -11.267  -2.165  1.00  0.00    -0.259 OA
BRANCH  18  20
HETATM   20  O   UNL     1     -21.765 -10.036  -0.348  1.00  0.00    -0.318 OA
BRANCH  20  21
HETATM   21  C   UNL     1     -23.096  -9.545  -0.180  1.00  0.00     0.174 C 
HETATM   22  C   UNL     1     -23.099  -8.181   0.478  1.00  0.00     0.034 C 
ENDBRANCH  20  21
ENDBRANCH  18  20
ENDBRANCH   1  18
BRANCH   2  23
HETATM   23  C   UNL     1     -20.527  -8.422  -3.107  1.00  0.00    -0.009 A 
HETATM   24  C   UNL     1     -21.049  -8.505  -4.409  1.00  0.00     0.014 A 
HETATM   25  C   UNL     1     -21.860  -7.487  -4.907  1.00  0.00     0.001 A 
HETATM   26  C   UNL     1     -22.173  -6.385  -4.114  1.00  0.00     0.000 A 
HETATM   27  C   UNL     1     -21.676  -6.299  -2.814  1.00  0.00     0.001 A 
HETATM   28  C   UNL     1     -20.856  -7.312  -2.311  1.00  0.00     0.014 A 
ENDBRANCH   2  23
TORSDOF 10
BEGIN_RES ARG D 557
REMARK  4 active torsions:
REMARK  status: ('A' for Active; 'I' for Inactive)
REMARK    1  A    between atoms: CA   and  CB  
REMARK    2  A    between atoms: CB   and  CG  
REMARK    3  A    between atoms: CG   and  CD  
REMARK    4  A    between atoms: CD   and  NE  
REMARK       I    between atoms: NE   and  CZ  
REMARK       I    between atoms: CZ   and  NH1 
REMARK       I    between atoms: CZ   and  NH2 
ROOT
ATOM      1  CA  ARG D 557     -26.217   2.705 -17.014  1.00 35.49     0.159 C 
ENDROOT
BRANCH   1   2
ATOM      2  CB  ARG D 557     -26.789   1.319 -17.183  1.00 35.49     0.034 C 
BRANCH   2   3
ATOM      3  CG  ARG D 557     -25.835   0.203 -17.162  1.00 35.49     0.027 C 
BRANCH   3   4
ATOM      4  CD  ARG D 557     -24.747   0.409 -16.179  1.00 35.49     0.116 C 
BRANCH   4   5
ATOM      5  NE  ARG D 557     -24.895  -0.434 -15.022  1.00 35.49    -0.212 N 
ATOM      6  CZ  ARG D 557     -24.081  -1.404 -14.670  1.00 35.49     0.666 C 
ATOM      7  NH1 ARG D 557     -23.012  -1.725 -15.376  1.00 35.49    -0.235 N 
ATOM      8  NH2 ARG D 557     -24.358  -2.054 -13.577  1.00 35.49    -0.235 N 
ATOM      9  HH  ARG D 557     -22.809  -1.309 -16.098  1.00 35.49     0.174 HD
ATOM     10  HH  ARG D 557     -22.516  -2.365 -15.096  1.00 35.49     0.174 HD
ATOM     11  HH  ARG D 557     -25.051  -1.820 -13.137  1.00 35.49     0.174 HD
ATOM     12  HH  ARG D 557     -23.854  -2.683 -13.316  1.00 35.49     0.174 HD
ATOM     13  HE  ARG D 557     -25.596  -0.345 -14.550  1.00 35.49     0.178 HD
ENDBRANCH   4   5
ENDBRANCH   3   4
ENDBRANCH   2   3
ENDBRANCH   1   2
END_RES ARG D 557
BEGIN_RES GLU D 570
REMARK  3 active torsions:
REMARK  status: ('A' for Active; 'I' for Inactive)
REMARK    5  A    between atoms: CA   and  CB  
REMARK    6  A    between atoms: CB   and  CG  
REMARK    7  A    between atoms: CG   and  CD  
ROOT
ATOM     14  CA  GLU D 570     -18.033  -6.348 -13.375  1.00 32.92     0.160 C 
ENDROOT
BRANCH  14  15
ATOM     15  CB  GLU D 570     -19.500  -6.345 -13.794  1.00 32.92     0.043 C 
BRANCH  15  16
ATOM     16  CG  GLU D 570     -20.441  -5.527 -12.986  1.00 32.92     0.100 C 
BRANCH  16  17
ATOM     17  CD  GLU D 570     -21.738  -5.239 -13.705  1.00 32.92     0.185 C 
ATOM     18  OE1 GLU D 570     -22.302  -4.143 -13.522  1.00 32.92    -0.647 OA
ATOM     19  OE2 GLU D 570     -22.205  -6.126 -14.446  1.00 32.92    -0.647 OA
ENDBRANCH  16  17
ENDBRANCH  15  16
ENDBRANCH  14  15
END_RES GLU D 570
ENDMDL
MODEL 3
REMARK VINA RESULT:      -5.8      3.086      5.704
REMARK  10 active torsions:
REMARK  status: ('A' for Active; 'I' for Inactive)
REMARK    1  A    between atoms: C_2  and  O_3 
REMARK    2  A    between atoms: O_3  and  C_4 
REMARK    3  A    between atoms: C_4  and  C_6 
REMARK    4  A    between atoms: C_7  and  C_8 
REMARK    5  A    between atoms: C_17  and  C_18 
REMARK    6  A    between atoms: C_18  and  S_20 
REMARK    7  A    between atoms: S_20  and  C_21 
REMARK    8  A    between atoms: C_21  and  C_22 
REMARK    9  A    between atoms: C_22  and  O_23 
REMARK   10  A    between atoms: C_25  and  C_26 
ROOT
HETATM    1  C   UNL     1     -19.895 -10.000  -2.814  1.00  0.00     0.053 C 
HETATM    2  C   UNL     1     -20.133 -10.256  -1.506  1.00  0.00     0.055 C 
HETATM    3  N   UNL     1     -19.308 -11.097  -0.796  1.00  0.00    -0.358 N 
HETATM    4  C   UNL     1     -18.261 -11.832  -1.334  1.00  0.00     0.017 C 
HETATM    5  C   UNL     1     -17.593 -12.738  -0.317  1.00  0.00     0.069 C 
HETATM    6  C   UNL     1     -17.909 -11.677  -2.640  1.00  0.00     0.030 C 
HETATM    7  C   UNL     1     -18.650 -10.604  -3.509  1.00  0.00     0.066 C 
HETATM    8  H   UNL     1     -19.532 -11.213   0.191  1.00  0.00     0.166 HD
ENDROOT
BRANCH   6   9
HETATM    9  C   UNL     1     -16.752 -12.486  -3.210  1.00  0.00     0.217 C 
HETATM   10  O   UNL     1     -16.871 -13.643  -3.593  1.00  0.00    -0.280 OA
BRANCH   9  11
HETATM   11  S   UNL     1     -15.153 -11.743  -3.243  1.00  0.00    -0.085 SA
BRANCH  11  12
HETATM   12  C   UNL     1     -14.786 -11.646  -5.036  1.00  0.00     0.108 C 
BRANCH  12  13
HETATM   13  C   UNL     1     -13.511 -12.336  -5.538  1.00  0.00     0.177 C 
BRANCH  13  14
HETATM   14  O   UNL     1     -13.437 -13.682  -5.064  1.00  0.00    -0.395 OA
HETATM   15  C   UNL     1     -13.293 -14.607  -6.138  1.00  0.00     0.201 C 
ENDBRANCH  13  14
ENDBRANCH  12  13
ENDBRANCH  11  12
ENDBRANCH   9  11
ENDBRANCH   6   9
BRANCH   7  16
HETATM   16  C   UNL     1     -18.918 -11.001  -4.983  1.00  0.00     0.010 C 
HETATM   17  C   UNL     1     -18.112 -10.285  -6.042  1.00  0.00     0.006 C 
ENDBRANCH   7  16
BRANCH   1  18
HETATM   18  C   UNL     1     -20.809  -9.052  -3.520  1.00  0.00     0.292 C 
HETATM   19  O   UNL     1     -21.832  -9.357  -4.124  1.00  0.00    -0.259 OA
BRANCH  18  20
HETATM   20  O   UNL     1     -20.386  -7.785  -3.396  1.00  0.00    -0.318 OA
BRANCH  20  21
HETATM   21  C   UNL     1     -21.304  -6.736  -3.709  1.00  0.00     0.174 C 
HETATM   22  C   UNL     1     -21.978  -6.204  -2.461  1.00  0.00     0.034 C 
ENDBRANCH  20  21
ENDBRANCH  18  20
ENDBRANCH   1  18
BRANCH   2  23
HETATM   23  C   UNL     1     -21.255  -9.698  -0.719  1.00  0.00    -0.009 A 
HETATM   24  C   UNL     1     -22.522 -10.307  -0.746  1.00  0.00     0.014 A 
HETATM   25  C   UNL     1     -23.585  -9.748  -0.041  1.00  0.00     0.001 A 
HETATM   26  C   UNL     1     -23.400  -8.589   0.710  1.00  0.00     0.000 A 
HETATM   27  C   UNL     1     -22.144  -7.985   0.759  1.00  0.00     0.001 A 
HETATM   28  C   UNL     1     -21.075  -8.536   0.049  1.00  0.00     0.014 A 
ENDBRANCH   2  23
TORSDOF 10
BEGIN_RES ARG D 557
REMARK  4 active torsions:
REMARK  status: ('A' for Active; 'I' for Inactive)
REMARK    1  A    between atoms: CA   and  CB  
REMARK    2  A    between atoms: CB   and  CG  
REMARK    3  A    between atoms: CG   and  CD  
REMARK    4  A    between atoms: CD   and  NE  
REMARK       I    between atoms: NE   and  CZ  
REMARK       I    between atoms: CZ   and  NH1 
REMARK       I    between atoms: CZ   and  NH2 
ROOT
ATOM      1  CA  ARG D 557     -26.217   2.705 -17.014  1.00 35.49     0.159 C 
ENDROOT
BRANCH   1   2
ATOM      2  CB  ARG D 557     -26.789   1.319 -17.183  1.00 35.49     0.034 C 
BRANCH   2   3
ATOM      3  CG  ARG D 557     -25.835   0.204 -17.164  1.00 35.49     0.027 C 
BRANCH   3   4
ATOM      4  CD  ARG D 557     -24.751   0.406 -16.175  1.00 35.49     0.116 C 
BRANCH   4   5
ATOM      5  NE  ARG D 557     -24.903  -0.442 -15.022  1.00 35.49    -0.212 N 
ATOM      6  CZ  ARG D 557     -24.089  -1.411 -14.668  1.00 35.49     0.666 C 
ATOM      7  NH1 ARG D 557     -23.016  -1.727 -15.369  1.00 35.49    -0.235 N 
ATOM      8  NH2 ARG D 557     -24.371  -2.064 -13.579  1.00 35.49    -0.235 N 
ATOM      9  HH  ARG D 557     -22.810  -1.310 -16.089  1.00 35.49     0.174 HD
ATOM     10  HH  ARG D 557     -22.520  -2.367 -15.088  1.00 35.49     0.174 HD
ATOM     11  HH  ARG D 557     -25.067  -1.833 -13.142  1.00 35.49     0.174 HD
ATOM     12  HH  ARG D 557     -23.868  -2.694 -13.316  1.00 35.49     0.174 HD
ATOM     13  HE  ARG D 557     -25.607  -0.355 -14.553  1.00 35.49     0.178 HD
ENDBRANCH   4   5
ENDBRANCH   3   4
ENDBRANCH   2   3
ENDBRANCH   1   2
END_RES ARG D 557
BEGIN_RES GLU D 570
REMARK  3 active torsions:
REMARK  status: ('A' for Active; 'I' for Inactive)
REMARK    5  A    between atoms: CA   and  CB  
REMARK    6  A    between atoms: CB   and  CG  
REMARK    7  A    between atoms: CG   and  CD  
ROOT
ATOM     14  CA  GLU D 570     -18.033  -6.348 -13.375  1.00 32.92     0.160 C 
ENDROOT
BRANCH  14  15
ATOM     15  CB  GLU D 570     -19.500  -6.345 -13.794  1.00 32.92     0.043 C 
BRANCH  15  16
ATOM     16  CG  GLU D 570     -20.441  -5.526 -12.987  1.00 32.92     0.100 C 
BRANCH  16  17
ATOM     17  CD  GLU D 570     -21.738  -5.238 -13.706  1.00 32.92     0.185 C 
ATOM     18  OE1 GLU D 570     -22.191  -6.085 -14.499  1.00 32.92    -0.647 OA
ATOM     19  OE2 GLU D 570     -22.299  -4.146 -13.486  1.00 32.92    -0.647 OA
ENDBRANCH  16  17
ENDBRANCH  15  16
ENDBRANCH  14  15
END_RES GLU D 570
ENDMDL
MODEL 4
REMARK VINA RESULT:      -5.8      3.173      5.619
REMARK  10 active torsions:
REMARK  status: ('A' for Active; 'I' for Inactive)
REMARK    1  A    between atoms: C_2  and  O_3 
REMARK    2  A    between atoms: O_3  and  C_4 
REMARK    3  A    between atoms: C_4  and  C_6 
REMARK    4  A    between atoms: C_7  and  C_8 
REMARK    5  A    between atoms: C_17  and  C_18 
REMARK    6  A    between atoms: C_18  and  S_20 
REMARK    7  A    between atoms: S_20  and  C_21 
REMARK    8  A    between atoms: C_21  and  C_22 
REMARK    9  A    between atoms: C_22  and  O_23 
REMARK   10  A    between atoms: C_25  and  C_26 
ROOT
HETATM    1  C   UNL     1     -19.799  -9.666  -4.316  1.00  0.00     0.053 C 
HETATM    2  C   UNL     1     -19.504  -9.089  -3.126  1.00  0.00     0.055 C 
HETATM    3  N   UNL     1     -18.222  -9.122  -2.630  1.00  0.00    -0.358 N 
HETATM    4  C   UNL     1     -17.161  -9.812  -3.200  1.00  0.00     0.017 C 
HETATM    5  C   UNL     1     -15.893  -9.733  -2.372  1.00  0.00     0.069 C 
HETATM    6  C   UNL     1     -17.313 -10.442  -4.398  1.00  0.00     0.030 C 
HETATM    7  C   UNL     1     -18.675 -10.316  -5.161  1.00  0.00     0.066 C 
HETATM    8  H   UNL     1     -18.073  -8.636  -1.747  1.00  0.00     0.166 HD
ENDROOT
BRANCH   6   9
HETATM    9  C   UNL     1     -16.135 -11.187  -5.012  1.00  0.00     0.217 C 
HETATM   10  O   UNL     1     -15.431 -10.711  -5.893  1.00  0.00    -0.280 OA
BRANCH   9  11
HETATM   11  S   UNL     1     -15.826 -12.840  -4.481  1.00  0.00    -0.085 SA
BRANCH  11  12
HETATM   12  C   UNL     1     -13.996 -12.947  -4.528  1.00  0.00     0.108 C 
BRANCH  12  13
HETATM   13  C   UNL     1     -13.374 -14.319  -4.812  1.00  0.00     0.177 C 
BRANCH  13  14
HETATM   14  O   UNL     1     -13.057 -14.461  -6.198  1.00  0.00    -0.395 OA
HETATM   15  C   UNL     1     -12.846 -15.826  -6.550  1.00  0.00     0.201 C 
ENDBRANCH  13  14
ENDBRANCH  12  13
ENDBRANCH  11  12
ENDBRANCH   9  11
ENDBRANCH   6   9
BRANCH   7  16
HETATM   16  C   UNL     1     -19.147 -11.589  -5.909  1.00  0.00     0.010 C 
HETATM   17  C   UNL     1     -18.723 -11.732  -7.352  1.00  0.00     0.006 C 
ENDBRANCH   7  16
BRANCH   1  18
HETATM   18  C   UNL     1     -21.203  -9.566  -4.814  1.00  0.00     0.292 C 
HETATM   19  O   UNL     1     -22.185 -10.094  -4.304  1.00  0.00    -0.259 OA
BRANCH  18  20
HETATM   20  O   UNL     1     -21.277  -8.790  -5.906  1.00  0.00    -0.318 OA
BRANCH  20  21
HETATM   21  C   UNL     1     -21.553  -7.399  -5.723  1.00  0.00     0.174 C 
HETATM   22  C   UNL     1     -20.423  -6.541  -6.254  1.00  0.00     0.034 C 
ENDBRANCH  20  21
ENDBRANCH  18  20
ENDBRANCH   1  18
BRANCH   2  23
HETATM   23  C   UNL     1     -20.476  -8.392  -2.255  1.00  0.00    -0.009 A 
HETATM   24  C   UNL     1     -20.994  -9.023  -1.111  1.00  0.00     0.014 A 
HETATM   25  C   UNL     1     -21.944  -8.379  -0.322  1.00  0.00     0.001 A 
HETATM   26  C   UNL     1     -22.378  -7.096  -0.650  1.00  0.00     0.000 A 
HETATM   27  C   UNL     1     -21.859  -6.452  -1.773  1.00  0.00     0.001 A 
HETATM   28  C   UNL     1     -20.911  -7.095  -2.572  1.00  0.00     0.014 A 
ENDBRANCH   2  23
TORSDOF 10
BEGIN_RES ARG D 557
REMARK  4 active torsions:
REMARK  status: ('A' for Active; 'I' for Inactive)
REMARK    1  A    between atoms: CA   and  CB  
REMARK    2  A    between atoms: CB   and  CG  
REMARK    3  A    between atoms: CG   and  CD  
REMARK    4  A    between atoms: CD   and  NE  
REMARK       I    between atoms: NE   and  CZ  
REMARK       I    between atoms: CZ   and  NH1 
REMARK       I    between atoms: CZ   and  NH2 
ROOT
ATOM      1  CA  ARG D 557     -26.217   2.705 -17.014  1.00 35.49     0.159 C 
ENDROOT
BRANCH   1   2
ATOM      2  CB  ARG D 557     -26.789   1.319 -17.183  1.00 35.49     0.034 C 
BRANCH   2   3
ATOM      3  CG  ARG D 557     -25.862   0.195 -17.004  1.00 35.49     0.027 C 
BRANCH   3   4
ATOM      4  CD  ARG D 557     -26.273  -0.706 -15.903  1.00 35.49     0.116 C 
BRANCH   4   5
ATOM      5  NE  ARG D 557     -25.218  -0.909 -14.946  1.00 35.49    -0.212 N 
ATOM      6  CZ  ARG D 557     -24.923  -2.047 -14.357  1.00 35.49     0.666 C 
ATOM      7  NH1 ARG D 557     -25.600  -3.158 -14.582  1.00 35.49    -0.235 N 
ATOM      8  NH2 ARG D 557     -23.918  -2.053 -13.531  1.00 35.49    -0.235 N 
ATOM      9  HH  ARG D 557     -26.264  -3.177 -15.124  1.00 35.49     0.174 HD
ATOM     10  HH  ARG D 557     -25.361  -3.870 -14.171  1.00 35.49     0.174 HD
ATOM     11  HH  ARG D 557     -23.494  -1.322 -13.411  1.00 35.49     0.174 HD
ATOM     12  HH  ARG D 557     -23.695  -2.769 -13.135  1.00 35.49     0.174 HD
ATOM     13  HE  ARG D 557     -24.776  -0.230 -14.687  1.00 35.49     0.178 HD
ENDBRANCH   4   5
ENDBRANCH   3   4
ENDBRANCH   2   3
ENDBRANCH   1   2
END_RES ARG D 557
BEGIN_RES GLU D 570
REMARK  3 active torsions:
REMARK  status: ('A' for Active; 'I' for Inactive)
REMARK    5  A    between atoms: CA   and  CB  
REMARK    6  A    between atoms: CB   and  CG  
REMARK    7  A    between atoms: CG   and  CD  
ROOT
ATOM     14  CA  GLU D 570     -18.033  -6.348 -13.375  1.00 32.92     0.160 C 
ENDROOT
BRANCH  14  15
ATOM     15  CB  GLU D 570     -19.500  -6.345 -13.794  1.00 32.92     0.043 C 
BRANCH  15  16
ATOM     16  CG  GLU D 570     -20.449  -5.564 -12.959  1.00 32.92     0.100 C 
BRANCH  16  17
ATOM     17  CD  GLU D 570     -21.668  -5.106 -13.724  1.00 32.92     0.185 C 
ATOM     18  OE1 GLU D 570     -22.711  -4.839 -13.097  1.00 32.92    -0.647 OA
ATOM     19  OE2 GLU D 570     -21.584  -5.029 -14.966  1.00 32.92    -0.647 OA
ENDBRANCH  16  17
ENDBRANCH  15  16
ENDBRANCH  14  15
END_RES GLU D 570
ENDMDL
MODEL 5
REMARK VINA RESULT:      -5.7      3.128      5.364
REMARK  10 active torsions:
REMARK  status: ('A' for Active; 'I' for Inactive)
REMARK    1  A    between atoms: C_2  and  O_3 
REMARK    2  A    between atoms: O_3  and  C_4 
REMARK    3  A    between atoms: C_4  and  C_6 
REMARK    4  A    between atoms: C_7  and  C_8 
REMARK    5  A    between atoms: C_17  and  C_18 
REMARK    6  A    between atoms: C_18  and  S_20 
REMARK    7  A    between atoms: S_20  and  C_21 
REMARK    8  A    between atoms: C_21  and  C_22 
REMARK    9  A    between atoms: C_22  and  O_23 
REMARK   10  A    between atoms: C_25  and  C_26 
ROOT
HETATM    1  C   UNL     1     -19.995 -10.513  -1.837  1.00  0.00     0.053 C 
HETATM    2  C   UNL     1     -19.625  -9.440  -2.575  1.00  0.00     0.055 C 
HETATM    3  N   UNL     1     -18.307  -9.247  -2.919  1.00  0.00    -0.358 N 
HETATM    4  C   UNL     1     -17.244 -10.022  -2.477  1.00  0.00     0.017 C 
HETATM    5  C   UNL     1     -15.900  -9.505  -2.954  1.00  0.00     0.069 C 
HETATM    6  C   UNL     1     -17.467 -11.133  -1.723  1.00  0.00     0.030 C 
HETATM    7  C   UNL     1     -18.941 -11.571  -1.424  1.00  0.00     0.066 C 
HETATM    8  H   UNL     1     -18.113  -8.437  -3.504  1.00  0.00     0.166 HD
ENDROOT
BRANCH   6   9
HETATM    9  C   UNL     1     -16.288 -11.976  -1.255  1.00  0.00     0.217 C 
HETATM   10  O   UNL     1     -15.572 -11.657  -0.314  1.00  0.00    -0.280 OA
BRANCH   9  11
HETATM   11  S   UNL     1     -15.892 -13.434  -2.164  1.00  0.00    -0.085 SA
BRANCH  11  12
HETATM   12  C   UNL     1     -14.655 -12.835  -3.377  1.00  0.00     0.108 C 
BRANCH  12  13
HETATM   13  C   UNL     1     -15.130 -12.596  -4.815  1.00  0.00     0.177 C 
BRANCH  13  14
HETATM   14  O   UNL     1     -14.445 -13.454  -5.730  1.00  0.00    -0.395 OA
HETATM   15  C   UNL     1     -13.360 -12.783  -6.365  1.00  0.00     0.201 C 
ENDBRANCH  13  14
ENDBRANCH  12  13
ENDBRANCH  11  12
ENDBRANCH   9  11
ENDBRANCH   6   9
BRANCH   7  16
HETATM   16  C   UNL     1     -19.196 -12.153  -0.010  1.00  0.00     0.010 C 
HETATM   17  C   UNL     1     -19.607 -13.605   0.069  1.00  0.00     0.006 C 
ENDBRANCH   7  16
BRANCH   1  18
HETATM   18  C   UNL     1     -21.446 -10.683  -1.526  1.00  0.00     0.292 C 
HETATM   19  O   UNL     1     -22.262 -11.285  -2.216  1.00  0.00    -0.259 OA
BRANCH  18  20
HETATM   20  O   UNL     1     -21.764 -10.105  -0.358  1.00  0.00    -0.318 OA
BRANCH  20  21
HETATM   21  C   UNL     1     -23.091  -9.601  -0.197  1.00  0.00     0.174 C 
HETATM   22  C   UNL     1     -23.085  -8.232   0.453  1.00  0.00     0.034 C 
ENDBRANCH  20  21
ENDBRANCH  18  20
ENDBRANCH   1  18
BRANCH   2  23
HETATM   23  C   UNL     1     -20.543  -8.393  -3.074  1.00  0.00    -0.009 A 
HETATM   24  C   UNL     1     -21.059  -8.455  -4.380  1.00  0.00     0.014 A 
HETATM   25  C   UNL     1     -21.886  -7.441  -4.858  1.00  0.00     0.001 A 
HETATM   26  C   UNL     1     -22.221  -6.363  -4.042  1.00  0.00     0.000 A 
HETATM   27  C   UNL     1     -21.729  -6.297  -2.739  1.00  0.00     0.001 A 
HETATM   28  C   UNL     1     -20.894  -7.307  -2.255  1.00  0.00     0.014 A 
ENDBRANCH   2  23
TORSDOF 10
BEGIN_RES ARG D 557
REMARK  4 active torsions:
REMARK  status: ('A' for Active; 'I' for Inactive)
REMARK    1  A    between atoms: CA   and  CB  
REMARK    2  A    between atoms: CB   and  CG  
REMARK    3  A    between atoms: CG   and  CD  
REMARK    4  A    between atoms: CD   and  NE  
REMARK       I    between atoms: NE   and  CZ  
REMARK       I    between atoms: CZ   and  NH1 
REMARK       I    between atoms: CZ   and  NH2 
ROOT
ATOM      1  CA  ARG D 557     -26.217   2.705 -17.014  1.00 35.49     0.159 C 
ENDROOT
BRANCH   1   2
ATOM      2  CB  ARG D 557     -26.789   1.319 -17.183  1.00 35.49     0.034 C 
BRANCH   2   3
ATOM      3  CG  ARG D 557     -28.231   1.167 -16.954  1.00 35.49     0.027 C 
BRANCH   3   4
ATOM      4  CD  ARG D 557     -28.613  -0.236 -16.674  1.00 35.49     0.116 C 
BRANCH   4   5
ATOM      5  NE  ARG D 557     -27.587  -0.944 -15.955  1.00 35.49    -0.212 N 
ATOM      6  CZ  ARG D 557     -27.357  -2.237 -16.019  1.00 35.49     0.666 C 
ATOM      7  NH1 ARG D 557     -28.079  -3.049 -16.768  1.00 35.49    -0.235 N 
ATOM      8  NH2 ARG D 557     -26.369  -2.706 -15.313  1.00 35.49    -0.235 N 
ATOM      9  HH  ARG D 557     -28.732  -2.762 -17.242  1.00 35.49     0.174 HD
ATOM     10  HH  ARG D 557     -27.881  -3.883 -16.772  1.00 35.49     0.174 HD
ATOM     11  HH  ARG D 557     -25.915  -2.157 -14.845  1.00 35.49     0.174 HD
ATOM     12  HH  ARG D 557     -26.188  -3.534 -15.332  1.00 35.49     0.174 HD
ATOM     13  HE  ARG D 557     -27.121  -0.509 -15.393  1.00 35.49     0.178 HD
ENDBRANCH   4   5
ENDBRANCH   3   4
ENDBRANCH   2   3
ENDBRANCH   1   2
END_RES ARG D 557
BEGIN_RES GLU D 570
REMARK  3 active torsions:
REMARK  status: ('A' for Active; 'I' for Inactive)
REMARK    5  A    between atoms: CA   and  CB  
REMARK    6  A    between atoms: CB   and  CG  
REMARK    7  A    between atoms: CG   and  CD  
ROOT
ATOM     14  CA  GLU D 570     -18.033  -6.348 -13.375  1.00 32.92     0.160 C 
ENDROOT
BRANCH  14  15
ATOM     15  CB  GLU D 570     -19.500  -6.345 -13.794  1.00 32.92     0.043 C 
BRANCH  15  16
ATOM     16  CG  GLU D 570     -20.448  -5.562 -12.961  1.00 32.92     0.100 C 
BRANCH  16  17
ATOM     17  CD  GLU D 570     -21.704  -5.173 -13.705  1.00 32.92     0.185 C 
ATOM     18  OE1 GLU D 570     -22.770  -5.052 -13.071  1.00 32.92    -0.647 OA
ATOM     19  OE2 GLU D 570     -21.625  -5.004 -14.938  1.00 32.92    -0.647 OA
ENDBRANCH  16  17
ENDBRANCH  15  16
ENDBRANCH  14  15
END_RES GLU D 570
ENDMDL
MODEL 6
REMARK VINA RESULT:      -5.7      3.078      4.636
REMARK  10 active torsions:
REMARK  status: ('A' for Active; 'I' for Inactive)
REMARK    1  A    between atoms: C_2  and  O_3 
REMARK    2  A    between atoms: O_3  and  C_4 
REMARK    3  A    between atoms: C_4  and  C_6 
REMARK    4  A    between atoms: C_7  and  C_8 
REMARK    5  A    between atoms: C_17  and  C_18 
REMARK    6  A    between atoms: C_18  and  S_20 
REMARK    7  A    between atoms: S_20  and  C_21 
REMARK    8  A    between atoms: C_21  and  C_22 
REMARK    9  A    between atoms: C_22  and  O_23 
REMARK   10  A    between atoms: C_25  and  C_26 
ROOT
HETATM    1  C   UNL     1     -20.135 -10.658  -1.754  1.00  0.00     0.053 C 
HETATM    2  C   UNL     1     -19.641  -9.642  -2.502  1.00  0.00     0.055 C 
HETATM    3  N   UNL     1     -18.302  -9.585  -2.809  1.00  0.00    -0.358 N 
HETATM    4  C   UNL     1     -17.332 -10.449  -2.320  1.00  0.00     0.017 C 
HETATM    5  C   UNL     1     -15.931 -10.075  -2.766  1.00  0.00     0.069 C 
HETATM    6  C   UNL     1     -17.683 -11.517  -1.552  1.00  0.00     0.030 C 
HETATM    7  C   UNL     1     -19.201 -11.804  -1.290  1.00  0.00     0.066 C 
HETATM    8  H   UNL     1     -18.013  -8.810  -3.403  1.00  0.00     0.166 HD
ENDROOT
BRANCH   6   9
HETATM    9  C   UNL     1     -16.605 -12.459  -1.033  1.00  0.00     0.217 C 
HETATM   10  O   UNL     1     -16.381 -13.555  -1.530  1.00  0.00    -0.280 OA
BRANCH   9  11
HETATM   11  S   UNL     1     -15.697 -11.976   0.400  1.00  0.00    -0.085 SA
BRANCH  11  12
HETATM   12  C   UNL     1     -16.303 -13.142   1.678  1.00  0.00     0.108 C 
BRANCH  12  13
HETATM   13  C   UNL     1     -15.361 -14.272   2.110  1.00  0.00     0.177 C 
BRANCH  13  14
HETATM   14  O   UNL     1     -15.445 -14.498   3.519  1.00  0.00    -0.395 OA
HETATM   15  C   UNL     1     -15.114 -15.843   3.854  1.00  0.00     0.201 C 
ENDBRANCH  13  14
ENDBRANCH  12  13
ENDBRANCH  11  12
ENDBRANCH   9  11
ENDBRANCH   6   9
BRANCH   7  16
HETATM   16  C   UNL     1     -19.552 -12.327   0.126  1.00  0.00     0.010 C 
HETATM   17  C   UNL     1     -20.009 -13.764   0.231  1.00  0.00     0.006 C 
ENDBRANCH   7  16
BRANCH   1  18
HETATM   18  C   UNL     1     -21.604 -10.680  -1.485  1.00  0.00     0.292 C 
HETATM   19  O   UNL     1     -22.459 -11.176  -2.210  1.00  0.00    -0.259 OA
BRANCH  18  20
HETATM   20  O   UNL     1     -21.891 -10.099  -0.310  1.00  0.00    -0.318 OA
BRANCH  20  21
HETATM   21  C   UNL     1     -23.199  -9.552  -0.134  1.00  0.00     0.174 C 
HETATM   22  C   UNL     1     -23.139  -8.170   0.484  1.00  0.00     0.034 C 
ENDBRANCH  20  21
ENDBRANCH  18  20
ENDBRANCH   1  18
BRANCH   2  23
HETATM   23  C   UNL     1     -20.439  -8.522  -3.048  1.00  0.00    -0.009 A 
HETATM   24  C   UNL     1     -20.767  -7.417  -2.244  1.00  0.00     0.014 A 
HETATM   25  C   UNL     1     -21.559  -6.389  -2.751  1.00  0.00     0.001 A 
HETATM   26  C   UNL     1     -22.019  -6.438  -4.065  1.00  0.00     0.000 A 
HETATM   27  C   UNL     1     -21.686  -7.521  -4.879  1.00  0.00     0.001 A 
HETATM   28  C   UNL     1     -20.899  -8.559  -4.374  1.00  0.00     0.014 A 
ENDBRANCH   2  23
TORSDOF 10
BEGIN_RES ARG D 557
REMARK  4 active torsions:
REMARK  status: ('A' for Active; 'I' for Inactive)
REMARK    1  A    between atoms: CA   and  CB  
REMARK    2  A    between atoms: CB   and  CG  
REMARK    3  A    between atoms: CG   and  CD  
REMARK    4  A    between atoms: CD   and  NE  
REMARK       I    between atoms: NE   and  CZ  
REMARK       I    between atoms: CZ   and  NH1 
REMARK       I    between atoms: CZ   and  NH2 
ROOT
ATOM      1  CA  ARG D 557     -26.217   2.705 -17.014  1.00 35.49     0.159 C 
ENDROOT
BRANCH   1   2
ATOM      2  CB  ARG D 557     -26.789   1.319 -17.183  1.00 35.49     0.034 C 
BRANCH   2   3
ATOM      3  CG  ARG D 557     -25.837   0.202 -17.148  1.00 35.49     0.027 C 
BRANCH   3   4
ATOM      4  CD  ARG D 557     -24.759   0.411 -16.154  1.00 35.49     0.116 C 
BRANCH   4   5
ATOM      5  NE  ARG D 557     -24.906  -0.446 -15.007  1.00 35.49    -0.212 N 
ATOM      6  CZ  ARG D 557     -24.087  -1.415 -14.663  1.00 35.49     0.666 C 
ATOM      7  NH1 ARG D 557     -23.013  -1.720 -15.368  1.00 35.49    -0.235 N 
ATOM      8  NH2 ARG D 557     -24.364  -2.078 -13.578  1.00 35.49    -0.235 N 
ATOM      9  HH  ARG D 557     -22.810  -1.296 -16.084  1.00 35.49     0.174 HD
ATOM     10  HH  ARG D 557     -22.514  -2.360 -15.093  1.00 35.49     0.174 HD
ATOM     11  HH  ARG D 557     -25.060  -1.853 -13.138  1.00 35.49     0.174 HD
ATOM     12  HH  ARG D 557     -23.857  -2.707 -13.321  1.00 35.49     0.174 HD
ATOM     13  HE  ARG D 557     -25.609  -0.367 -14.537  1.00 35.49     0.178 HD
ENDBRANCH   4   5
ENDBRANCH   3   4
ENDBRANCH   2   3
ENDBRANCH   1   2
END_RES ARG D 557
BEGIN_RES GLU D 570
REMARK  3 active torsions:
REMARK  status: ('A' for Active; 'I' for Inactive)
REMARK    5  A    between atoms: CA   and  CB  
REMARK    6  A    between atoms: CB   and  CG  
REMARK    7  A    between atoms: CG   and  CD  
ROOT
ATOM     14  CA  GLU D 570     -18.033  -6.348 -13.375  1.00 32.92     0.160 C 
ENDROOT
BRANCH  14  15
ATOM     15  CB  GLU D 570     -19.500  -6.345 -13.794  1.00 32.92     0.043 C 
BRANCH  15  16
ATOM     16  CG  GLU D 570     -20.442  -5.532 -12.982  1.00 32.92     0.100 C 
BRANCH  16  17
ATOM     17  CD  GLU D 570     -21.722  -5.206 -13.716  1.00 32.92     0.185 C 
ATOM     18  OE1 GLU D 570     -22.154  -6.008 -14.565  1.00 32.92    -0.647 OA
ATOM     19  OE2 GLU D 570     -22.290  -4.128 -13.450  1.00 32.92    -0.647 OA
ENDBRANCH  16  17
ENDBRANCH  15  16
ENDBRANCH  14  15
END_RES GLU D 570
ENDMDL
MODEL 7
REMARK VINA RESULT:      -5.5      1.903      2.375
REMARK  10 active torsions:
REMARK  status: ('A' for Active; 'I' for Inactive)
REMARK    1  A    between atoms: C_2  and  O_3 
REMARK    2  A    between atoms: O_3  and  C_4 
REMARK    3  A    between atoms: C_4  and  C_6 
REMARK    4  A    between atoms: C_7  and  C_8 
REMARK    5  A    between atoms: C_17  and  C_18 
REMARK    6  A    between atoms: C_18  and  S_20 
REMARK    7  A    between atoms: S_20  and  C_21 
REMARK    8  A    between atoms: C_21  and  C_22 
REMARK    9  A    between atoms: C_22  and  O_23 
REMARK   10  A    between atoms: C_25  and  C_26 
ROOT
HETATM    1  C   UNL     1     -21.083  -8.811  -3.975  1.00  0.00     0.053 C 
HETATM    2  C   UNL     1     -21.363  -7.502  -3.765  1.00  0.00     0.055 C 
HETATM    3  N   UNL     1     -21.761  -7.062  -2.525  1.00  0.00    -0.358 N 
HETATM    4  C   UNL     1     -22.021  -7.878  -1.432  1.00  0.00     0.017 C 
HETATM    5  C   UNL     1     -22.532  -7.107  -0.229  1.00  0.00     0.069 C 
HETATM    6  C   UNL     1     -21.787  -9.217  -1.500  1.00  0.00     0.030 C 
HETATM    7  C   UNL     1     -21.148  -9.816  -2.799  1.00  0.00     0.066 C 
HETATM    8  H   UNL     1     -21.920  -6.060  -2.437  1.00  0.00     0.166 HD
ENDROOT
BRANCH   6   9
HETATM    9  C   UNL     1     -22.070 -10.094  -0.288  1.00  0.00     0.217 C 
HETATM   10  O   UNL     1     -21.209 -10.409   0.524  1.00  0.00    -0.280 OA
BRANCH   9  11
HETATM   11  S   UNL     1     -23.696 -10.749  -0.095  1.00  0.00    -0.085 SA
BRANCH  11  12
HETATM   12  C   UNL     1     -23.380 -12.467   0.463  1.00  0.00     0.108 C 
BRANCH  12  13
HETATM   13  C   UNL     1     -23.615 -13.595  -0.549  1.00  0.00     0.177 C 
BRANCH  13  14
HETATM   14  O   UNL     1     -22.382 -14.210  -0.925  1.00  0.00    -0.395 OA
HETATM   15  C   UNL     1     -21.359 -13.964   0.036  1.00  0.00     0.201 C 
ENDBRANCH  13  14
ENDBRANCH  12  13
ENDBRANCH  11  12
ENDBRANCH   9  11
ENDBRANCH   6   9
BRANCH   7  16
HETATM   16  C   UNL     1     -21.678 -11.209  -3.228  1.00  0.00     0.010 C 
HETATM   17  C   UNL     1     -20.668 -12.330  -3.311  1.00  0.00     0.006 C 
ENDBRANCH   7  16
BRANCH   1  18
HETATM   18  C   UNL     1     -20.623  -9.219  -5.337  1.00  0.00     0.292 C 
HETATM   19  O   UNL     1     -21.335  -9.660  -6.233  1.00  0.00    -0.259 OA
BRANCH  18  20
HETATM   20  O   UNL     1     -19.305  -9.021  -5.484  1.00  0.00    -0.318 OA
BRANCH  20  21
HETATM   21  C   UNL     1     -18.438 -10.149  -5.353  1.00  0.00     0.174 C 
HETATM   22  C   UNL     1     -17.071  -9.864  -5.942  1.00  0.00     0.034 C 
ENDBRANCH  20  21
ENDBRANCH  18  20
ENDBRANCH   1  18
BRANCH   2  23
HETATM   23  C   UNL     1     -21.285  -6.440  -4.792  1.00  0.00    -0.009 A 
HETATM   24  C   UNL     1     -20.118  -5.670  -4.938  1.00  0.00     0.014 A 
HETATM   25  C   UNL     1     -20.069  -4.640  -5.875  1.00  0.00     0.001 A 
HETATM   26  C   UNL     1     -21.170  -4.373  -6.686  1.00  0.00     0.000 A 
HETATM   27  C   UNL     1     -22.327  -5.141  -6.562  1.00  0.00     0.001 A 
HETATM   28  C   UNL     1     -22.386  -6.170  -5.620  1.00  0.00     0.014 A 
ENDBRANCH   2  23
TORSDOF 10
BEGIN_RES ARG D 557
REMARK  4 active torsions:
REMARK  status: ('A' for Active; 'I' for Inactive)
REMARK    1  A    between atoms: CA   and  CB  
REMARK    2  A    between atoms: CB   and  CG  
REMARK    3  A    between atoms: CG   and  CD  
REMARK    4  A    between atoms: CD   and  NE  
REMARK       I    between atoms: NE   and  CZ  
REMARK       I    between atoms: CZ   and  NH1 
REMARK       I    between atoms: CZ   and  NH2 
ROOT
ATOM      1  CA  ARG D 557     -26.217   2.705 -17.014  1.00 35.49     0.159 C 
ENDROOT
BRANCH   1   2
ATOM      2  CB  ARG D 557     -26.789   1.319 -17.183  1.00 35.49     0.034 C 
BRANCH   2   3
ATOM      3  CG  ARG D 557     -28.234   1.225 -17.424  1.00 35.49     0.027 C 
BRANCH   3   4
ATOM      4  CD  ARG D 557     -28.902   0.290 -16.491  1.00 35.49     0.116 C 
BRANCH   4   5
ATOM      5  NE  ARG D 557     -29.294  -0.934 -17.137  1.00 35.49    -0.212 N 
ATOM      6  CZ  ARG D 557     -28.672  -2.088 -17.038  1.00 35.49     0.666 C 
ATOM      7  NH1 ARG D 557     -27.576  -2.243 -16.318  1.00 35.49    -0.235 N 
ATOM      8  NH2 ARG D 557     -29.180  -3.101 -17.677  1.00 35.49    -0.235 N 
ATOM      9  HH  ARG D 557     -27.225  -1.591 -15.888  1.00 35.49     0.174 HD
ATOM     10  HH  ARG D 557     -27.215  -3.020 -16.289  1.00 35.49     0.174 HD
ATOM     11  HH  ARG D 557     -29.893  -2.973 -18.128  1.00 35.49     0.174 HD
ATOM     12  HH  ARG D 557     -28.810  -3.862 -17.634  1.00 35.49     0.174 HD
ATOM     13  HE  ARG D 557     -29.949  -0.908 -17.679  1.00 35.49     0.178 HD
ENDBRANCH   4   5
ENDBRANCH   3   4
ENDBRANCH   2   3
ENDBRANCH   1   2
END_RES ARG D 557
BEGIN_RES GLU D 570
REMARK  3 active torsions:
REMARK  status: ('A' for Active; 'I' for Inactive)
REMARK    5  A    between atoms: CA   and  CB  
REMARK    6  A    between atoms: CB   and  CG  
REMARK    7  A    between atoms: CG   and  CD  
ROOT
ATOM     14  CA  GLU D 570     -18.033  -6.348 -13.375  1.00 32.92     0.160 C 
ENDROOT
BRANCH  14  15
ATOM     15  CB  GLU D 570     -19.500  -6.345 -13.794  1.00 32.92     0.043 C 
BRANCH  15  16
ATOM     16  CG  GLU D 570     -19.809  -6.678 -15.209  1.00 32.92     0.100 C 
BRANCH  16  17
ATOM     17  CD  GLU D 570     -20.752  -5.689 -15.854  1.00 32.92     0.185 C 
ATOM     18  OE1 GLU D 570     -20.762  -5.585 -17.096  1.00 32.92    -0.647 OA
ATOM     19  OE2 GLU D 570     -21.476  -5.000 -15.109  1.00 32.92    -0.647 OA
ENDBRANCH  16  17
ENDBRANCH  15  16
ENDBRANCH  14  15
END_RES GLU D 570
ENDMDL
MODEL 8
REMARK VINA RESULT:      -5.5      2.291      6.423
REMARK  10 active torsions:
REMARK  status: ('A' for Active; 'I' for Inactive)
REMARK    1  A    between atoms: C_2  and  O_3 
REMARK    2  A    between atoms: O_3  and  C_4 
REMARK    3  A    between atoms: C_4  and  C_6 
REMARK    4  A    between atoms: C_7  and  C_8 
REMARK    5  A    between atoms: C_17  and  C_18 
REMARK    6  A    between atoms: C_18  and  S_20 
REMARK    7  A    between atoms: S_20  and  C_21 
REMARK    8  A    between atoms: C_21  and  C_22 
REMARK    9  A    between atoms: C_22  and  O_23 
REMARK   10  A    between atoms: C_25  and  C_26 
ROOT
HETATM    1  C   UNL     1     -21.529 -10.139  -3.250  1.00  0.00     0.053 C 
HETATM    2  C   UNL     1     -21.927  -9.896  -1.978  1.00  0.00     0.055 C 
HETATM    3  N   UNL     1     -22.153  -8.609  -1.549  1.00  0.00    -0.358 N 
HETATM    4  C   UNL     1     -21.901  -7.463  -2.290  1.00  0.00     0.017 C 
HETATM    5  C   UNL     1     -22.165  -6.188  -1.511  1.00  0.00     0.069 C 
HETATM    6  C   UNL     1     -21.493  -7.555  -3.586  1.00  0.00     0.030 C 
HETATM    7  C   UNL     1     -21.385  -8.968  -4.254  1.00  0.00     0.066 C 
HETATM    8  H   UNL     1     -22.483  -8.511  -0.590  1.00  0.00     0.166 HD
ENDROOT
BRANCH   6   9
HETATM    9  C   UNL     1     -21.231  -6.286  -4.385  1.00  0.00     0.217 C 
HETATM   10  O   UNL     1     -20.412  -5.441  -4.046  1.00  0.00    -0.280 OA
BRANCH   9  11
HETATM   11  S   UNL     1     -22.212  -5.988  -5.820  1.00  0.00    -0.085 SA
BRANCH  11  12
HETATM   12  C   UNL     1     -20.952  -5.711  -7.123  1.00  0.00     0.108 C 
BRANCH  12  13
HETATM   13  C   UNL     1     -20.584  -4.260  -7.456  1.00  0.00     0.177 C 
BRANCH  13  14
HETATM   14  O   UNL     1     -20.271  -4.117  -8.843  1.00  0.00    -0.395 OA
HETATM   15  C   UNL     1     -21.440  -4.185  -9.654  1.00  0.00     0.201 C 
ENDBRANCH  13  14
ENDBRANCH  12  13
ENDBRANCH  11  12
ENDBRANCH   9  11
ENDBRANCH   6   9
BRANCH   7  16
HETATM   16  C   UNL     1     -20.198  -9.159  -5.233  1.00  0.00     0.010 C 
HETATM   17  C   UNL     1     -18.808  -9.089  -4.646  1.00  0.00     0.006 C 
ENDBRANCH   7  16
BRANCH   1  18
HETATM   18  C   UNL     1     -21.334 -11.561  -3.664  1.00  0.00     0.292 C 
HETATM   19  O   UNL     1     -20.275 -12.179  -3.632  1.00  0.00    -0.259 OA
BRANCH  18  20
HETATM   20  O   UNL     1     -22.488 -12.113  -4.066  1.00  0.00    -0.318 OA
BRANCH  20  21
HETATM   21  C   UNL     1     -22.547 -13.536  -4.185  1.00  0.00     0.174 C 
HETATM   22  C   UNL     1     -22.994 -14.178  -2.888  1.00  0.00     0.034 C 
ENDBRANCH  20  21
ENDBRANCH  18  20
ENDBRANCH   1  18
BRANCH   2  23
HETATM   23  C   UNL     1     -22.152 -10.931  -0.945  1.00  0.00    -0.009 A 
HETATM   24  C   UNL     1     -23.454 -11.358  -0.631  1.00  0.00     0.014 A 
HETATM   25  C   UNL     1     -23.661 -12.299   0.376  1.00  0.00     0.001 A 
HETATM   26  C   UNL     1     -22.579 -12.835   1.071  1.00  0.00     0.000 A 
HETATM   27  C   UNL     1     -21.281 -12.433   0.757  1.00  0.00     0.001 A 
HETATM   28  C   UNL     1     -21.067 -11.485  -0.247  1.00  0.00     0.014 A 
ENDBRANCH   2  23
TORSDOF 10
BEGIN_RES ARG D 557
REMARK  4 active torsions:
REMARK  status: ('A' for Active; 'I' for Inactive)
REMARK    1  A    between atoms: CA   and  CB  
REMARK    2  A    between atoms: CB   and  CG  
REMARK    3  A    between atoms: CG   and  CD  
REMARK    4  A    between atoms: CD   and  NE  
REMARK       I    between atoms: NE   and  CZ  
REMARK       I    between atoms: CZ   and  NH1 
REMARK       I    between atoms: CZ   and  NH2 
ROOT
ATOM      1  CA  ARG D 557     -26.217   2.705 -17.014  1.00 35.49     0.159 C 
ENDROOT
BRANCH   1   2
ATOM      2  CB  ARG D 557     -26.789   1.319 -17.183  1.00 35.49     0.034 C 
BRANCH   2   3
ATOM      3  CG  ARG D 557     -25.936   0.197 -16.771  1.00 35.49     0.027 C 
BRANCH   3   4
ATOM      4  CD  ARG D 557     -26.697  -0.865 -16.075  1.00 35.49     0.116 C 
BRANCH   4   5
ATOM      5  NE  ARG D 557     -25.957  -1.433 -14.979  1.00 35.49    -0.212 N 
ATOM      6  CZ  ARG D 557     -25.927  -2.705 -14.650  1.00 35.49     0.666 C 
ATOM      7  NH1 ARG D 557     -26.609  -3.624 -15.309  1.00 35.49    -0.235 N 
ATOM      8  NH2 ARG D 557     -25.183  -3.046 -13.638  1.00 35.49    -0.235 N 
ATOM      9  HH  ARG D 557     -27.103  -3.422 -15.979  1.00 35.49     0.174 HD
ATOM     10  HH  ARG D 557     -26.548  -4.439 -15.051  1.00 35.49     0.174 HD
ATOM     11  HH  ARG D 557     -24.748  -2.432 -13.237  1.00 35.49     0.174 HD
ATOM     12  HH  ARG D 557     -25.135  -3.858 -13.399  1.00 35.49     0.174 HD
ATOM     13  HE  ARG D 557     -25.547  -0.902 -14.457  1.00 35.49     0.178 HD
ENDBRANCH   4   5
ENDBRANCH   3   4
ENDBRANCH   2   3
ENDBRANCH   1   2
END_RES ARG D 557
BEGIN_RES GLU D 570
REMARK  3 active torsions:
REMARK  status: ('A' for Active; 'I' for Inactive)
REMARK    5  A    between atoms: CA   and  CB  
REMARK    6  A    between atoms: CB   and  CG  
REMARK    7  A    between atoms: CG   and  CD  
ROOT
ATOM     14  CA  GLU D 570     -18.033  -6.348 -13.375  1.00 32.92     0.160 C 
ENDROOT
BRANCH  14  15
ATOM     15  CB  GLU D 570     -19.500  -6.345 -13.794  1.00 32.92     0.043 C 
BRANCH  15  16
ATOM     16  CG  GLU D 570     -20.441  -5.527 -12.986  1.00 32.92     0.100 C 
BRANCH  16  17
ATOM     17  CD  GLU D 570     -21.746  -5.255 -13.697  1.00 32.92     0.185 C 
ATOM     18  OE1 GLU D 570     -22.342  -4.183 -13.479  1.00 32.92    -0.647 OA
ATOM     19  OE2 GLU D 570     -22.185  -6.131 -14.468  1.00 32.92    -0.647 OA
ENDBRANCH  16  17
ENDBRANCH  15  16
ENDBRANCH  14  15
END_RES GLU D 570
ENDMDL
MODEL 9
REMARK VINA RESULT:      -5.5      3.209      5.328
REMARK  10 active torsions:
REMARK  status: ('A' for Active; 'I' for Inactive)
REMARK    1  A    between atoms: C_2  and  O_3 
REMARK    2  A    between atoms: O_3  and  C_4 
REMARK    3  A    between atoms: C_4  and  C_6 
REMARK    4  A    between atoms: C_7  and  C_8 
REMARK    5  A    between atoms: C_17  and  C_18 
REMARK    6  A    between atoms: C_18  and  S_20 
REMARK    7  A    between atoms: S_20  and  C_21 
REMARK    8  A    between atoms: C_21  and  C_22 
REMARK    9  A    between atoms: C_22  and  O_23 
REMARK   10  A    between atoms: C_25  and  C_26 
ROOT
HETATM    1  C   UNL     1     -20.011 -10.494  -1.848  1.00  0.00     0.053 C 
HETATM    2  C   UNL     1     -19.592  -9.468  -2.627  1.00  0.00     0.055 C 
HETATM    3  N   UNL     1     -18.267  -9.350  -2.976  1.00  0.00    -0.358 N 
HETATM    4  C   UNL     1     -17.240 -10.155  -2.502  1.00  0.00     0.017 C 
HETATM    5  C   UNL     1     -15.874  -9.720  -2.996  1.00  0.00     0.069 C 
HETATM    6  C   UNL     1     -17.514 -11.225  -1.705  1.00  0.00     0.030 C 
HETATM    7  C   UNL     1     -19.007 -11.583  -1.393  1.00  0.00     0.066 C 
HETATM    8  H   UNL     1     -18.036  -8.573  -3.592  1.00  0.00     0.166 HD
ENDROOT
BRANCH   6   9
HETATM    9  C   UNL     1     -16.375 -12.102  -1.203  1.00  0.00     0.217 C 
HETATM   10  O   UNL     1     -15.659 -11.789  -0.260  1.00  0.00    -0.280 OA
BRANCH   9  11
HETATM   11  S   UNL     1     -16.027 -13.596  -2.073  1.00  0.00    -0.085 SA
BRANCH  11  12
HETATM   12  C   UNL     1     -14.215 -13.776  -1.863  1.00  0.00     0.108 C 
BRANCH  12  13
HETATM   13  C   UNL     1     -13.361 -13.883  -3.132  1.00  0.00     0.177 C 
BRANCH  13  14
HETATM   14  O   UNL     1     -13.080 -12.590  -3.670  1.00  0.00    -0.395 OA
HETATM   15  C   UNL     1     -13.729 -12.392  -4.923  1.00  0.00     0.201 C 
ENDBRANCH  13  14
ENDBRANCH  12  13
ENDBRANCH  11  12
ENDBRANCH   9  11
ENDBRANCH   6   9
BRANCH   7  16
HETATM   16  C   UNL     1     -19.289 -12.097   0.042  1.00  0.00     0.010 C 
HETATM   17  C   UNL     1     -19.791 -13.516   0.175  1.00  0.00     0.006 C 
ENDBRANCH   7  16
BRANCH   1  18
HETATM   18  C   UNL     1     -21.469 -10.585  -1.534  1.00  0.00     0.292 C 
HETATM   19  O   UNL     1     -22.317 -11.145  -2.220  1.00  0.00    -0.259 OA
BRANCH  18  20
HETATM   20  O   UNL     1     -21.753  -9.986  -0.368  1.00  0.00    -0.318 OA
BRANCH  20  21
HETATM   21  C   UNL     1     -23.083  -9.504  -0.167  1.00  0.00     0.174 C 
HETATM   22  C   UNL     1     -23.079  -8.125   0.461  1.00  0.00     0.034 C 
ENDBRANCH  20  21
ENDBRANCH  18  20
ENDBRANCH   1  18
BRANCH   2  23
HETATM   23  C   UNL     1     -20.461  -8.401  -3.168  1.00  0.00    -0.009 A 
HETATM   24  C   UNL     1     -20.838  -7.309  -2.367  1.00  0.00     0.014 A 
HETATM   25  C   UNL     1     -21.696  -6.332  -2.868  1.00  0.00     0.001 A 
HETATM   26  C   UNL     1     -22.175  -6.419  -4.173  1.00  0.00     0.000 A 
HETATM   27  C   UNL     1     -21.794  -7.487  -4.985  1.00  0.00     0.001 A 
HETATM   28  C   UNL     1     -20.941  -8.475  -4.486  1.00  0.00     0.014 A 
ENDBRANCH   2  23
TORSDOF 10
BEGIN_RES ARG D 557
REMARK  4 active torsions:
REMARK  status: ('A' for Active; 'I' for Inactive)
REMARK    1  A    between atoms: CA   and  CB  
REMARK    2  A    between atoms: CB   and  CG  
REMARK    3  A    between atoms: CG   and  CD  
REMARK    4  A    between atoms: CD   and  NE  
REMARK       I    between atoms: NE   and  CZ  
REMARK       I    between atoms: CZ   and  NH1 
REMARK       I    between atoms: CZ   and  NH2 
ROOT
ATOM      1  CA  ARG D 557     -26.217   2.705 -17.014  1.00 35.49     0.159 C 
ENDROOT
BRANCH   1   2
ATOM      2  CB  ARG D 557     -26.789   1.319 -17.183  1.00 35.49     0.034 C 
BRANCH   2   3
ATOM      3  CG  ARG D 557     -25.934   0.197 -16.777  1.00 35.49     0.027 C 
BRANCH   3   4
ATOM      4  CD  ARG D 557     -26.694  -0.873 -16.093  1.00 35.49     0.116 C 
BRANCH   4   5
ATOM      5  NE  ARG D 557     -25.972  -1.423 -14.976  1.00 35.49    -0.212 N 
ATOM      6  CZ  ARG D 557     -25.938  -2.691 -14.632  1.00 35.49     0.666 C 
ATOM      7  NH1 ARG D 557     -26.599  -3.623 -15.292  1.00 35.49    -0.235 N 
ATOM      8  NH2 ARG D 557     -25.212  -3.014 -13.601  1.00 35.49    -0.235 N 
ATOM      9  HH  ARG D 557     -27.081  -3.433 -15.975  1.00 35.49     0.174 HD
ATOM     10  HH  ARG D 557     -26.537  -4.434 -15.023  1.00 35.49     0.174 HD
ATOM     11  HH  ARG D 557     -24.790  -2.392 -13.198  1.00 35.49     0.174 HD
ATOM     12  HH  ARG D 557     -25.162  -3.822 -13.351  1.00 35.49     0.174 HD
ATOM     13  HE  ARG D 557     -25.576  -0.883 -14.452  1.00 35.49     0.178 HD
ENDBRANCH   4   5
ENDBRANCH   3   4
ENDBRANCH   2   3
ENDBRANCH   1   2
END_RES ARG D 557
BEGIN_RES GLU D 570
REMARK  3 active torsions:
REMARK  status: ('A' for Active; 'I' for Inactive)
REMARK    5  A    between atoms: CA   and  CB  
REMARK    6  A    between atoms: CB   and  CG  
REMARK    7  A    between atoms: CG   and  CD  
ROOT
ATOM     14  CA  GLU D 570     -18.033  -6.348 -13.375  1.00 32.92     0.160 C 
ENDROOT
BRANCH  14  15
ATOM     15  CB  GLU D 570     -19.500  -6.345 -13.794  1.00 32.92     0.043 C 
BRANCH  15  16
ATOM     16  CG  GLU D 570     -19.797  -6.227 -15.245  1.00 32.92     0.100 C 
BRANCH  16  17
ATOM     17  CD  GLU D 570     -20.696  -7.330 -15.754  1.00 32.92     0.185 C 
ATOM     18  OE1 GLU D 570     -21.513  -7.075 -16.659  1.00 32.92    -0.647 OA
ATOM     19  OE2 GLU D 570     -20.592  -8.457 -15.231  1.00 32.92    -0.647 OA
ENDBRANCH  16  17
ENDBRANCH  15  16
ENDBRANCH  14  15
END_RES GLU D 570
ENDMDL
