MODEL 1
REMARK VINA RESULT:      -9.6      0.000      0.000
REMARK  3 active torsions:
REMARK  status: ('A' for Active; 'I' for Inactive)
REMARK    1  A    between atoms: C_2  and  C_3 
REMARK       I    between atoms: C_2  and  N_16 
REMARK    2  A    between atoms: C_4  and  C_5 
REMARK    3  A    between atoms: C_6  and  C_7 
ROOT
HETATM    1  C   UNL     1     -23.446  -5.971 -13.826  1.00  0.00     0.001 C 
HETATM    2  C   UNL     1     -23.428  -4.832 -13.114  1.00  0.00     0.011 C 
ENDROOT
BRANCH   1   3
HETATM    3  C   UNL     1     -24.068  -6.079 -15.127  1.00  0.00     0.005 C 
HETATM    4  C   UNL     1     -25.383  -5.904 -15.318  1.00  0.00     0.074 C 
BRANCH   4   5
HETATM    5  C   UNL     1     -25.964  -6.128 -16.666  1.00  0.00     0.243 C 
HETATM    6  O   UNL     1     -25.292  -6.685 -17.529  1.00  0.00    -0.268 OA
HETATM    7  N   UNL     1     -27.272  -5.717 -16.852  1.00  0.00    -0.349 N 
HETATM    8  C   UNL     1     -28.070  -4.920 -15.920  1.00  0.00     0.126 C 
HETATM    9  C   UNL     1     -27.959  -6.063 -18.094  1.00  0.00     0.126 C 
HETATM   10  C   UNL     1     -29.346  -5.671 -15.547  1.00  0.00     0.020 C 
HETATM   11  C   UNL     1     -30.125  -6.099 -16.793  1.00  0.00     0.003 C 
HETATM   12  C   UNL     1     -29.232  -6.849 -17.784  1.00  0.00     0.020 C 
ENDBRANCH   4   5
ENDBRANCH   1   3
BRANCH   2  13
HETATM   13  C   UNL     1     -22.742  -4.664 -11.819  1.00  0.00    -0.033 A 
HETATM   14  C   UNL     1     -21.349  -4.428 -11.734  1.00  0.00     0.014 A 
HETATM   15  C   UNL     1     -20.720  -4.221 -10.500  1.00  0.00     0.040 A 
HETATM   16  C   UNL     1     -21.506  -4.241  -9.370  1.00  0.00     0.105 A 
HETATM   17  C   UNL     1     -22.861  -4.451  -9.439  1.00  0.00     0.105 A 
HETATM   18  O   UNL     1     -21.071  -4.050  -8.096  1.00  0.00    -0.323 OA
HETATM   19  C   UNL     1     -23.507  -4.660 -10.642  1.00  0.00     0.051 A 
HETATM   20  O   UNL     1     -23.452  -4.420  -8.214  1.00  0.00    -0.323 OA
HETATM   21  C   UNL     1     -22.307  -4.191  -7.366  1.00  0.00     0.352 A 
ENDBRANCH   2  13
TORSDOF 3
BEGIN_RES ARG D 557
REMARK  4 active torsions:
REMARK  status: ('A' for Active; 'I' for Inactive)
REMARK    1  A    between atoms: CA   and  CB  
REMARK    2  A    between atoms: CB   and  CG  
REMARK    3  A    between atoms: CG   and  CD  
REMARK    4  A    between atoms: CD   and  NE  
REMARK       I    between atoms: NE   and  CZ  
REMARK       I    between atoms: CZ   and  NH1 
REMARK       I    between atoms: CZ   and  NH2 
ROOT
ATOM      1  CA  ARG D 557     -26.217   2.705 -17.014  1.00 35.49     0.159 C 
ENDROOT
BRANCH   1   2
ATOM      2  CB  ARG D 557     -26.789   1.319 -17.183  1.00 35.49     0.034 C 
BRANCH   2   3
ATOM      3  CG  ARG D 557     -25.831   0.207 -17.200  1.00 35.49     0.027 C 
BRANCH   3   4
ATOM      4  CD  ARG D 557     -24.687   0.434 -16.289  1.00 35.49     0.116 C 
BRANCH   4   5
ATOM      5  NE  ARG D 557     -24.803  -0.327 -15.072  1.00 35.49    -0.212 N 
ATOM      6  CZ  ARG D 557     -24.005  -1.302 -14.697  1.00 35.49     0.666 C 
ATOM      7  NH1 ARG D 557     -22.987  -1.708 -15.432  1.00 35.49    -0.235 N 
ATOM      8  NH2 ARG D 557     -24.248  -1.868 -13.550  1.00 35.49    -0.235 N 
ATOM      9  HH  ARG D 557     -22.807  -1.348 -16.189  1.00 35.49     0.174 HD
ATOM     10  HH  ARG D 557     -22.499  -2.347 -15.135  1.00 35.49     0.174 HD
ATOM     11  HH  ARG D 557     -24.908  -1.580 -13.093  1.00 35.49     0.174 HD
ATOM     12  HH  ARG D 557     -23.753  -2.498 -13.272  1.00 35.49     0.174 HD
ATOM     13  HE  ARG D 557     -25.475  -0.181 -14.573  1.00 35.49     0.178 HD
ENDBRANCH   4   5
ENDBRANCH   3   4
ENDBRANCH   2   3
ENDBRANCH   1   2
END_RES ARG D 557
BEGIN_RES GLU D 570
REMARK  3 active torsions:
REMARK  status: ('A' for Active; 'I' for Inactive)
REMARK    5  A    between atoms: CA   and  CB  
REMARK    6  A    between atoms: CB   and  CG  
REMARK    7  A    between atoms: CG   and  CD  
ROOT
ATOM     14  CA  GLU D 570     -18.033  -6.348 -13.375  1.00 32.92     0.160 C 
ENDROOT
BRANCH  14  15
ATOM     15  CB  GLU D 570     -19.500  -6.345 -13.794  1.00 32.92     0.043 C 
BRANCH  15  16
ATOM     16  CG  GLU D 570     -20.086  -7.634 -14.242  1.00 32.92     0.100 C 
BRANCH  16  17
ATOM     17  CD  GLU D 570     -20.666  -7.565 -15.636  1.00 32.92     0.185 C 
ATOM     18  OE1 GLU D 570     -20.596  -6.494 -16.268  1.00 32.92    -0.647 OA
ATOM     19  OE2 GLU D 570     -21.211  -8.589 -16.094  1.00 32.92    -0.647 OA
ENDBRANCH  16  17
ENDBRANCH  15  16
ENDBRANCH  14  15
END_RES GLU D 570
ENDMDL
MODEL 2
REMARK VINA RESULT:      -9.5      4.670      9.361
REMARK  3 active torsions:
REMARK  status: ('A' for Active; 'I' for Inactive)
REMARK    1  A    between atoms: C_2  and  C_3 
REMARK       I    between atoms: C_2  and  N_16 
REMARK    2  A    between atoms: C_4  and  C_5 
REMARK    3  A    between atoms: C_6  and  C_7 
ROOT
HETATM    1  C   UNL     1     -21.409  -5.535  -6.490  1.00  0.00     0.001 C 
HETATM    2  C   UNL     1     -21.124  -4.385  -7.123  1.00  0.00     0.011 C 
ENDROOT
BRANCH   1   3
HETATM    3  C   UNL     1     -21.274  -5.704  -5.059  1.00  0.00     0.005 C 
HETATM    4  C   UNL     1     -21.936  -6.648  -4.376  1.00  0.00     0.074 C 
BRANCH   4   5
HETATM    5  C   UNL     1     -21.823  -6.696  -2.896  1.00  0.00     0.243 C 
HETATM    6  O   UNL     1     -22.024  -5.678  -2.241  1.00  0.00    -0.268 OA
HETATM    7  N   UNL     1     -21.529  -7.928  -2.338  1.00  0.00    -0.349 N 
HETATM    8  C   UNL     1     -21.134  -9.135  -3.064  1.00  0.00     0.126 C 
HETATM    9  C   UNL     1     -21.575  -8.082  -0.886  1.00  0.00     0.126 C 
HETATM   10  C   UNL     1     -22.103 -10.274  -2.753  1.00  0.00     0.020 C 
HETATM   11  C   UNL     1     -22.235 -10.495  -1.244  1.00  0.00     0.003 C 
HETATM   12  C   UNL     1     -22.557  -9.190  -0.511  1.00  0.00     0.020 C 
ENDBRANCH   4   5
ENDBRANCH   1   3
BRANCH   2  13
HETATM   13  C   UNL     1     -21.317  -4.154  -8.567  1.00  0.00    -0.033 A 
HETATM   14  C   UNL     1     -20.305  -4.437  -9.514  1.00  0.00     0.014 A 
HETATM   15  C   UNL     1     -20.521  -4.258 -10.886  1.00  0.00     0.040 A 
HETATM   16  C   UNL     1     -21.760  -3.812 -11.285  1.00  0.00     0.105 A 
HETATM   17  C   UNL     1     -22.757  -3.550 -10.380  1.00  0.00     0.105 A 
HETATM   18  O   UNL     1     -22.149  -3.592 -12.570  1.00  0.00    -0.323 OA
HETATM   19  C   UNL     1     -22.571  -3.714  -9.021  1.00  0.00     0.051 A 
HETATM   20  O   UNL     1     -23.904  -3.130 -10.980  1.00  0.00    -0.323 OA
HETATM   21  C   UNL     1     -23.503  -3.135 -12.366  1.00  0.00     0.352 A 
ENDBRANCH   2  13
TORSDOF 3
BEGIN_RES ARG D 557
REMARK  4 active torsions:
REMARK  status: ('A' for Active; 'I' for Inactive)
REMARK    1  A    between atoms: CA   and  CB  
REMARK    2  A    between atoms: CB   and  CG  
REMARK    3  A    between atoms: CG   and  CD  
REMARK    4  A    between atoms: CD   and  NE  
REMARK       I    between atoms: NE   and  CZ  
REMARK       I    between atoms: CZ   and  NH1 
REMARK       I    between atoms: CZ   and  NH2 
ROOT
ATOM      1  CA  ARG D 557     -26.217   2.705 -17.014  1.00 35.49     0.159 C 
ENDROOT
BRANCH   1   2
ATOM      2  CB  ARG D 557     -26.789   1.319 -17.183  1.00 35.49     0.034 C 
BRANCH   2   3
ATOM      3  CG  ARG D 557     -28.227   1.162 -16.931  1.00 35.49     0.027 C 
BRANCH   3   4
ATOM      4  CD  ARG D 557     -28.607  -0.249 -16.691  1.00 35.49     0.116 C 
BRANCH   4   5
ATOM      5  NE  ARG D 557     -27.575  -0.979 -16.003  1.00 35.49    -0.212 N 
ATOM      6  CZ  ARG D 557     -27.386  -2.278 -16.060  1.00 35.49     0.666 C 
ATOM      7  NH1 ARG D 557     -28.161  -3.078 -16.770  1.00 35.49    -0.235 N 
ATOM      8  NH2 ARG D 557     -26.386  -2.769 -15.388  1.00 35.49    -0.235 N 
ATOM      9  HH  ARG D 557     -28.824  -2.776 -17.222  1.00 35.49     0.174 HD
ATOM     10  HH  ARG D 557     -27.988  -3.917 -16.771  1.00 35.49     0.174 HD
ATOM     11  HH  ARG D 557     -25.897  -2.228 -14.944  1.00 35.49     0.174 HD
ATOM     12  HH  ARG D 557     -26.229  -3.603 -15.403  1.00 35.49     0.174 HD
ATOM     13  HE  ARG D 557     -27.074  -0.552 -15.465  1.00 35.49     0.178 HD
ENDBRANCH   4   5
ENDBRANCH   3   4
ENDBRANCH   2   3
ENDBRANCH   1   2
END_RES ARG D 557
BEGIN_RES GLU D 570
REMARK  3 active torsions:
REMARK  status: ('A' for Active; 'I' for Inactive)
REMARK    5  A    between atoms: CA   and  CB  
REMARK    6  A    between atoms: CB   and  CG  
REMARK    7  A    between atoms: CG   and  CD  
ROOT
ATOM     14  CA  GLU D 570     -18.033  -6.348 -13.375  1.00 32.92     0.160 C 
ENDROOT
BRANCH  14  15
ATOM     15  CB  GLU D 570     -19.500  -6.345 -13.794  1.00 32.92     0.043 C 
BRANCH  15  16
ATOM     16  CG  GLU D 570     -19.812  -5.947 -15.191  1.00 32.92     0.100 C 
BRANCH  16  17
ATOM     17  CD  GLU D 570     -21.270  -5.608 -15.396  1.00 32.92     0.185 C 
ATOM     18  OE1 GLU D 570     -21.577  -4.733 -16.227  1.00 32.92    -0.647 OA
ATOM     19  OE2 GLU D 570     -22.114  -6.213 -14.705  1.00 32.92    -0.647 OA
ENDBRANCH  16  17
ENDBRANCH  15  16
ENDBRANCH  14  15
END_RES GLU D 570
ENDMDL
MODEL 3
REMARK VINA RESULT:      -9.4      1.750      2.186
REMARK  3 active torsions:
REMARK  status: ('A' for Active; 'I' for Inactive)
REMARK    1  A    between atoms: C_2  and  C_3 
REMARK       I    between atoms: C_2  and  N_16 
REMARK    2  A    between atoms: C_4  and  C_5 
REMARK    3  A    between atoms: C_6  and  C_7 
ROOT
HETATM    1  C   UNL     1     -23.419  -5.601 -13.606  1.00  0.00     0.001 C 
HETATM    2  C   UNL     1     -23.288  -4.519 -12.819  1.00  0.00     0.011 C 
ENDROOT
BRANCH   1   3
HETATM    3  C   UNL     1     -24.094  -5.570 -14.885  1.00  0.00     0.005 C 
HETATM    4  C   UNL     1     -24.939  -6.532 -15.280  1.00  0.00     0.074 C 
BRANCH   4   5
HETATM    5  C   UNL     1     -25.519  -6.482 -16.647  1.00  0.00     0.243 C 
HETATM    6  O   UNL     1     -24.849  -6.863 -17.602  1.00  0.00    -0.268 OA
HETATM    7  N   UNL     1     -26.824  -6.035 -16.750  1.00  0.00    -0.349 N 
HETATM    8  C   UNL     1     -27.620  -5.432 -15.679  1.00  0.00     0.126 C 
HETATM    9  C   UNL     1     -27.510  -6.125 -18.036  1.00  0.00     0.126 C 
HETATM   10  C   UNL     1     -28.901  -6.234 -15.462  1.00  0.00     0.020 C 
HETATM   11  C   UNL     1     -29.679  -6.403 -16.770  1.00  0.00     0.003 C 
HETATM   12  C   UNL     1     -28.789  -6.948 -17.888  1.00  0.00     0.020 C 
ENDBRANCH   4   5
ENDBRANCH   1   3
BRANCH   2  13
HETATM   13  C   UNL     1     -22.545  -4.495 -11.545  1.00  0.00    -0.033 A 
HETATM   14  C   UNL     1     -21.134  -4.398 -11.503  1.00  0.00     0.014 A 
HETATM   15  C   UNL     1     -20.446  -4.326 -10.285  1.00  0.00     0.040 A 
HETATM   16  C   UNL     1     -21.190  -4.337  -9.128  1.00  0.00     0.105 A 
HETATM   17  C   UNL     1     -22.561  -4.413  -9.154  1.00  0.00     0.105 A 
HETATM   18  O   UNL     1     -20.695  -4.265  -7.864  1.00  0.00    -0.323 OA
HETATM   19  C   UNL     1     -23.265  -4.488 -10.340  1.00  0.00     0.051 A 
HETATM   20  O   UNL     1     -23.103  -4.399  -7.906  1.00  0.00    -0.323 OA
HETATM   21  C   UNL     1     -21.913  -4.331  -7.094  1.00  0.00     0.352 A 
ENDBRANCH   2  13
TORSDOF 3
BEGIN_RES ARG D 557
REMARK  4 active torsions:
REMARK  status: ('A' for Active; 'I' for Inactive)
REMARK    1  A    between atoms: CA   and  CB  
REMARK    2  A    between atoms: CB   and  CG  
REMARK    3  A    between atoms: CG   and  CD  
REMARK    4  A    between atoms: CD   and  NE  
REMARK       I    between atoms: NE   and  CZ  
REMARK       I    between atoms: CZ   and  NH1 
REMARK       I    between atoms: CZ   and  NH2 
ROOT
ATOM      1  CA  ARG D 557     -26.217   2.705 -17.014  1.00 35.49     0.159 C 
ENDROOT
BRANCH   1   2
ATOM      2  CB  ARG D 557     -26.789   1.319 -17.183  1.00 35.49     0.034 C 
BRANCH   2   3
ATOM      3  CG  ARG D 557     -28.228   1.227 -17.461  1.00 35.49     0.027 C 
BRANCH   3   4
ATOM      4  CD  ARG D 557     -28.932   0.343 -16.505  1.00 35.49     0.116 C 
BRANCH   4   5
ATOM      5  NE  ARG D 557     -29.336  -0.899 -17.111  1.00 35.49    -0.212 N 
ATOM      6  CZ  ARG D 557     -28.687  -2.039 -17.033  1.00 35.49     0.666 C 
ATOM      7  NH1 ARG D 557     -27.547  -2.163 -16.378  1.00 35.49    -0.235 N 
ATOM      8  NH2 ARG D 557     -29.212  -3.070 -17.628  1.00 35.49    -0.235 N 
ATOM      9  HH  ARG D 557     -27.185  -1.498 -15.977  1.00 35.49     0.174 HD
ATOM     10  HH  ARG D 557     -27.170  -2.932 -16.359  1.00 35.49     0.174 HD
ATOM     11  HH  ARG D 557     -29.952  -2.962 -18.037  1.00 35.49     0.174 HD
ATOM     12  HH  ARG D 557     -28.824  -3.824 -17.596  1.00 35.49     0.174 HD
ATOM     13  HE  ARG D 557     -30.022  -0.893 -17.613  1.00 35.49     0.178 HD
ENDBRANCH   4   5
ENDBRANCH   3   4
ENDBRANCH   2   3
ENDBRANCH   1   2
END_RES ARG D 557
BEGIN_RES GLU D 570
REMARK  3 active torsions:
REMARK  status: ('A' for Active; 'I' for Inactive)
REMARK    5  A    between atoms: CA   and  CB  
REMARK    6  A    between atoms: CB   and  CG  
REMARK    7  A    between atoms: CG   and  CD  
ROOT
ATOM     14  CA  GLU D 570     -18.033  -6.348 -13.375  1.00 32.92     0.160 C 
ENDROOT
BRANCH  14  15
ATOM     15  CB  GLU D 570     -19.500  -6.345 -13.794  1.00 32.92     0.043 C 
BRANCH  15  16
ATOM     16  CG  GLU D 570     -20.091  -7.637 -14.228  1.00 32.92     0.100 C 
BRANCH  16  17
ATOM     17  CD  GLU D 570     -20.755  -7.556 -15.583  1.00 32.92     0.185 C 
ATOM     18  OE1 GLU D 570     -20.846  -6.449 -16.147  1.00 32.92    -0.647 OA
ATOM     19  OE2 GLU D 570     -21.204  -8.609 -16.078  1.00 32.92    -0.647 OA
ENDBRANCH  16  17
ENDBRANCH  15  16
ENDBRANCH  14  15
END_RES GLU D 570
ENDMDL
MODEL 4
REMARK VINA RESULT:      -9.1      4.612      9.409
REMARK  3 active torsions:
REMARK  status: ('A' for Active; 'I' for Inactive)
REMARK    1  A    between atoms: C_2  and  C_3 
REMARK       I    between atoms: C_2  and  N_16 
REMARK    2  A    between atoms: C_4  and  C_5 
REMARK    3  A    between atoms: C_6  and  C_7 
ROOT
HETATM    1  C   UNL     1     -21.236  -5.724  -6.128  1.00  0.00     0.001 C 
HETATM    2  C   UNL     1     -21.269  -4.573  -6.820  1.00  0.00     0.011 C 
ENDROOT
BRANCH   1   3
HETATM    3  C   UNL     1     -21.193  -5.775  -4.682  1.00  0.00     0.005 C 
HETATM    4  C   UNL     1     -21.849  -6.703  -3.972  1.00  0.00     0.074 C 
BRANCH   4   5
HETATM    5  C   UNL     1     -21.838  -6.633  -2.488  1.00  0.00     0.243 C 
HETATM    6  O   UNL     1     -22.034  -5.556  -1.932  1.00  0.00    -0.268 OA
HETATM    7  N   UNL     1     -21.641  -7.824  -1.813  1.00  0.00    -0.349 N 
HETATM    8  C   UNL     1     -21.256  -9.104  -2.411  1.00  0.00     0.126 C 
HETATM    9  C   UNL     1     -21.791  -7.855  -0.361  1.00  0.00     0.126 C 
HETATM   10  C   UNL     1     -22.297 -10.171  -2.079  1.00  0.00     0.020 C 
HETATM   11  C   UNL     1     -22.540 -10.260  -0.570  1.00  0.00     0.003 C 
HETATM   12  C   UNL     1     -22.848  -8.887   0.032  1.00  0.00     0.020 C 
ENDBRANCH   4   5
ENDBRANCH   1   3
BRANCH   2  13
HETATM   13  C   UNL     1     -21.387  -4.481  -8.287  1.00  0.00    -0.033 A 
HETATM   14  C   UNL     1     -20.270  -4.211  -9.113  1.00  0.00     0.014 A 
HETATM   15  C   UNL     1     -20.387  -4.177 -10.508  1.00  0.00     0.040 A 
HETATM   16  C   UNL     1     -21.626  -4.428 -11.052  1.00  0.00     0.105 A 
HETATM   17  C   UNL     1     -22.715  -4.709 -10.264  1.00  0.00     0.105 A 
HETATM   18  O   UNL     1     -21.923  -4.446 -12.379  1.00  0.00    -0.323 OA
HETATM   19  C   UNL     1     -22.628  -4.747  -8.886  1.00  0.00     0.051 A 
HETATM   20  O   UNL     1     -23.838  -4.938 -10.997  1.00  0.00    -0.323 OA
HETATM   21  C   UNL     1     -23.334  -4.745 -12.335  1.00  0.00     0.352 A 
ENDBRANCH   2  13
TORSDOF 3
BEGIN_RES ARG D 557
REMARK  4 active torsions:
REMARK  status: ('A' for Active; 'I' for Inactive)
REMARK    1  A    between atoms: CA   and  CB  
REMARK    2  A    between atoms: CB   and  CG  
REMARK    3  A    between atoms: CG   and  CD  
REMARK    4  A    between atoms: CD   and  NE  
REMARK       I    between atoms: NE   and  CZ  
REMARK       I    between atoms: CZ   and  NH1 
REMARK       I    between atoms: CZ   and  NH2 
ROOT
ATOM      1  CA  ARG D 557     -26.217   2.705 -17.014  1.00 35.49     0.159 C 
ENDROOT
BRANCH   1   2
ATOM      2  CB  ARG D 557     -26.789   1.319 -17.183  1.00 35.49     0.034 C 
BRANCH   2   3
ATOM      3  CG  ARG D 557     -25.832   0.206 -17.192  1.00 35.49     0.027 C 
BRANCH   3   4
ATOM      4  CD  ARG D 557     -24.700   0.427 -16.263  1.00 35.49     0.116 C 
BRANCH   4   5
ATOM      5  NE  ARG D 557     -24.819  -0.362 -15.065  1.00 35.49    -0.212 N 
ATOM      6  CZ  ARG D 557     -24.010  -1.332 -14.701  1.00 35.49     0.666 C 
ATOM      7  NH1 ARG D 557     -22.975  -1.703 -15.431  1.00 35.49    -0.235 N 
ATOM      8  NH2 ARG D 557     -24.258  -1.927 -13.570  1.00 35.49    -0.235 N 
ATOM      9  HH  ARG D 557     -22.792  -1.324 -16.177  1.00 35.49     0.174 HD
ATOM     10  HH  ARG D 557     -22.480  -2.340 -15.141  1.00 35.49     0.174 HD
ATOM     11  HH  ARG D 557     -24.929  -1.661 -13.117  1.00 35.49     0.174 HD
ATOM     12  HH  ARG D 557     -23.755  -2.554 -13.300  1.00 35.49     0.174 HD
ATOM     13  HE  ARG D 557     -25.501  -0.239 -14.572  1.00 35.49     0.178 HD
ENDBRANCH   4   5
ENDBRANCH   3   4
ENDBRANCH   2   3
ENDBRANCH   1   2
END_RES ARG D 557
BEGIN_RES GLU D 570
REMARK  3 active torsions:
REMARK  status: ('A' for Active; 'I' for Inactive)
REMARK    5  A    between atoms: CA   and  CB  
REMARK    6  A    between atoms: CB   and  CG  
REMARK    7  A    between atoms: CG   and  CD  
ROOT
ATOM     14  CA  GLU D 570     -18.033  -6.348 -13.375  1.00 32.92     0.160 C 
ENDROOT
BRANCH  14  15
ATOM     15  CB  GLU D 570     -19.500  -6.345 -13.794  1.00 32.92     0.043 C 
BRANCH  15  16
ATOM     16  CG  GLU D 570     -20.090  -7.637 -14.229  1.00 32.92     0.100 C 
BRANCH  16  17
ATOM     17  CD  GLU D 570     -21.141  -7.474 -15.302  1.00 32.92     0.185 C 
ATOM     18  OE1 GLU D 570     -21.988  -6.567 -15.187  1.00 32.92    -0.647 OA
ATOM     19  OE2 GLU D 570     -21.128  -8.272 -16.260  1.00 32.92    -0.647 OA
ENDBRANCH  16  17
ENDBRANCH  15  16
ENDBRANCH  14  15
END_RES GLU D 570
ENDMDL
MODEL 5
REMARK VINA RESULT:      -8.2      2.274      3.094
REMARK  3 active torsions:
REMARK  status: ('A' for Active; 'I' for Inactive)
REMARK    1  A    between atoms: C_2  and  C_3 
REMARK       I    between atoms: C_2  and  N_16 
REMARK    2  A    between atoms: C_4  and  C_5 
REMARK    3  A    between atoms: C_6  and  C_7 
ROOT
HETATM    1  C   UNL     1     -23.522  -4.355 -13.447  1.00  0.00     0.001 C 
HETATM    2  C   UNL     1     -23.600  -4.719 -12.156  1.00  0.00     0.011 C 
ENDROOT
BRANCH   1   3
HETATM    3  C   UNL     1     -24.619  -4.510 -14.378  1.00  0.00     0.005 C 
HETATM    4  C   UNL     1     -24.887  -5.669 -14.994  1.00  0.00     0.074 C 
BRANCH   4   5
HETATM    5  C   UNL     1     -25.968  -5.726 -16.011  1.00  0.00     0.243 C 
HETATM    6  O   UNL     1     -26.974  -5.038 -15.863  1.00  0.00    -0.268 OA
HETATM    7  N   UNL     1     -25.745  -6.540 -17.107  1.00  0.00    -0.349 N 
HETATM    8  C   UNL     1     -24.644  -7.490 -17.269  1.00  0.00     0.126 C 
HETATM    9  C   UNL     1     -26.686  -6.508 -18.223  1.00  0.00     0.126 C 
HETATM   10  C   UNL     1     -23.849  -7.161 -18.531  1.00  0.00     0.020 C 
HETATM   11  C   UNL     1     -24.762  -7.081 -19.758  1.00  0.00     0.003 C 
HETATM   12  C   UNL     1     -25.952  -6.149 -19.514  1.00  0.00     0.020 C 
ENDBRANCH   4   5
ENDBRANCH   1   3
BRANCH   2  13
HETATM   13  C   UNL     1     -22.531  -4.510 -11.161  1.00  0.00    -0.033 A 
HETATM   14  C   UNL     1     -21.225  -4.116 -11.536  1.00  0.00     0.014 A 
HETATM   15  C   UNL     1     -20.234  -3.874 -10.576  1.00  0.00     0.040 A 
HETATM   16  C   UNL     1     -20.578  -4.017  -9.252  1.00  0.00     0.105 A 
HETATM   17  C   UNL     1     -21.846  -4.381  -8.872  1.00  0.00     0.105 A 
HETATM   18  O   UNL     1     -19.752  -3.815  -8.190  1.00  0.00    -0.323 OA
HETATM   19  C   UNL     1     -22.842  -4.629  -9.797  1.00  0.00     0.051 A 
HETATM   20  O   UNL     1     -21.980  -4.456  -7.520  1.00  0.00    -0.323 OA
HETATM   21  C   UNL     1     -20.642  -4.120  -7.096  1.00  0.00     0.352 A 
ENDBRANCH   2  13
TORSDOF 3
BEGIN_RES ARG D 557
REMARK  4 active torsions:
REMARK  status: ('A' for Active; 'I' for Inactive)
REMARK    1  A    between atoms: CA   and  CB  
REMARK    2  A    between atoms: CB   and  CG  
REMARK    3  A    between atoms: CG   and  CD  
REMARK    4  A    between atoms: CD   and  NE  
REMARK       I    between atoms: NE   and  CZ  
REMARK       I    between atoms: CZ   and  NH1 
REMARK       I    between atoms: CZ   and  NH2 
ROOT
ATOM      1  CA  ARG D 557     -26.217   2.705 -17.014  1.00 35.49     0.159 C 
ENDROOT
BRANCH   1   2
ATOM      2  CB  ARG D 557     -26.789   1.319 -17.183  1.00 35.49     0.034 C 
BRANCH   2   3
ATOM      3  CG  ARG D 557     -28.236   1.225 -17.413  1.00 35.49     0.027 C 
BRANCH   3   4
ATOM      4  CD  ARG D 557     -28.896   0.286 -16.477  1.00 35.49     0.116 C 
BRANCH   4   5
ATOM      5  NE  ARG D 557     -29.216  -0.969 -17.104  1.00 35.49    -0.212 N 
ATOM      6  CZ  ARG D 557     -28.540  -2.088 -16.972  1.00 35.49     0.666 C 
ATOM      7  NH1 ARG D 557     -27.449  -2.174 -16.234  1.00 35.49    -0.235 N 
ATOM      8  NH2 ARG D 557     -28.988  -3.138 -17.598  1.00 35.49    -0.235 N 
ATOM      9  HH  ARG D 557     -27.137  -1.497 -15.812  1.00 35.49     0.174 HD
ATOM     10  HH  ARG D 557     -27.051  -2.931 -16.183  1.00 35.49     0.174 HD
ATOM     11  HH  ARG D 557     -29.699  -3.054 -18.061  1.00 35.49     0.174 HD
ATOM     12  HH  ARG D 557     -28.581  -3.879 -17.533  1.00 35.49     0.174 HD
ATOM     13  HE  ARG D 557     -29.864  -0.986 -17.656  1.00 35.49     0.178 HD
ENDBRANCH   4   5
ENDBRANCH   3   4
ENDBRANCH   2   3
ENDBRANCH   1   2
END_RES ARG D 557
BEGIN_RES GLU D 570
REMARK  3 active torsions:
REMARK  status: ('A' for Active; 'I' for Inactive)
REMARK    5  A    between atoms: CA   and  CB  
REMARK    6  A    between atoms: CB   and  CG  
REMARK    7  A    between atoms: CG   and  CD  
ROOT
ATOM     14  CA  GLU D 570     -18.033  -6.348 -13.375  1.00 32.92     0.160 C 
ENDROOT
BRANCH  14  15
ATOM     15  CB  GLU D 570     -19.500  -6.345 -13.794  1.00 32.92     0.043 C 
BRANCH  15  16
ATOM     16  CG  GLU D 570     -19.865  -5.563 -15.003  1.00 32.92     0.100 C 
BRANCH  16  17
ATOM     17  CD  GLU D 570     -21.150  -6.032 -15.643  1.00 32.92     0.185 C 
ATOM     18  OE1 GLU D 570     -21.669  -5.339 -16.539  1.00 32.92    -0.647 OA
ATOM     19  OE2 GLU D 570     -21.653  -7.097 -15.233  1.00 32.92    -0.647 OA
ENDBRANCH  16  17
ENDBRANCH  15  16
ENDBRANCH  14  15
END_RES GLU D 570
ENDMDL
MODEL 6
REMARK VINA RESULT:      -8.1      2.435      7.808
REMARK  3 active torsions:
REMARK  status: ('A' for Active; 'I' for Inactive)
REMARK    1  A    between atoms: C_2  and  C_3 
REMARK       I    between atoms: C_2  and  N_16 
REMARK    2  A    between atoms: C_4  and  C_5 
REMARK    3  A    between atoms: C_6  and  C_7 
ROOT
HETATM    1  C   UNL     1     -23.716  -5.243 -14.205  1.00  0.00     0.001 C 
HETATM    2  C   UNL     1     -24.140  -6.352 -14.834  1.00  0.00     0.011 C 
ENDROOT
BRANCH   1   3
HETATM    3  C   UNL     1     -22.764  -5.268 -13.116  1.00  0.00     0.005 C 
HETATM    4  C   UNL     1     -22.383  -4.162 -12.462  1.00  0.00     0.074 C 
BRANCH   4   5
HETATM    5  C   UNL     1     -21.329  -4.253 -11.420  1.00  0.00     0.243 C 
HETATM    6  O   UNL     1     -20.165  -3.992 -11.713  1.00  0.00    -0.268 OA
HETATM    7  N   UNL     1     -21.745  -4.597 -10.146  1.00  0.00    -0.349 N 
HETATM    8  C   UNL     1     -23.080  -5.062  -9.768  1.00  0.00     0.126 C 
HETATM    9  C   UNL     1     -20.790  -4.535  -9.043  1.00  0.00     0.126 C 
HETATM   10  C   UNL     1     -23.671  -4.145  -8.699  1.00  0.00     0.020 C 
HETATM   11  C   UNL     1     -22.723  -3.998  -7.506  1.00  0.00     0.003 C 
HETATM   12  C   UNL     1     -21.314  -3.602  -7.952  1.00  0.00     0.020 C 
ENDBRANCH   4   5
ENDBRANCH   1   3
BRANCH   2  13
HETATM   13  C   UNL     1     -25.052  -6.360 -15.994  1.00  0.00    -0.033 A 
HETATM   14  C   UNL     1     -26.378  -5.875 -15.908  1.00  0.00     0.014 A 
HETATM   15  C   UNL     1     -27.216  -5.844 -17.030  1.00  0.00     0.040 A 
HETATM   16  C   UNL     1     -26.699  -6.288 -18.225  1.00  0.00     0.105 A 
HETATM   17  C   UNL     1     -25.409  -6.745 -18.328  1.00  0.00     0.105 A 
HETATM   18  O   UNL     1     -27.361  -6.321 -19.413  1.00  0.00    -0.323 OA
HETATM   19  C   UNL     1     -24.562  -6.789 -17.237  1.00  0.00     0.051 A 
HETATM   20  O   UNL     1     -25.094  -7.125 -19.596  1.00  0.00    -0.323 OA
HETATM   21  C   UNL     1     -26.344  -6.877 -20.272  1.00  0.00     0.352 A 
ENDBRANCH   2  13
TORSDOF 3
BEGIN_RES ARG D 557
REMARK  4 active torsions:
REMARK  status: ('A' for Active; 'I' for Inactive)
REMARK    1  A    between atoms: CA   and  CB  
REMARK    2  A    between atoms: CB   and  CG  
REMARK    3  A    between atoms: CG   and  CD  
REMARK    4  A    between atoms: CD   and  NE  
REMARK       I    between atoms: NE   and  CZ  
REMARK       I    between atoms: CZ   and  NH1 
REMARK       I    between atoms: CZ   and  NH2 
ROOT
ATOM      1  CA  ARG D 557     -26.217   2.705 -17.014  1.00 35.49     0.159 C 
ENDROOT
BRANCH   1   2
ATOM      2  CB  ARG D 557     -26.789   1.319 -17.183  1.00 35.49     0.034 C 
BRANCH   2   3
ATOM      3  CG  ARG D 557     -28.232   1.226 -17.436  1.00 35.49     0.027 C 
BRANCH   3   4
ATOM      4  CD  ARG D 557     -28.912   0.309 -16.493  1.00 35.49     0.116 C 
BRANCH   4   5
ATOM      5  NE  ARG D 557     -29.332  -0.911 -17.130  1.00 35.49    -0.212 N 
ATOM      6  CZ  ARG D 557     -28.714  -2.068 -17.055  1.00 35.49     0.666 C 
ATOM      7  NH1 ARG D 557     -27.596  -2.232 -16.373  1.00 35.49    -0.235 N 
ATOM      8  NH2 ARG D 557     -29.250  -3.076 -17.680  1.00 35.49    -0.235 N 
ATOM      9  HH  ARG D 557     -27.227  -1.583 -15.952  1.00 35.49     0.174 HD
ATOM     10  HH  ARG D 557     -27.239  -3.011 -16.357  1.00 35.49     0.174 HD
ATOM     11  HH  ARG D 557     -29.976  -2.943 -18.106  1.00 35.49     0.174 HD
ATOM     12  HH  ARG D 557     -28.882  -3.840 -17.652  1.00 35.49     0.174 HD
ATOM     13  HE  ARG D 557     -30.005  -0.879 -17.649  1.00 35.49     0.178 HD
ENDBRANCH   4   5
ENDBRANCH   3   4
ENDBRANCH   2   3
ENDBRANCH   1   2
END_RES ARG D 557
BEGIN_RES GLU D 570
REMARK  3 active torsions:
REMARK  status: ('A' for Active; 'I' for Inactive)
REMARK    5  A    between atoms: CA   and  CB  
REMARK    6  A    between atoms: CB   and  CG  
REMARK    7  A    between atoms: CG   and  CD  
ROOT
ATOM     14  CA  GLU D 570     -18.033  -6.348 -13.375  1.00 32.92     0.160 C 
ENDROOT
BRANCH  14  15
ATOM     15  CB  GLU D 570     -19.500  -6.345 -13.794  1.00 32.92     0.043 C 
BRANCH  15  16
ATOM     16  CG  GLU D 570     -19.800  -6.153 -15.237  1.00 32.92     0.100 C 
BRANCH  16  17
ATOM     17  CD  GLU D 570     -20.631  -7.272 -15.820  1.00 32.92     0.185 C 
ATOM     18  OE1 GLU D 570     -20.642  -8.379 -15.249  1.00 32.92    -0.647 OA
ATOM     19  OE2 GLU D 570     -21.264  -7.043 -16.869  1.00 32.92    -0.647 OA
ENDBRANCH  16  17
ENDBRANCH  15  16
ENDBRANCH  14  15
END_RES GLU D 570
ENDMDL
MODEL 7
REMARK VINA RESULT:      -8.0     13.640     18.579
REMARK  3 active torsions:
REMARK  status: ('A' for Active; 'I' for Inactive)
REMARK    1  A    between atoms: C_2  and  C_3 
REMARK       I    between atoms: C_2  and  N_16 
REMARK    2  A    between atoms: C_4  and  C_5 
REMARK    3  A    between atoms: C_6  and  C_7 
ROOT
HETATM    1  C   UNL     1     -21.555   8.725   1.900  1.00  0.00     0.001 C 
HETATM    2  C   UNL     1     -22.855   9.056   1.988  1.00  0.00     0.011 C 
ENDROOT
BRANCH   1   3
HETATM    3  C   UNL     1     -20.589   9.039   2.931  1.00  0.00     0.005 C 
HETATM    4  C   UNL     1     -19.282   8.772   2.803  1.00  0.00     0.074 C 
BRANCH   4   5
HETATM    5  C   UNL     1     -18.367   9.034   3.943  1.00  0.00     0.243 C 
HETATM    6  O   UNL     1     -18.802   8.991   5.090  1.00  0.00    -0.268 OA
HETATM    7  N   UNL     1     -17.041   9.275   3.629  1.00  0.00    -0.349 N 
HETATM    8  C   UNL     1     -16.493   9.486   2.289  1.00  0.00     0.126 C 
HETATM    9  C   UNL     1     -16.058   9.367   4.706  1.00  0.00     0.126 C 
HETATM   10  C   UNL     1     -15.400   8.459   2.002  1.00  0.00     0.020 C 
HETATM   11  C   UNL     1     -14.331   8.465   3.097  1.00  0.00     0.003 C 
HETATM   12  C   UNL     1     -14.951   8.336   4.490  1.00  0.00     0.020 C 
ENDBRANCH   4   5
ENDBRANCH   1   3
BRANCH   2  13
HETATM   13  C   UNL     1     -23.881   8.689   0.993  1.00  0.00    -0.033 A 
HETATM   14  C   UNL     1     -25.257   8.930   1.213  1.00  0.00     0.014 A 
HETATM   15  C   UNL     1     -26.215   8.622   0.239  1.00  0.00     0.040 A 
HETATM   16  C   UNL     1     -25.770   8.089  -0.949  1.00  0.00     0.105 A 
HETATM   17  C   UNL     1     -24.436   7.866  -1.183  1.00  0.00     0.105 A 
HETATM   18  O   UNL     1     -26.552   7.740  -2.006  1.00  0.00    -0.323 OA
HETATM   19  C   UNL     1     -23.470   8.158  -0.239  1.00  0.00     0.051 A 
HETATM   20  O   UNL     1     -24.208   7.345  -2.420  1.00  0.00    -0.323 OA
HETATM   21  C   UNL     1     -25.556   7.245  -2.925  1.00  0.00     0.352 A 
ENDBRANCH   2  13
TORSDOF 3
BEGIN_RES ARG D 557
REMARK  4 active torsions:
REMARK  status: ('A' for Active; 'I' for Inactive)
REMARK    1  A    between atoms: CA   and  CB  
REMARK    2  A    between atoms: CB   and  CG  
REMARK    3  A    between atoms: CG   and  CD  
REMARK    4  A    between atoms: CD   and  NE  
REMARK       I    between atoms: NE   and  CZ  
REMARK       I    between atoms: CZ   and  NH1 
REMARK       I    between atoms: CZ   and  NH2 
ROOT
ATOM      1  CA  ARG D 557     -26.217   2.705 -17.014  1.00 35.49     0.159 C 
ENDROOT
BRANCH   1   2
ATOM      2  CB  ARG D 557     -26.789   1.319 -17.183  1.00 35.49     0.034 C 
BRANCH   2   3
ATOM      3  CG  ARG D 557     -25.837   0.202 -17.146  1.00 35.49     0.027 C 
BRANCH   3   4
ATOM      4  CD  ARG D 557     -24.761   0.411 -16.150  1.00 35.49     0.116 C 
BRANCH   4   5
ATOM      5  NE  ARG D 557     -24.908  -0.446 -15.004  1.00 35.49    -0.212 N 
ATOM      6  CZ  ARG D 557     -24.089  -1.416 -14.660  1.00 35.49     0.666 C 
ATOM      7  NH1 ARG D 557     -23.016  -1.721 -15.366  1.00 35.49    -0.235 N 
ATOM      8  NH2 ARG D 557     -24.367  -2.079 -13.576  1.00 35.49    -0.235 N 
ATOM      9  HH  ARG D 557     -22.813  -1.297 -16.082  1.00 35.49     0.174 HD
ATOM     10  HH  ARG D 557     -22.517  -2.362 -15.091  1.00 35.49     0.174 HD
ATOM     11  HH  ARG D 557     -25.062  -1.855 -13.136  1.00 35.49     0.174 HD
ATOM     12  HH  ARG D 557     -23.860  -2.709 -13.319  1.00 35.49     0.174 HD
ATOM     13  HE  ARG D 557     -25.611  -0.367 -14.533  1.00 35.49     0.178 HD
ENDBRANCH   4   5
ENDBRANCH   3   4
ENDBRANCH   2   3
ENDBRANCH   1   2
END_RES ARG D 557
BEGIN_RES GLU D 570
REMARK  3 active torsions:
REMARK  status: ('A' for Active; 'I' for Inactive)
REMARK    5  A    between atoms: CA   and  CB  
REMARK    6  A    between atoms: CB   and  CG  
REMARK    7  A    between atoms: CG   and  CD  
ROOT
ATOM     14  CA  GLU D 570     -18.033  -6.348 -13.375  1.00 32.92     0.160 C 
ENDROOT
BRANCH  14  15
ATOM     15  CB  GLU D 570     -19.500  -6.345 -13.794  1.00 32.92     0.043 C 
BRANCH  15  16
ATOM     16  CG  GLU D 570     -20.442  -5.531 -12.983  1.00 32.92     0.100 C 
BRANCH  16  17
ATOM     17  CD  GLU D 570     -21.714  -5.189 -13.724  1.00 32.92     0.185 C 
ATOM     18  OE1 GLU D 570     -22.129  -5.966 -14.605  1.00 32.92    -0.647 OA
ATOM     19  OE2 GLU D 570     -22.292  -4.123 -13.431  1.00 32.92    -0.647 OA
ENDBRANCH  16  17
ENDBRANCH  15  16
ENDBRANCH  14  15
END_RES GLU D 570
ENDMDL
MODEL 8
REMARK VINA RESULT:      -7.7     13.744     18.711
REMARK  3 active torsions:
REMARK  status: ('A' for Active; 'I' for Inactive)
REMARK    1  A    between atoms: C_2  and  C_3 
REMARK       I    between atoms: C_2  and  N_16 
REMARK    2  A    between atoms: C_4  and  C_5 
REMARK    3  A    between atoms: C_6  and  C_7 
ROOT
HETATM    1  C   UNL     1     -21.558   8.739   1.922  1.00  0.00     0.001 C 
HETATM    2  C   UNL     1     -22.852   9.089   2.015  1.00  0.00     0.011 C 
ENDROOT
BRANCH   1   3
HETATM    3  C   UNL     1     -20.580   9.056   2.939  1.00  0.00     0.005 C 
HETATM    4  C   UNL     1     -19.275   8.783   2.798  1.00  0.00     0.074 C 
BRANCH   4   5
HETATM    5  C   UNL     1     -18.345   9.048   3.925  1.00  0.00     0.243 C 
HETATM    6  O   UNL     1     -18.769   9.024   5.077  1.00  0.00    -0.268 OA
HETATM    7  N   UNL     1     -17.020   9.271   3.596  1.00  0.00    -0.349 N 
HETATM    8  C   UNL     1     -16.484   9.459   2.247  1.00  0.00     0.126 C 
HETATM    9  C   UNL     1     -16.026   9.364   4.661  1.00  0.00     0.126 C 
HETATM   10  C   UNL     1     -15.405   8.416   1.962  1.00  0.00     0.020 C 
HETATM   11  C   UNL     1     -14.324   8.423   3.047  1.00  0.00     0.003 C 
HETATM   12  C   UNL     1     -14.933   8.318   4.447  1.00  0.00     0.020 C 
ENDBRANCH   4   5
ENDBRANCH   1   3
BRANCH   2  13
HETATM   13  C   UNL     1     -23.892   8.722   1.035  1.00  0.00    -0.033 A 
HETATM   14  C   UNL     1     -25.267   8.942   1.284  1.00  0.00     0.014 A 
HETATM   15  C   UNL     1     -26.239   8.634   0.323  1.00  0.00     0.040 A 
HETATM   16  C   UNL     1     -25.809   8.121  -0.879  1.00  0.00     0.105 A 
HETATM   17  C   UNL     1     -24.477   7.918  -1.141  1.00  0.00     0.105 A 
HETATM   18  O   UNL     1     -26.606   7.775  -1.926  1.00  0.00    -0.323 OA
HETATM   19  C   UNL     1     -23.498   8.211  -0.212  1.00  0.00     0.051 A 
HETATM   20  O   UNL     1     -24.266   7.416  -2.388  1.00  0.00    -0.323 OA
HETATM   21  C   UNL     1     -25.622   7.305  -2.870  1.00  0.00     0.352 A 
ENDBRANCH   2  13
TORSDOF 3
BEGIN_RES ARG D 557
REMARK  4 active torsions:
REMARK  status: ('A' for Active; 'I' for Inactive)
REMARK    1  A    between atoms: CA   and  CB  
REMARK    2  A    between atoms: CB   and  CG  
REMARK    3  A    between atoms: CG   and  CD  
REMARK    4  A    between atoms: CD   and  NE  
REMARK       I    between atoms: NE   and  CZ  
REMARK       I    between atoms: CZ   and  NH1 
REMARK       I    between atoms: CZ   and  NH2 
ROOT
ATOM      1  CA  ARG D 557     -26.217   2.705 -17.014  1.00 35.49     0.159 C 
ENDROOT
BRANCH   1   2
ATOM      2  CB  ARG D 557     -26.789   1.319 -17.183  1.00 35.49     0.034 C 
BRANCH   2   3
ATOM      3  CG  ARG D 557     -28.237   1.224 -17.406  1.00 35.49     0.027 C 
BRANCH   3   4
ATOM      4  CD  ARG D 557     -28.892   0.285 -16.468  1.00 35.49     0.116 C 
BRANCH   4   5
ATOM      5  NE  ARG D 557     -29.302  -0.932 -17.117  1.00 35.49    -0.212 N 
ATOM      6  CZ  ARG D 557     -28.696  -2.094 -17.023  1.00 35.49     0.666 C 
ATOM      7  NH1 ARG D 557     -27.599  -2.266 -16.308  1.00 35.49    -0.235 N 
ATOM      8  NH2 ARG D 557     -29.220  -3.099 -17.664  1.00 35.49    -0.235 N 
ATOM      9  HH  ARG D 557     -27.238  -1.620 -15.876  1.00 35.49     0.174 HD
ATOM     10  HH  ARG D 557     -27.249  -3.048 -16.281  1.00 35.49     0.174 HD
ATOM     11  HH  ARG D 557     -29.932  -2.960 -18.111  1.00 35.49     0.174 HD
ATOM     12  HH  ARG D 557     -28.859  -3.865 -17.624  1.00 35.49     0.174 HD
ATOM     13  HE  ARG D 557     -29.958  -0.896 -17.656  1.00 35.49     0.178 HD
ENDBRANCH   4   5
ENDBRANCH   3   4
ENDBRANCH   2   3
ENDBRANCH   1   2
END_RES ARG D 557
BEGIN_RES GLU D 570
REMARK  3 active torsions:
REMARK  status: ('A' for Active; 'I' for Inactive)
REMARK    5  A    between atoms: CA   and  CB  
REMARK    6  A    between atoms: CB   and  CG  
REMARK    7  A    between atoms: CG   and  CD  
ROOT
ATOM     14  CA  GLU D 570     -18.033  -6.348 -13.375  1.00 32.92     0.160 C 
ENDROOT
BRANCH  14  15
ATOM     15  CB  GLU D 570     -19.500  -6.345 -13.794  1.00 32.92     0.043 C 
BRANCH  15  16
ATOM     16  CG  GLU D 570     -20.449  -5.566 -12.958  1.00 32.92     0.100 C 
BRANCH  16  17
ATOM     17  CD  GLU D 570     -21.701  -5.166 -13.703  1.00 32.92     0.185 C 
ATOM     18  OE1 GLU D 570     -22.724  -4.872 -13.055  1.00 32.92    -0.647 OA
ATOM     19  OE2 GLU D 570     -21.663  -5.164 -14.950  1.00 32.92    -0.647 OA
ENDBRANCH  16  17
ENDBRANCH  15  16
ENDBRANCH  14  15
END_RES GLU D 570
ENDMDL
MODEL 9
REMARK VINA RESULT:      -7.7     14.134     18.978
REMARK  3 active torsions:
REMARK  status: ('A' for Active; 'I' for Inactive)
REMARK    1  A    between atoms: C_2  and  C_3 
REMARK       I    between atoms: C_2  and  N_16 
REMARK    2  A    between atoms: C_4  and  C_5 
REMARK    3  A    between atoms: C_6  and  C_7 
ROOT
HETATM    1  C   UNL     1     -21.685   9.208   3.307  1.00  0.00     0.001 C 
HETATM    2  C   UNL     1     -21.825   9.082   1.977  1.00  0.00     0.011 C 
ENDROOT
BRANCH   1   3
HETATM    3  C   UNL     1     -20.421   9.508   3.943  1.00  0.00     0.005 C 
HETATM    4  C   UNL     1     -19.284   8.871   3.630  1.00  0.00     0.074 C 
BRANCH   4   5
HETATM    5  C   UNL     1     -18.045   9.164   4.395  1.00  0.00     0.243 C 
HETATM    6  O   UNL     1     -18.092   9.231   5.619  1.00  0.00    -0.268 OA
HETATM    7  N   UNL     1     -16.882   9.307   3.658  1.00  0.00    -0.349 N 
HETATM    8  C   UNL     1     -16.785   9.386   2.200  1.00  0.00     0.126 C 
HETATM    9  C   UNL     1     -15.605   9.423   4.357  1.00  0.00     0.126 C 
HETATM   10  C   UNL     1     -15.872   8.281   1.675  1.00  0.00     0.020 C 
HETATM   11  C   UNL     1     -14.509   8.308   2.372  1.00  0.00     0.003 C 
HETATM   12  C   UNL     1     -14.656   8.318   3.895  1.00  0.00     0.020 C 
ENDBRANCH   4   5
ENDBRANCH   1   3
BRANCH   2  13
HETATM   13  C   UNL     1     -23.109   8.850   1.288  1.00  0.00    -0.033 A 
HETATM   14  C   UNL     1     -23.185   8.149   0.061  1.00  0.00     0.014 A 
HETATM   15  C   UNL     1     -24.416   7.893  -0.555  1.00  0.00     0.040 A 
HETATM   16  C   UNL     1     -25.553   8.334   0.080  1.00  0.00     0.105 A 
HETATM   17  C   UNL     1     -25.496   9.000   1.279  1.00  0.00     0.105 A 
HETATM   18  O   UNL     1     -26.828   8.167  -0.365  1.00  0.00    -0.323 OA
HETATM   19  C   UNL     1     -24.296   9.268   1.909  1.00  0.00     0.051 A 
HETATM   20  O   UNL     1     -26.730   9.339   1.742  1.00  0.00    -0.323 OA
HETATM   21  C   UNL     1     -27.567   8.829   0.682  1.00  0.00     0.352 A 
ENDBRANCH   2  13
TORSDOF 3
BEGIN_RES ARG D 557
REMARK  4 active torsions:
REMARK  status: ('A' for Active; 'I' for Inactive)
REMARK    1  A    between atoms: CA   and  CB  
REMARK    2  A    between atoms: CB   and  CG  
REMARK    3  A    between atoms: CG   and  CD  
REMARK    4  A    between atoms: CD   and  NE  
REMARK       I    between atoms: NE   and  CZ  
REMARK       I    between atoms: CZ   and  NH1 
REMARK       I    between atoms: CZ   and  NH2 
ROOT
ATOM      1  CA  ARG D 557     -26.217   2.705 -17.014  1.00 35.49     0.159 C 
ENDROOT
BRANCH   1   2
ATOM      2  CB  ARG D 557     -26.789   1.319 -17.183  1.00 35.49     0.034 C 
BRANCH   2   3
ATOM      3  CG  ARG D 557     -25.836   0.203 -17.152  1.00 35.49     0.027 C 
BRANCH   3   4
ATOM      4  CD  ARG D 557     -24.773   0.396 -16.139  1.00 35.49     0.116 C 
BRANCH   4   5
ATOM      5  NE  ARG D 557     -24.946  -0.468 -15.001  1.00 35.49    -0.212 N 
ATOM      6  CZ  ARG D 557     -24.141  -1.446 -14.650  1.00 35.49     0.666 C 
ATOM      7  NH1 ARG D 557     -23.060  -1.757 -15.340  1.00 35.49    -0.235 N 
ATOM      8  NH2 ARG D 557     -24.442  -2.114 -13.574  1.00 35.49    -0.235 N 
ATOM      9  HH  ARG D 557     -22.842  -1.329 -16.050  1.00 35.49     0.174 HD
ATOM     10  HH  ARG D 557     -22.571  -2.403 -15.062  1.00 35.49     0.174 HD
ATOM     11  HH  ARG D 557     -25.142  -1.886 -13.144  1.00 35.49     0.174 HD
ATOM     12  HH  ARG D 557     -23.944  -2.749 -13.314  1.00 35.49     0.174 HD
ATOM     13  HE  ARG D 557     -25.656  -0.385 -14.541  1.00 35.49     0.178 HD
ENDBRANCH   4   5
ENDBRANCH   3   4
ENDBRANCH   2   3
ENDBRANCH   1   2
END_RES ARG D 557
BEGIN_RES GLU D 570
REMARK  3 active torsions:
REMARK  status: ('A' for Active; 'I' for Inactive)
REMARK    5  A    between atoms: CA   and  CB  
REMARK    6  A    between atoms: CB   and  CG  
REMARK    7  A    between atoms: CG   and  CD  
ROOT
ATOM     14  CA  GLU D 570     -18.033  -6.348 -13.375  1.00 32.92     0.160 C 
ENDROOT
BRANCH  14  15
ATOM     15  CB  GLU D 570     -19.500  -6.345 -13.794  1.00 32.92     0.043 C 
BRANCH  15  16
ATOM     16  CG  GLU D 570     -20.438  -5.513 -12.997  1.00 32.92     0.100 C 
BRANCH  16  17
ATOM     17  CD  GLU D 570     -21.576  -4.955 -13.820  1.00 32.92     0.185 C 
ATOM     18  OE1 GLU D 570     -22.433  -4.243 -13.263  1.00 32.92    -0.647 OA
ATOM     19  OE2 GLU D 570     -21.620  -5.248 -15.031  1.00 32.92    -0.647 OA
ENDBRANCH  16  17
ENDBRANCH  15  16
ENDBRANCH  14  15
END_RES GLU D 570
ENDMDL
