MODEL 1
REMARK VINA RESULT:     -11.5      0.000      0.000
REMARK  3 active torsions:
REMARK  status: ('A' for Active; 'I' for Inactive)
REMARK    1  A    between atoms: C_2  and  C_5 
REMARK    2  A    between atoms: C_13  and  N_14 
REMARK       I    between atoms: N_14  and  C_15 
REMARK       I    between atoms: C_15  and  N_17 
REMARK    3  A    between atoms: N_17  and  C_18 
ROOT
HETATM    1  N   UNL     1     -21.335  -6.199  -5.859  1.00  0.00    -0.334 N 
HETATM    2  C   UNL     1     -20.868  -5.708  -7.058  1.00  0.00     0.321 C 
HETATM    3  O   UNL     1     -19.663  -5.680  -7.290  1.00  0.00    -0.247 OA
HETATM    4  N   UNL     1     -21.867  -5.239  -7.886  1.00  0.00    -0.308 N 
HETATM    5  H   UNL     1     -22.272  -6.567  -5.814  1.00  0.00     0.165 HD
HETATM    6  H   UNL     1     -22.751  -5.068  -7.437  1.00  0.00     0.170 HD
ENDROOT
BRANCH   1   7
HETATM    7  C   UNL     1     -20.354  -6.722  -4.924  1.00  0.00     0.120 C 
HETATM    8  C   UNL     1     -20.955  -7.145  -3.620  1.00  0.00    -0.029 A 
HETATM    9  C   UNL     1     -21.369  -6.334  -2.584  1.00  0.00     0.010 A 
HETATM   10  C   UNL     1     -21.006  -8.534  -3.508  1.00  0.00    -0.049 A 
HETATM   11  C   UNL     1     -21.852  -6.936  -1.419  1.00  0.00     0.008 A 
HETATM   12  C   UNL     1     -21.936  -8.342  -1.280  1.00  0.00    -0.050 A 
HETATM   13  C   UNL     1     -21.494  -9.140  -2.358  1.00  0.00     0.015 A 
HETATM   14  C   UNL     1     -20.502  -9.185  -4.757  1.00  0.00     0.041 C 
HETATM   15  C   UNL     1     -19.701  -8.039  -5.394  1.00  0.00     0.035 C 
BRANCH  12  16
HETATM   16  C   UNL     1     -22.518  -9.004  -0.016  1.00  0.00    -0.024 C 
HETATM   17  C   UNL     1     -23.452 -10.196  -0.320  1.00  0.00     0.019 C 
HETATM   18  C   UNL     1     -23.334  -7.982   0.805  1.00  0.00     0.019 C 
HETATM   19  C   UNL     1     -21.361  -9.537   0.855  1.00  0.00     0.019 C 
ENDBRANCH  12  16
ENDBRANCH   1   7
BRANCH   4  20
HETATM   20  C   UNL     1     -21.649  -4.653  -9.173  1.00  0.00     0.047 A 
HETATM   21  C   UNL     1     -20.348  -4.553  -9.695  1.00  0.00     0.030 A 
HETATM   22  C   UNL     1     -20.084  -3.893 -10.891  1.00  0.00     0.003 A 
HETATM   23  C   UNL     1     -21.126  -3.339 -11.615  1.00  0.00     0.014 A 
HETATM   24  C   UNL     1     -22.446  -3.472 -11.162  1.00  0.00    -0.008 A 
HETATM   25  C   UNL     1     -23.496  -2.936 -11.909  1.00  0.00     0.100 A 
HETATM   26  C   UNL     1     -22.740  -4.141  -9.945  1.00  0.00     0.004 A 
HETATM   27  N   UNL     1     -24.800  -3.020 -11.570  1.00  0.00    -0.374 N 
HETATM   28  C   UNL     1     -25.074  -3.667 -10.427  1.00  0.00     0.088 A 
ATOM     29  HN  UNL     1     -25.535  -2.614 -12.150  1.00  0.00     0.164 HD
HETATM   30  C   UNL     1     -24.108  -4.229  -9.598  1.00  0.00     0.031 A 
ENDBRANCH   4  20
TORSDOF 3
BEGIN_RES ARG D 557
REMARK  4 active torsions:
REMARK  status: ('A' for Active; 'I' for Inactive)
REMARK    1  A    between atoms: CA   and  CB  
REMARK    2  A    between atoms: CB   and  CG  
REMARK    3  A    between atoms: CG   and  CD  
REMARK    4  A    between atoms: CD   and  NE  
REMARK       I    between atoms: NE   and  CZ  
REMARK       I    between atoms: CZ   and  NH1 
REMARK       I    between atoms: CZ   and  NH2 
ROOT
ATOM      1  CA  ARG D 557     -26.217   2.705 -17.014  1.00 35.49     0.159 C 
ENDROOT
BRANCH   1   2
ATOM      2  CB  ARG D 557     -26.789   1.319 -17.183  1.00 35.49     0.034 C 
BRANCH   2   3
ATOM      3  CG  ARG D 557     -28.232   1.168 -16.960  1.00 35.49     0.027 C 
BRANCH   3   4
ATOM      4  CD  ARG D 557     -28.621  -0.240 -16.717  1.00 35.49     0.116 C 
BRANCH   4   5
ATOM      5  NE  ARG D 557     -27.592  -0.976 -16.031  1.00 35.49    -0.212 N 
ATOM      6  CZ  ARG D 557     -27.415  -2.277 -16.082  1.00 35.49     0.666 C 
ATOM      7  NH1 ARG D 557     -28.202  -3.073 -16.782  1.00 35.49    -0.235 N 
ATOM      8  NH2 ARG D 557     -26.416  -2.774 -15.412  1.00 35.49    -0.235 N 
ATOM      9  HH  ARG D 557     -28.865  -2.768 -17.232  1.00 35.49     0.174 HD
ATOM     10  HH  ARG D 557     -28.037  -3.914 -16.780  1.00 35.49     0.174 HD
ATOM     11  HH  ARG D 557     -25.920  -2.235 -14.975  1.00 35.49     0.174 HD
ATOM     12  HH  ARG D 557     -26.268  -3.609 -15.424  1.00 35.49     0.174 HD
ATOM     13  HE  ARG D 557     -27.084  -0.551 -15.498  1.00 35.49     0.178 HD
ENDBRANCH   4   5
ENDBRANCH   3   4
ENDBRANCH   2   3
ENDBRANCH   1   2
END_RES ARG D 557
BEGIN_RES GLU D 570
REMARK  3 active torsions:
REMARK  status: ('A' for Active; 'I' for Inactive)
REMARK    5  A    between atoms: CA   and  CB  
REMARK    6  A    between atoms: CB   and  CG  
REMARK    7  A    between atoms: CG   and  CD  
ROOT
ATOM     14  CA  GLU D 570     -18.033  -6.348 -13.375  1.00 32.92     0.160 C 
ENDROOT
BRANCH  14  15
ATOM     15  CB  GLU D 570     -19.500  -6.345 -13.794  1.00 32.92     0.043 C 
BRANCH  15  16
ATOM     16  CG  GLU D 570     -19.798  -6.215 -15.244  1.00 32.92     0.100 C 
BRANCH  16  17
ATOM     17  CD  GLU D 570     -21.059  -5.429 -15.518  1.00 32.92     0.185 C 
ATOM     18  OE1 GLU D 570     -21.792  -5.109 -14.563  1.00 32.92    -0.647 OA
ATOM     19  OE2 GLU D 570     -21.325  -5.146 -16.703  1.00 32.92    -0.647 OA
ENDBRANCH  16  17
ENDBRANCH  15  16
ENDBRANCH  14  15
END_RES GLU D 570
ENDMDL
MODEL 2
REMARK VINA RESULT:     -11.3      1.777      8.198
REMARK  3 active torsions:
REMARK  status: ('A' for Active; 'I' for Inactive)
REMARK    1  A    between atoms: C_2  and  C_5 
REMARK    2  A    between atoms: C_13  and  N_14 
REMARK       I    between atoms: N_14  and  C_15 
REMARK       I    between atoms: C_15  and  N_17 
REMARK    3  A    between atoms: N_17  and  C_18 
ROOT
HETATM    1  N   UNL     1     -20.932  -5.933  -7.775  1.00  0.00    -0.334 N 
HETATM    2  C   UNL     1     -20.440  -6.163  -6.509  1.00  0.00     0.321 C 
HETATM    3  O   UNL     1     -19.983  -5.239  -5.844  1.00  0.00    -0.247 OA
HETATM    4  N   UNL     1     -20.481  -7.491  -6.135  1.00  0.00    -0.308 N 
HETATM    5  H   UNL     1     -21.621  -6.565  -8.152  1.00  0.00     0.165 HD
HETATM    6  H   UNL     1     -20.610  -8.144  -6.889  1.00  0.00     0.170 HD
ENDROOT
BRANCH   1   7
HETATM    7  C   UNL     1     -20.934  -4.561  -8.251  1.00  0.00     0.120 C 
HETATM    8  C   UNL     1     -21.453  -4.428  -9.648  1.00  0.00    -0.029 A 
HETATM    9  C   UNL     1     -20.794  -4.734 -10.822  1.00  0.00     0.010 A 
HETATM   10  C   UNL     1     -22.730  -3.867  -9.669  1.00  0.00    -0.049 A 
HETATM   11  C   UNL     1     -21.440  -4.478 -12.035  1.00  0.00     0.008 A 
HETATM   12  C   UNL     1     -22.744  -3.929 -12.089  1.00  0.00    -0.050 A 
HETATM   13  C   UNL     1     -23.382  -3.620 -10.868  1.00  0.00     0.015 A 
HETATM   14  C   UNL     1     -23.224  -3.627  -8.277  1.00  0.00     0.041 C 
HETATM   15  C   UNL     1     -21.910  -3.646  -7.481  1.00  0.00     0.035 C 
BRANCH  12  16
HETATM   16  C   UNL     1     -23.475  -3.697 -13.425  1.00  0.00    -0.024 C 
HETATM   17  C   UNL     1     -22.617  -2.960 -14.477  1.00  0.00     0.019 C 
HETATM   18  C   UNL     1     -24.751  -2.855 -13.207  1.00  0.00     0.019 C 
HETATM   19  C   UNL     1     -23.873  -5.061 -14.029  1.00  0.00     0.019 C 
ENDBRANCH  12  16
ENDBRANCH   1   7
BRANCH   4  20
HETATM   20  C   UNL     1     -20.006  -8.000  -4.886  1.00  0.00     0.047 A 
HETATM   21  C   UNL     1     -18.895  -8.859  -4.847  1.00  0.00     0.030 A 
HETATM   22  C   UNL     1     -18.471  -9.461  -3.667  1.00  0.00     0.003 A 
HETATM   23  C   UNL     1     -19.134  -9.192  -2.481  1.00  0.00     0.014 A 
HETATM   24  C   UNL     1     -20.208  -8.292  -2.465  1.00  0.00    -0.008 A 
HETATM   25  C   UNL     1     -20.856  -8.002  -1.263  1.00  0.00     0.100 A 
HETATM   26  C   UNL     1     -20.659  -7.665  -3.657  1.00  0.00     0.004 A 
HETATM   27  N   UNL     1     -21.889  -7.142  -1.135  1.00  0.00    -0.374 N 
HETATM   28  C   UNL     1     -22.300  -6.541  -2.263  1.00  0.00     0.088 A 
ATOM     29  HN  UNL     1     -22.330  -6.960  -0.235  1.00  0.00     0.164 HD
HETATM   30  C   UNL     1     -21.738  -6.762  -3.516  1.00  0.00     0.031 A 
ENDBRANCH   4  20
TORSDOF 3
BEGIN_RES ARG D 557
REMARK  4 active torsions:
REMARK  status: ('A' for Active; 'I' for Inactive)
REMARK    1  A    between atoms: CA   and  CB  
REMARK    2  A    between atoms: CB   and  CG  
REMARK    3  A    between atoms: CG   and  CD  
REMARK    4  A    between atoms: CD   and  NE  
REMARK       I    between atoms: NE   and  CZ  
REMARK       I    between atoms: CZ   and  NH1 
REMARK       I    between atoms: CZ   and  NH2 
ROOT
ATOM      1  CA  ARG D 557     -26.217   2.705 -17.014  1.00 35.49     0.159 C 
ENDROOT
BRANCH   1   2
ATOM      2  CB  ARG D 557     -26.789   1.319 -17.183  1.00 35.49     0.034 C 
BRANCH   2   3
ATOM      3  CG  ARG D 557     -28.232   1.226 -17.437  1.00 35.49     0.027 C 
BRANCH   3   4
ATOM      4  CD  ARG D 557     -28.911   0.302 -16.500  1.00 35.49     0.116 C 
BRANCH   4   5
ATOM      5  NE  ARG D 557     -29.298  -0.929 -17.138  1.00 35.49    -0.212 N 
ATOM      6  CZ  ARG D 557     -28.674  -2.080 -17.029  1.00 35.49     0.666 C 
ATOM      7  NH1 ARG D 557     -27.578  -2.226 -16.307  1.00 35.49    -0.235 N 
ATOM      8  NH2 ARG D 557     -29.179  -3.099 -17.661  1.00 35.49    -0.235 N 
ATOM      9  HH  ARG D 557     -27.230  -1.570 -15.881  1.00 35.49     0.174 HD
ATOM     10  HH  ARG D 557     -27.215  -3.002 -16.270  1.00 35.49     0.174 HD
ATOM     11  HH  ARG D 557     -29.891  -2.977 -18.113  1.00 35.49     0.174 HD
ATOM     12  HH  ARG D 557     -28.806  -3.859 -17.611  1.00 35.49     0.174 HD
ATOM     13  HE  ARG D 557     -29.953  -0.909 -17.681  1.00 35.49     0.178 HD
ENDBRANCH   4   5
ENDBRANCH   3   4
ENDBRANCH   2   3
ENDBRANCH   1   2
END_RES ARG D 557
BEGIN_RES GLU D 570
REMARK  3 active torsions:
REMARK  status: ('A' for Active; 'I' for Inactive)
REMARK    5  A    between atoms: CA   and  CB  
REMARK    6  A    between atoms: CB   and  CG  
REMARK    7  A    between atoms: CG   and  CD  
ROOT
ATOM     14  CA  GLU D 570     -18.033  -6.348 -13.375  1.00 32.92     0.160 C 
ENDROOT
BRANCH  14  15
ATOM     15  CB  GLU D 570     -19.500  -6.345 -13.794  1.00 32.92     0.043 C 
BRANCH  15  16
ATOM     16  CG  GLU D 570     -19.796  -6.305 -15.249  1.00 32.92     0.100 C 
BRANCH  16  17
ATOM     17  CD  GLU D 570     -20.795  -7.354 -15.677  1.00 32.92     0.185 C 
ATOM     18  OE1 GLU D 570     -20.503  -8.558 -15.545  1.00 32.92    -0.647 OA
ATOM     19  OE2 GLU D 570     -21.876  -6.968 -16.165  1.00 32.92    -0.647 OA
ENDBRANCH  16  17
ENDBRANCH  15  16
ENDBRANCH  14  15
END_RES GLU D 570
ENDMDL
MODEL 3
REMARK VINA RESULT:     -10.6      1.983      8.390
REMARK  3 active torsions:
REMARK  status: ('A' for Active; 'I' for Inactive)
REMARK    1  A    between atoms: C_2  and  C_5 
REMARK    2  A    between atoms: C_13  and  N_14 
REMARK       I    between atoms: N_14  and  C_15 
REMARK       I    between atoms: C_15  and  N_17 
REMARK    3  A    between atoms: N_17  and  C_18 
ROOT
HETATM    1  N   UNL     1     -20.782  -5.977  -7.758  1.00  0.00    -0.334 N 
HETATM    2  C   UNL     1     -20.527  -6.235  -6.430  1.00  0.00     0.321 C 
HETATM    3  O   UNL     1     -20.454  -5.314  -5.622  1.00  0.00    -0.247 OA
HETATM    4  N   UNL     1     -20.329  -7.573  -6.158  1.00  0.00    -0.308 N 
HETATM    5  H   UNL     1     -21.205  -6.697  -8.322  1.00  0.00     0.165 HD
HETATM    6  H   UNL     1     -20.137  -8.150  -6.960  1.00  0.00     0.170 HD
ENDROOT
BRANCH   1   7
HETATM    7  C   UNL     1     -21.011  -4.593  -8.137  1.00  0.00     0.120 C 
HETATM    8  C   UNL     1     -21.505  -4.446  -9.543  1.00  0.00    -0.029 A 
HETATM    9  C   UNL     1     -20.770  -4.544 -10.706  1.00  0.00     0.010 A 
HETATM   10  C   UNL     1     -22.859  -4.114  -9.576  1.00  0.00    -0.049 A 
HETATM   11  C   UNL     1     -21.415  -4.312 -11.924  1.00  0.00     0.008 A 
HETATM   12  C   UNL     1     -22.793  -3.994 -11.994  1.00  0.00    -0.050 A 
HETATM   13  C   UNL     1     -23.510  -3.892 -10.781  1.00  0.00     0.015 A 
HETATM   14  C   UNL     1     -23.427  -4.069  -8.193  1.00  0.00     0.041 C 
HETATM   15  C   UNL     1     -22.153  -3.922  -7.346  1.00  0.00     0.035 C 
BRANCH  12  16
HETATM   16  C   UNL     1     -23.516  -3.791 -13.340  1.00  0.00    -0.024 C 
HETATM   17  C   UNL     1     -24.824  -2.978 -13.219  1.00  0.00     0.019 C 
HETATM   18  C   UNL     1     -23.880  -5.151 -13.971  1.00  0.00     0.019 C 
HETATM   19  C   UNL     1     -22.585  -3.024 -14.304  1.00  0.00     0.019 C 
ENDBRANCH  12  16
ENDBRANCH   1   7
BRANCH   4  20
HETATM   20  C   UNL     1     -20.020  -8.104  -4.866  1.00  0.00     0.047 A 
HETATM   21  C   UNL     1     -20.815  -7.775  -3.755  1.00  0.00     0.030 A 
HETATM   22  C   UNL     1     -20.485  -8.181  -2.466  1.00  0.00     0.003 A 
HETATM   23  C   UNL     1     -19.359  -8.960  -2.259  1.00  0.00     0.014 A 
HETATM   24  C   UNL     1     -18.573  -9.364  -3.347  1.00  0.00    -0.008 A 
HETATM   25  C   UNL     1     -17.455 -10.171  -3.137  1.00  0.00     0.100 A 
HETATM   26  C   UNL     1     -18.891  -8.962  -4.672  1.00  0.00     0.004 A 
HETATM   27  N   UNL     1     -16.641 -10.626  -4.113  1.00  0.00    -0.374 N 
HETATM   28  C   UNL     1     -16.955 -10.256  -5.364  1.00  0.00     0.088 A 
ATOM     29  HN  UNL     1     -15.835 -11.217  -3.912  1.00  0.00     0.164 HD
HETATM   30  C   UNL     1     -18.037  -9.445  -5.690  1.00  0.00     0.031 A 
ENDBRANCH   4  20
TORSDOF 3
BEGIN_RES ARG D 557
REMARK  4 active torsions:
REMARK  status: ('A' for Active; 'I' for Inactive)
REMARK    1  A    between atoms: CA   and  CB  
REMARK    2  A    between atoms: CB   and  CG  
REMARK    3  A    between atoms: CG   and  CD  
REMARK    4  A    between atoms: CD   and  NE  
REMARK       I    between atoms: NE   and  CZ  
REMARK       I    between atoms: CZ   and  NH1 
REMARK       I    between atoms: CZ   and  NH2 
ROOT
ATOM      1  CA  ARG D 557     -26.217   2.705 -17.014  1.00 35.49     0.159 C 
ENDROOT
BRANCH   1   2
ATOM      2  CB  ARG D 557     -26.789   1.319 -17.183  1.00 35.49     0.034 C 
BRANCH   2   3
ATOM      3  CG  ARG D 557     -28.225   1.228 -17.471  1.00 35.49     0.027 C 
BRANCH   3   4
ATOM      4  CD  ARG D 557     -28.905   0.212 -16.636  1.00 35.49     0.116 C 
BRANCH   4   5
ATOM      5  NE  ARG D 557     -28.005  -0.823 -16.200  1.00 35.49    -0.212 N 
ATOM      6  CZ  ARG D 557     -28.057  -2.087 -16.556  1.00 35.49     0.666 C 
ATOM      7  NH1 ARG D 557     -28.984  -2.557 -17.370  1.00 35.49    -0.235 N 
ATOM      8  NH2 ARG D 557     -27.144  -2.883 -16.079  1.00 35.49    -0.235 N 
ATOM      9  HH  ARG D 557     -29.593  -2.051 -17.697  1.00 35.49     0.174 HD
ATOM     10  HH  ARG D 557     -28.966  -3.390 -17.569  1.00 35.49     0.174 HD
ATOM     11  HH  ARG D 557     -26.553  -2.550 -15.562  1.00 35.49     0.174 HD
ATOM     12  HH  ARG D 557     -27.142  -3.704 -16.289  1.00 35.49     0.174 HD
ATOM     13  HE  ARG D 557     -27.419  -0.623 -15.616  1.00 35.49     0.178 HD
ENDBRANCH   4   5
ENDBRANCH   3   4
ENDBRANCH   2   3
ENDBRANCH   1   2
END_RES ARG D 557
BEGIN_RES GLU D 570
REMARK  3 active torsions:
REMARK  status: ('A' for Active; 'I' for Inactive)
REMARK    5  A    between atoms: CA   and  CB  
REMARK    6  A    between atoms: CB   and  CG  
REMARK    7  A    between atoms: CG   and  CD  
ROOT
ATOM     14  CA  GLU D 570     -18.033  -6.348 -13.375  1.00 32.92     0.160 C 
ENDROOT
BRANCH  14  15
ATOM     15  CB  GLU D 570     -19.500  -6.345 -13.794  1.00 32.92     0.043 C 
BRANCH  15  16
ATOM     16  CG  GLU D 570     -19.858  -5.597 -15.027  1.00 32.92     0.100 C 
BRANCH  16  17
ATOM     17  CD  GLU D 570     -20.917  -6.292 -15.851  1.00 32.92     0.185 C 
ATOM     18  OE1 GLU D 570     -21.569  -5.630 -16.681  1.00 32.92    -0.647 OA
ATOM     19  OE2 GLU D 570     -21.108  -7.508 -15.652  1.00 32.92    -0.647 OA
ENDBRANCH  16  17
ENDBRANCH  15  16
ENDBRANCH  14  15
END_RES GLU D 570
ENDMDL
MODEL 4
REMARK VINA RESULT:     -10.2      2.062      3.177
REMARK  3 active torsions:
REMARK  status: ('A' for Active; 'I' for Inactive)
REMARK    1  A    between atoms: C_2  and  C_5 
REMARK    2  A    between atoms: C_13  and  N_14 
REMARK       I    between atoms: N_14  and  C_15 
REMARK       I    between atoms: C_15  and  N_17 
REMARK    3  A    between atoms: N_17  and  C_18 
ROOT
HETATM    1  N   UNL     1     -21.403  -5.971  -5.088  1.00  0.00    -0.334 N 
HETATM    2  C   UNL     1     -21.457  -6.006  -6.464  1.00  0.00     0.321 C 
HETATM    3  O   UNL     1     -21.724  -7.052  -7.048  1.00  0.00    -0.247 OA
HETATM    4  N   UNL     1     -21.143  -4.801  -7.059  1.00  0.00    -0.308 N 
HETATM    5  H   UNL     1     -21.561  -5.094  -4.617  1.00  0.00     0.165 HD
HETATM    6  H   UNL     1     -20.674  -4.139  -6.464  1.00  0.00     0.170 HD
ENDROOT
BRANCH   1   7
HETATM    7  C   UNL     1     -21.725  -7.194  -4.376  1.00  0.00     0.120 C 
HETATM    8  C   UNL     1     -20.538  -8.083  -4.174  1.00  0.00    -0.029 A 
HETATM    9  C   UNL     1     -19.931  -8.899  -5.107  1.00  0.00     0.010 A 
HETATM   10  C   UNL     1     -20.104  -8.064  -2.848  1.00  0.00    -0.049 A 
HETATM   11  C   UNL     1     -18.863  -9.701  -4.696  1.00  0.00     0.008 A 
HETATM   12  C   UNL     1     -18.385  -9.690  -3.364  1.00  0.00    -0.050 A 
HETATM   13  C   UNL     1     -19.038  -8.850  -2.435  1.00  0.00     0.015 A 
HETATM   14  C   UNL     1     -20.920  -7.106  -2.039  1.00  0.00     0.041 C 
HETATM   15  C   UNL     1     -22.171  -6.955  -2.918  1.00  0.00     0.035 C 
BRANCH  12  16
HETATM   16  C   UNL     1     -17.173 -10.535  -2.925  1.00  0.00    -0.024 C 
HETATM   17  C   UNL     1     -15.911  -9.694  -2.630  1.00  0.00     0.019 C 
HETATM   18  C   UNL     1     -16.797 -11.555  -4.020  1.00  0.00     0.019 C 
HETATM   19  C   UNL     1     -17.530 -11.297  -1.631  1.00  0.00     0.019 C 
ENDBRANCH  12  16
ENDBRANCH   1   7
BRANCH   4  20
HETATM   20  C   UNL     1     -21.098  -4.577  -8.471  1.00  0.00     0.047 A 
HETATM   21  C   UNL     1     -19.901  -4.770  -9.181  1.00  0.00     0.030 A 
HETATM   22  C   UNL     1     -19.788  -4.459 -10.532  1.00  0.00     0.003 A 
HETATM   23  C   UNL     1     -20.887  -3.972 -11.219  1.00  0.00     0.014 A 
HETATM   24  C   UNL     1     -22.117  -3.825 -10.564  1.00  0.00    -0.008 A 
HETATM   25  C   UNL     1     -23.230  -3.359 -11.267  1.00  0.00     0.100 A 
HETATM   26  C   UNL     1     -22.257  -4.136  -9.185  1.00  0.00     0.004 A 
HETATM   27  N   UNL     1     -24.460  -3.194 -10.736  1.00  0.00    -0.374 N 
HETATM   28  C   UNL     1     -24.589  -3.505  -9.437  1.00  0.00     0.088 A 
ATOM     29  HN  UNL     1     -25.245  -2.853 -11.290  1.00  0.00     0.164 HD
HETATM   30  C   UNL     1     -23.548  -3.965  -8.636  1.00  0.00     0.031 A 
ENDBRANCH   4  20
TORSDOF 3
BEGIN_RES ARG D 557
REMARK  4 active torsions:
REMARK  status: ('A' for Active; 'I' for Inactive)
REMARK    1  A    between atoms: CA   and  CB  
REMARK    2  A    between atoms: CB   and  CG  
REMARK    3  A    between atoms: CG   and  CD  
REMARK    4  A    between atoms: CD   and  NE  
REMARK       I    between atoms: NE   and  CZ  
REMARK       I    between atoms: CZ   and  NH1 
REMARK       I    between atoms: CZ   and  NH2 
ROOT
ATOM      1  CA  ARG D 557     -26.217   2.705 -17.014  1.00 35.49     0.159 C 
ENDROOT
BRANCH   1   2
ATOM      2  CB  ARG D 557     -26.789   1.319 -17.183  1.00 35.49     0.034 C 
BRANCH   2   3
ATOM      3  CG  ARG D 557     -25.968   0.202 -16.701  1.00 35.49     0.027 C 
BRANCH   3   4
ATOM      4  CD  ARG D 557     -26.774  -0.842 -16.029  1.00 35.49     0.116 C 
BRANCH   4   5
ATOM      5  NE  ARG D 557     -28.028  -1.074 -16.697  1.00 35.49    -0.212 N 
ATOM      6  CZ  ARG D 557     -28.548  -2.250 -16.969  1.00 35.49     0.666 C 
ATOM      7  NH1 ARG D 557     -27.944  -3.381 -16.657  1.00 35.49    -0.235 N 
ATOM      8  NH2 ARG D 557     -29.705  -2.271 -17.563  1.00 35.49    -0.235 N 
ATOM      9  HH  ARG D 557     -27.182  -3.391 -16.264  1.00 35.49     0.174 HD
ATOM     10  HH  ARG D 557     -28.332  -4.119 -16.857  1.00 35.49     0.174 HD
ATOM     11  HH  ARG D 557     -30.076  -1.525 -17.746  1.00 35.49     0.174 HD
ATOM     12  HH  ARG D 557     -30.074  -3.011 -17.751  1.00 35.49     0.174 HD
ATOM     13  HE  ARG D 557     -28.450  -0.400 -16.999  1.00 35.49     0.178 HD
ENDBRANCH   4   5
ENDBRANCH   3   4
ENDBRANCH   2   3
ENDBRANCH   1   2
END_RES ARG D 557
BEGIN_RES GLU D 570
REMARK  3 active torsions:
REMARK  status: ('A' for Active; 'I' for Inactive)
REMARK    5  A    between atoms: CA   and  CB  
REMARK    6  A    between atoms: CB   and  CG  
REMARK    7  A    between atoms: CG   and  CD  
ROOT
ATOM     14  CA  GLU D 570     -18.033  -6.348 -13.375  1.00 32.92     0.160 C 
ENDROOT
BRANCH  14  15
ATOM     15  CB  GLU D 570     -19.500  -6.345 -13.794  1.00 32.92     0.043 C 
BRANCH  15  16
ATOM     16  CG  GLU D 570     -20.128  -7.657 -14.098  1.00 32.92     0.100 C 
BRANCH  16  17
ATOM     17  CD  GLU D 570     -20.860  -7.668 -15.420  1.00 32.92     0.185 C 
ATOM     18  OE1 GLU D 570     -21.648  -6.739 -15.683  1.00 32.92    -0.647 OA
ATOM     19  OE2 GLU D 570     -20.655  -8.623 -16.194  1.00 32.92    -0.647 OA
ENDBRANCH  16  17
ENDBRANCH  15  16
ENDBRANCH  14  15
END_RES GLU D 570
ENDMDL
MODEL 5
REMARK VINA RESULT:      -9.8      4.348      9.963
REMARK  3 active torsions:
REMARK  status: ('A' for Active; 'I' for Inactive)
REMARK    1  A    between atoms: C_2  and  C_5 
REMARK    2  A    between atoms: C_13  and  N_14 
REMARK       I    between atoms: N_14  and  C_15 
REMARK       I    between atoms: C_15  and  N_17 
REMARK    3  A    between atoms: N_17  and  C_18 
ROOT
HETATM    1  N   UNL     1     -21.775 -10.227  -0.769  1.00  0.00    -0.334 N 
HETATM    2  C   UNL     1     -21.633 -11.116   0.273  1.00  0.00     0.321 C 
HETATM    3  O   UNL     1     -20.834 -10.891   1.177  1.00  0.00    -0.247 OA
HETATM    4  N   UNL     1     -22.420 -12.243   0.146  1.00  0.00    -0.308 N 
HETATM    5  H   UNL     1     -22.645 -10.207  -1.278  1.00  0.00     0.165 HD
HETATM    6  H   UNL     1     -22.789 -12.406  -0.775  1.00  0.00     0.170 HD
ENDROOT
BRANCH   1   7
HETATM    7  C   UNL     1     -20.989  -9.007  -0.717  1.00  0.00     0.120 C 
HETATM    8  C   UNL     1     -20.854  -8.341  -2.051  1.00  0.00    -0.029 A 
HETATM    9  C   UNL     1     -20.034  -8.713  -3.097  1.00  0.00     0.010 A 
HETATM   10  C   UNL     1     -21.639  -7.191  -2.130  1.00  0.00    -0.049 A 
HETATM   11  C   UNL     1     -20.014  -7.915  -4.244  1.00  0.00     0.008 A 
HETATM   12  C   UNL     1     -20.814  -6.753  -4.364  1.00  0.00    -0.050 A 
HETATM   13  C   UNL     1     -21.633  -6.399  -3.269  1.00  0.00     0.015 A 
HETATM   14  C   UNL     1     -22.433  -7.005  -0.875  1.00  0.00     0.041 C 
HETATM   15  C   UNL     1     -21.650  -7.886   0.112  1.00  0.00     0.035 C 
BRANCH  12  16
HETATM   16  C   UNL     1     -20.831  -5.903  -5.649  1.00  0.00    -0.024 C 
HETATM   17  C   UNL     1     -20.104  -6.572  -6.838  1.00  0.00     0.019 C 
HETATM   18  C   UNL     1     -20.151  -4.539  -5.408  1.00  0.00     0.019 C 
HETATM   19  C   UNL     1     -22.294  -5.665  -6.079  1.00  0.00     0.019 C 
ENDBRANCH  12  16
ENDBRANCH   1   7
BRANCH   4  20
HETATM   20  C   UNL     1     -22.440 -13.331   1.074  1.00  0.00     0.047 A 
HETATM   21  C   UNL     1     -23.551 -13.529   1.911  1.00  0.00     0.030 A 
HETATM   22  C   UNL     1     -23.563 -14.506   2.901  1.00  0.00     0.003 A 
HETATM   23  C   UNL     1     -22.466 -15.337   3.058  1.00  0.00     0.014 A 
HETATM   24  C   UNL     1     -21.363 -15.216   2.203  1.00  0.00    -0.008 A 
HETATM   25  C   UNL     1     -20.271 -16.073   2.348  1.00  0.00     0.100 A 
HETATM   26  C   UNL     1     -21.328 -14.225   1.186  1.00  0.00     0.004 A 
HETATM   27  N   UNL     1     -19.167 -16.049   1.571  1.00  0.00    -0.374 N 
HETATM   28  C   UNL     1     -19.147 -15.121   0.602  1.00  0.00     0.088 A 
ATOM     29  HN  UNL     1     -18.394 -16.698   1.713  1.00  0.00     0.164 HD
HETATM   30  C   UNL     1     -20.171 -14.208   0.373  1.00  0.00     0.031 A 
ENDBRANCH   4  20
TORSDOF 3
BEGIN_RES ARG D 557
REMARK  4 active torsions:
REMARK  status: ('A' for Active; 'I' for Inactive)
REMARK    1  A    between atoms: CA   and  CB  
REMARK    2  A    between atoms: CB   and  CG  
REMARK    3  A    between atoms: CG   and  CD  
REMARK    4  A    between atoms: CD   and  NE  
REMARK       I    between atoms: NE   and  CZ  
REMARK       I    between atoms: CZ   and  NH1 
REMARK       I    between atoms: CZ   and  NH2 
ROOT
ATOM      1  CA  ARG D 557     -26.217   2.705 -17.014  1.00 35.49     0.159 C 
ENDROOT
BRANCH   1   2
ATOM      2  CB  ARG D 557     -26.789   1.319 -17.183  1.00 35.49     0.034 C 
BRANCH   2   3
ATOM      3  CG  ARG D 557     -25.865   0.195 -16.990  1.00 35.49     0.027 C 
BRANCH   3   4
ATOM      4  CD  ARG D 557     -26.278  -0.691 -15.878  1.00 35.49     0.116 C 
BRANCH   4   5
ATOM      5  NE  ARG D 557     -25.213  -0.912 -14.936  1.00 35.49    -0.212 N 
ATOM      6  CZ  ARG D 557     -24.909  -2.061 -14.375  1.00 35.49     0.666 C 
ATOM      7  NH1 ARG D 557     -25.586  -3.169 -14.617  1.00 35.49    -0.235 N 
ATOM      8  NH2 ARG D 557     -23.896  -2.081 -13.559  1.00 35.49    -0.235 N 
ATOM      9  HH  ARG D 557     -26.255  -3.179 -15.152  1.00 35.49     0.174 HD
ATOM     10  HH  ARG D 557     -25.340  -3.889 -14.224  1.00 35.49     0.174 HD
ATOM     11  HH  ARG D 557     -23.473  -1.352 -13.427  1.00 35.49     0.174 HD
ATOM     12  HH  ARG D 557     -23.668  -2.805 -13.180  1.00 35.49     0.174 HD
ATOM     13  HE  ARG D 557     -24.771  -0.237 -14.668  1.00 35.49     0.178 HD
ENDBRANCH   4   5
ENDBRANCH   3   4
ENDBRANCH   2   3
ENDBRANCH   1   2
END_RES ARG D 557
BEGIN_RES GLU D 570
REMARK  3 active torsions:
REMARK  status: ('A' for Active; 'I' for Inactive)
REMARK    5  A    between atoms: CA   and  CB  
REMARK    6  A    between atoms: CB   and  CG  
REMARK    7  A    between atoms: CG   and  CD  
ROOT
ATOM     14  CA  GLU D 570     -18.033  -6.348 -13.375  1.00 32.92     0.160 C 
ENDROOT
BRANCH  14  15
ATOM     15  CB  GLU D 570     -19.500  -6.345 -13.794  1.00 32.92     0.043 C 
BRANCH  15  16
ATOM     16  CG  GLU D 570     -20.446  -5.552 -12.968  1.00 32.92     0.100 C 
BRANCH  16  17
ATOM     17  CD  GLU D 570     -21.686  -5.136 -13.726  1.00 32.92     0.185 C 
ATOM     18  OE1 GLU D 570     -21.635  -5.051 -14.968  1.00 32.92    -0.647 OA
ATOM     19  OE2 GLU D 570     -22.713  -4.877 -13.069  1.00 32.92    -0.647 OA
ENDBRANCH  16  17
ENDBRANCH  15  16
ENDBRANCH  14  15
END_RES GLU D 570
ENDMDL
MODEL 6
REMARK VINA RESULT:      -9.8      4.320      9.516
REMARK  3 active torsions:
REMARK  status: ('A' for Active; 'I' for Inactive)
REMARK    1  A    between atoms: C_2  and  C_5 
REMARK    2  A    between atoms: C_13  and  N_14 
REMARK       I    between atoms: N_14  and  C_15 
REMARK       I    between atoms: C_15  and  N_17 
REMARK    3  A    between atoms: N_17  and  C_18 
ROOT
HETATM    1  N   UNL     1     -22.558 -10.101  -0.886  1.00  0.00    -0.334 N 
HETATM    2  C   UNL     1     -22.425 -11.243  -0.127  1.00  0.00     0.321 C 
HETATM    3  O   UNL     1     -21.403 -11.440   0.523  1.00  0.00    -0.247 OA
HETATM    4  N   UNL     1     -23.503 -12.099  -0.227  1.00  0.00    -0.308 N 
HETATM    5  H   UNL     1     -23.483  -9.761  -1.098  1.00  0.00     0.165 HD
HETATM    6  H   UNL     1     -24.112 -11.931  -1.010  1.00  0.00     0.170 HD
ENDROOT
BRANCH   1   7
HETATM    7  C   UNL     1     -21.473  -9.137  -0.838  1.00  0.00     0.120 C 
HETATM    8  C   UNL     1     -21.245  -8.446  -2.146  1.00  0.00    -0.029 A 
HETATM    9  C   UNL     1     -20.618  -8.953  -3.265  1.00  0.00     0.010 A 
HETATM   10  C   UNL     1     -21.698  -7.127  -2.113  1.00  0.00    -0.049 A 
HETATM   11  C   UNL     1     -20.454  -8.117  -4.373  1.00  0.00     0.008 A 
HETATM   12  C   UNL     1     -20.921  -6.780  -4.380  1.00  0.00    -0.050 A 
HETATM   13  C   UNL     1     -21.549  -6.294  -3.212  1.00  0.00     0.015 A 
HETATM   14  C   UNL     1     -22.337  -6.820  -0.795  1.00  0.00     0.041 C 
HETATM   15  C   UNL     1     -21.761  -7.937   0.089  1.00  0.00     0.035 C 
BRANCH  12  16
HETATM   16  C   UNL     1     -20.787  -5.876  -5.620  1.00  0.00    -0.024 C 
HETATM   17  C   UNL     1     -20.077  -4.535  -5.330  1.00  0.00     0.019 C 
HETATM   18  C   UNL     1     -22.178  -5.540  -6.199  1.00  0.00     0.019 C 
HETATM   19  C   UNL     1     -19.961  -6.611  -6.696  1.00  0.00     0.019 C 
ENDBRANCH  12  16
ENDBRANCH   1   7
BRANCH   4  20
HETATM   20  C   UNL     1     -23.603 -13.362   0.436  1.00  0.00     0.047 A 
HETATM   21  C   UNL     1     -23.403 -13.452   1.824  1.00  0.00     0.030 A 
HETATM   22  C   UNL     1     -23.384 -14.674   2.488  1.00  0.00     0.003 A 
HETATM   23  C   UNL     1     -23.597 -15.844   1.778  1.00  0.00     0.014 A 
HETATM   24  C   UNL     1     -23.864 -15.795   0.404  1.00  0.00    -0.008 A 
HETATM   25  C   UNL     1     -24.105 -16.974  -0.302  1.00  0.00     0.100 A 
HETATM   26  C   UNL     1     -23.889 -14.559  -0.295  1.00  0.00     0.004 A 
HETATM   27  N   UNL     1     -24.384 -17.036  -1.622  1.00  0.00    -0.374 N 
HETATM   28  C   UNL     1     -24.422 -15.864  -2.274  1.00  0.00     0.088 A 
ATOM     29  HN  UNL     1     -24.557 -17.923  -2.095  1.00  0.00     0.164 HD
HETATM   30  C   UNL     1     -24.185 -14.630  -1.676  1.00  0.00     0.031 A 
ENDBRANCH   4  20
TORSDOF 3
BEGIN_RES ARG D 557
REMARK  4 active torsions:
REMARK  status: ('A' for Active; 'I' for Inactive)
REMARK    1  A    between atoms: CA   and  CB  
REMARK    2  A    between atoms: CB   and  CG  
REMARK    3  A    between atoms: CG   and  CD  
REMARK    4  A    between atoms: CD   and  NE  
REMARK       I    between atoms: NE   and  CZ  
REMARK       I    between atoms: CZ   and  NH1 
REMARK       I    between atoms: CZ   and  NH2 
ROOT
ATOM      1  CA  ARG D 557     -26.217   2.705 -17.014  1.00 35.49     0.159 C 
ENDROOT
BRANCH   1   2
ATOM      2  CB  ARG D 557     -26.789   1.319 -17.183  1.00 35.49     0.034 C 
BRANCH   2   3
ATOM      3  CG  ARG D 557     -25.838   0.202 -17.138  1.00 35.49     0.027 C 
BRANCH   3   4
ATOM      4  CD  ARG D 557     -24.758   0.419 -16.148  1.00 35.49     0.116 C 
BRANCH   4   5
ATOM      5  NE  ARG D 557     -24.895  -0.436 -14.999  1.00 35.49    -0.212 N 
ATOM      6  CZ  ARG D 557     -24.080  -1.411 -14.665  1.00 35.49     0.666 C 
ATOM      7  NH1 ARG D 557     -23.019  -1.726 -15.386  1.00 35.49    -0.235 N 
ATOM      8  NH2 ARG D 557     -24.347  -2.070 -13.576  1.00 35.49    -0.235 N 
ATOM      9  HH  ARG D 557     -22.823  -1.304 -16.105  1.00 35.49     0.174 HD
ATOM     10  HH  ARG D 557     -22.522  -2.370 -15.117  1.00 35.49     0.174 HD
ATOM     11  HH  ARG D 557     -25.034  -1.840 -13.127  1.00 35.49     0.174 HD
ATOM     12  HH  ARG D 557     -23.841  -2.704 -13.326  1.00 35.49     0.174 HD
ATOM     13  HE  ARG D 557     -25.591  -0.350 -14.518  1.00 35.49     0.178 HD
ENDBRANCH   4   5
ENDBRANCH   3   4
ENDBRANCH   2   3
ENDBRANCH   1   2
END_RES ARG D 557
BEGIN_RES GLU D 570
REMARK  3 active torsions:
REMARK  status: ('A' for Active; 'I' for Inactive)
REMARK    5  A    between atoms: CA   and  CB  
REMARK    6  A    between atoms: CB   and  CG  
REMARK    7  A    between atoms: CG   and  CD  
ROOT
ATOM     14  CA  GLU D 570     -18.033  -6.348 -13.375  1.00 32.92     0.160 C 
ENDROOT
BRANCH  14  15
ATOM     15  CB  GLU D 570     -19.500  -6.345 -13.794  1.00 32.92     0.043 C 
BRANCH  15  16
ATOM     16  CG  GLU D 570     -20.442  -5.532 -12.982  1.00 32.92     0.100 C 
BRANCH  16  17
ATOM     17  CD  GLU D 570     -21.741  -5.245 -13.699  1.00 32.92     0.185 C 
ATOM     18  OE1 GLU D 570     -22.220  -6.112 -14.454  1.00 32.92    -0.647 OA
ATOM     19  OE2 GLU D 570     -22.276  -4.133 -13.516  1.00 32.92    -0.647 OA
ENDBRANCH  16  17
ENDBRANCH  15  16
ENDBRANCH  14  15
END_RES GLU D 570
ENDMDL
MODEL 7
REMARK VINA RESULT:      -9.4      5.154      8.453
REMARK  3 active torsions:
REMARK  status: ('A' for Active; 'I' for Inactive)
REMARK    1  A    between atoms: C_2  and  C_5 
REMARK    2  A    between atoms: C_13  and  N_14 
REMARK       I    between atoms: N_14  and  C_15 
REMARK       I    between atoms: C_15  and  N_17 
REMARK    3  A    between atoms: N_17  and  C_18 
ROOT
HETATM    1  N   UNL     1     -17.681 -10.753  -4.204  1.00  0.00    -0.334 N 
HETATM    2  C   UNL     1     -18.157 -10.093  -3.093  1.00  0.00     0.321 C 
HETATM    3  O   UNL     1     -17.385  -9.507  -2.341  1.00  0.00    -0.247 OA
HETATM    4  N   UNL     1     -19.522 -10.213  -2.925  1.00  0.00    -0.308 N 
HETATM    5  H   UNL     1     -18.298 -10.896  -4.988  1.00  0.00     0.165 HD
HETATM    6  H   UNL     1     -19.955 -10.952  -3.452  1.00  0.00     0.170 HD
ENDROOT
BRANCH   1   7
HETATM    7  C   UNL     1     -16.254 -10.677  -4.465  1.00  0.00     0.120 C 
HETATM    8  C   UNL     1     -15.587 -12.016  -4.465  1.00  0.00    -0.029 A 
HETATM    9  C   UNL     1     -15.248 -12.786  -3.370  1.00  0.00     0.010 A 
HETATM   10  C   UNL     1     -15.254 -12.422  -5.757  1.00  0.00    -0.049 A 
HETATM   11  C   UNL     1     -14.571 -13.989  -3.585  1.00  0.00     0.008 A 
HETATM   12  C   UNL     1     -14.237 -14.440  -4.885  1.00  0.00    -0.050 A 
HETATM   13  C   UNL     1     -14.591 -13.621  -5.980  1.00  0.00     0.015 A 
HETATM   14  C   UNL     1     -15.725 -11.421  -6.764  1.00  0.00     0.041 C 
HETATM   15  C   UNL     1     -15.918 -10.175  -5.885  1.00  0.00     0.035 C 
BRANCH  12  16
HETATM   16  C   UNL     1     -13.538 -15.792  -5.125  1.00  0.00    -0.024 C 
HETATM   17  C   UNL     1     -12.725 -15.840  -6.438  1.00  0.00     0.019 C 
HETATM   18  C   UNL     1     -14.573 -16.935  -5.187  1.00  0.00     0.019 C 
HETATM   19  C   UNL     1     -12.557 -16.067  -3.966  1.00  0.00     0.019 C 
ENDBRANCH  12  16
ENDBRANCH   1   7
BRANCH   4  20
HETATM   20  C   UNL     1     -20.261  -9.647  -1.838  1.00  0.00     0.047 A 
HETATM   21  C   UNL     1     -20.373 -10.340  -0.621  1.00  0.00     0.030 A 
HETATM   22  C   UNL     1     -21.172  -9.876   0.419  1.00  0.00     0.003 A 
HETATM   23  C   UNL     1     -21.858  -8.681   0.278  1.00  0.00     0.014 A 
HETATM   24  C   UNL     1     -21.724  -7.927  -0.895  1.00  0.00    -0.008 A 
HETATM   25  C   UNL     1     -22.396  -6.711  -1.023  1.00  0.00     0.100 A 
HETATM   26  C   UNL     1     -20.914  -8.381  -1.971  1.00  0.00     0.004 A 
HETATM   27  N   UNL     1     -22.323  -5.903  -2.102  1.00  0.00    -0.374 N 
HETATM   28  C   UNL     1     -21.545  -6.329  -3.108  1.00  0.00     0.088 A 
ATOM     29  HN  UNL     1     -22.831  -5.020  -2.149  1.00  0.00     0.164 HD
HETATM   30  C   UNL     1     -20.839  -7.528  -3.096  1.00  0.00     0.031 A 
ENDBRANCH   4  20
TORSDOF 3
BEGIN_RES ARG D 557
REMARK  4 active torsions:
REMARK  status: ('A' for Active; 'I' for Inactive)
REMARK    1  A    between atoms: CA   and  CB  
REMARK    2  A    between atoms: CB   and  CG  
REMARK    3  A    between atoms: CG   and  CD  
REMARK    4  A    between atoms: CD   and  NE  
REMARK       I    between atoms: NE   and  CZ  
REMARK       I    between atoms: CZ   and  NH1 
REMARK       I    between atoms: CZ   and  NH2 
ROOT
ATOM      1  CA  ARG D 557     -26.217   2.705 -17.014  1.00 35.49     0.159 C 
ENDROOT
BRANCH   1   2
ATOM      2  CB  ARG D 557     -26.789   1.319 -17.183  1.00 35.49     0.034 C 
BRANCH   2   3
ATOM      3  CG  ARG D 557     -25.835   0.204 -17.165  1.00 35.49     0.027 C 
BRANCH   3   4
ATOM      4  CD  ARG D 557     -24.748   0.406 -16.180  1.00 35.49     0.116 C 
BRANCH   4   5
ATOM      5  NE  ARG D 557     -24.900  -0.437 -15.024  1.00 35.49    -0.212 N 
ATOM      6  CZ  ARG D 557     -24.088  -1.408 -14.670  1.00 35.49     0.666 C 
ATOM      7  NH1 ARG D 557     -23.017  -1.729 -15.372  1.00 35.49    -0.235 N 
ATOM      8  NH2 ARG D 557     -24.369  -2.057 -13.577  1.00 35.49    -0.235 N 
ATOM      9  HH  ARG D 557     -22.812  -1.314 -16.093  1.00 35.49     0.174 HD
ATOM     10  HH  ARG D 557     -22.523  -2.370 -15.091  1.00 35.49     0.174 HD
ATOM     11  HH  ARG D 557     -25.063  -1.823 -13.140  1.00 35.49     0.174 HD
ATOM     12  HH  ARG D 557     -23.866  -2.687 -13.314  1.00 35.49     0.174 HD
ATOM     13  HE  ARG D 557     -25.603  -0.348 -14.554  1.00 35.49     0.178 HD
ENDBRANCH   4   5
ENDBRANCH   3   4
ENDBRANCH   2   3
ENDBRANCH   1   2
END_RES ARG D 557
BEGIN_RES GLU D 570
REMARK  3 active torsions:
REMARK  status: ('A' for Active; 'I' for Inactive)
REMARK    5  A    between atoms: CA   and  CB  
REMARK    6  A    between atoms: CB   and  CG  
REMARK    7  A    between atoms: CG   and  CD  
ROOT
ATOM     14  CA  GLU D 570     -18.033  -6.348 -13.375  1.00 32.92     0.160 C 
ENDROOT
BRANCH  14  15
ATOM     15  CB  GLU D 570     -19.500  -6.345 -13.794  1.00 32.92     0.043 C 
BRANCH  15  16
ATOM     16  CG  GLU D 570     -20.441  -5.528 -12.985  1.00 32.92     0.100 C 
BRANCH  16  17
ATOM     17  CD  GLU D 570     -21.722  -5.205 -13.719  1.00 32.92     0.185 C 
ATOM     18  OE1 GLU D 570     -22.149  -6.006 -14.573  1.00 32.92    -0.647 OA
ATOM     19  OE2 GLU D 570     -22.295  -4.131 -13.449  1.00 32.92    -0.647 OA
ENDBRANCH  16  17
ENDBRANCH  15  16
ENDBRANCH  14  15
END_RES GLU D 570
ENDMDL
MODEL 8
REMARK VINA RESULT:      -9.4     15.234     17.088
REMARK  3 active torsions:
REMARK  status: ('A' for Active; 'I' for Inactive)
REMARK    1  A    between atoms: C_2  and  C_5 
REMARK    2  A    between atoms: C_13  and  N_14 
REMARK       I    between atoms: N_14  and  C_15 
REMARK       I    between atoms: C_15  and  N_17 
REMARK    3  A    between atoms: N_17  and  C_18 
ROOT
HETATM    1  N   UNL     1     -19.847   9.452   4.722  1.00  0.00    -0.334 N 
HETATM    2  C   UNL     1     -18.513   9.793   4.727  1.00  0.00     0.321 C 
HETATM    3  O   UNL     1     -18.160  10.923   4.401  1.00  0.00    -0.247 OA
HETATM    4  N   UNL     1     -17.680   8.751   5.077  1.00  0.00    -0.308 N 
HETATM    5  H   UNL     1     -20.161   8.705   5.321  1.00  0.00     0.165 HD
HETATM    6  H   UNL     1     -18.095   7.836   5.030  1.00  0.00     0.170 HD
ENDROOT
BRANCH   1   7
HETATM    7  C   UNL     1     -20.801  10.490   4.372  1.00  0.00     0.120 C 
HETATM    8  C   UNL     1     -21.686  10.110   3.226  1.00  0.00    -0.029 A 
HETATM    9  C   UNL     1     -21.361  10.088   1.885  1.00  0.00     0.010 A 
HETATM   10  C   UNL     1     -22.980   9.818   3.655  1.00  0.00    -0.049 A 
HETATM   11  C   UNL     1     -22.358   9.758   0.963  1.00  0.00     0.008 A 
HETATM   12  C   UNL     1     -23.676   9.436   1.367  1.00  0.00    -0.050 A 
HETATM   13  C   UNL     1     -23.973   9.479   2.747  1.00  0.00     0.015 A 
HETATM   14  C   UNL     1     -23.077   9.911   5.145  1.00  0.00     0.041 C 
HETATM   15  C   UNL     1     -21.842  10.764   5.477  1.00  0.00     0.035 C 
BRANCH  12  16
HETATM   16  C   UNL     1     -24.761   9.020   0.355  1.00  0.00    -0.024 C 
HETATM   17  C   UNL     1     -26.127   8.712   1.008  1.00  0.00     0.019 C 
HETATM   18  C   UNL     1     -24.328   7.755  -0.416  1.00  0.00     0.019 C 
HETATM   19  C   UNL     1     -24.981  10.169  -0.652  1.00  0.00     0.019 C 
ENDBRANCH  12  16
ENDBRANCH   1   7
BRANCH   4  20
HETATM   20  C   UNL     1     -16.252   8.832   5.131  1.00  0.00     0.047 A 
HETATM   21  C   UNL     1     -15.589   8.830   6.370  1.00  0.00     0.030 A 
HETATM   22  C   UNL     1     -14.214   9.018   6.469  1.00  0.00     0.003 A 
HETATM   23  C   UNL     1     -13.459   9.183   5.320  1.00  0.00     0.014 A 
HETATM   24  C   UNL     1     -14.072   9.128   4.062  1.00  0.00    -0.008 A 
HETATM   25  C   UNL     1     -13.303   9.268   2.905  1.00  0.00     0.100 A 
HETATM   26  C   UNL     1     -15.474   8.937   3.935  1.00  0.00     0.004 A 
HETATM   27  N   UNL     1     -13.790   9.217   1.647  1.00  0.00    -0.374 N 
HETATM   28  C   UNL     1     -15.113   9.021   1.534  1.00  0.00     0.088 A 
ATOM     29  HN  UNL     1     -13.189   9.321   0.831  1.00  0.00     0.164 HD
HETATM   30  C   UNL     1     -15.977   8.881   2.615  1.00  0.00     0.031 A 
ENDBRANCH   4  20
TORSDOF 3
BEGIN_RES ARG D 557
REMARK  4 active torsions:
REMARK  status: ('A' for Active; 'I' for Inactive)
REMARK    1  A    between atoms: CA   and  CB  
REMARK    2  A    between atoms: CB   and  CG  
REMARK    3  A    between atoms: CG   and  CD  
REMARK    4  A    between atoms: CD   and  NE  
REMARK       I    between atoms: NE   and  CZ  
REMARK       I    between atoms: CZ   and  NH1 
REMARK       I    between atoms: CZ   and  NH2 
ROOT
ATOM      1  CA  ARG D 557     -26.217   2.705 -17.014  1.00 35.49     0.159 C 
ENDROOT
BRANCH   1   2
ATOM      2  CB  ARG D 557     -26.789   1.319 -17.183  1.00 35.49     0.034 C 
BRANCH   2   3
ATOM      3  CG  ARG D 557     -25.838   0.202 -17.141  1.00 35.49     0.027 C 
BRANCH   3   4
ATOM      4  CD  ARG D 557     -24.757   0.419 -16.152  1.00 35.49     0.116 C 
BRANCH   4   5
ATOM      5  NE  ARG D 557     -24.893  -0.437 -15.003  1.00 35.49    -0.212 N 
ATOM      6  CZ  ARG D 557     -24.072  -1.407 -14.666  1.00 35.49     0.666 C 
ATOM      7  NH1 ARG D 557     -23.007  -1.715 -15.381  1.00 35.49    -0.235 N 
ATOM      8  NH2 ARG D 557     -24.340  -2.068 -13.577  1.00 35.49    -0.235 N 
ATOM      9  HH  ARG D 557     -22.810  -1.292 -16.100  1.00 35.49     0.174 HD
ATOM     10  HH  ARG D 557     -22.506  -2.356 -15.111  1.00 35.49     0.174 HD
ATOM     11  HH  ARG D 557     -25.031  -1.842 -13.131  1.00 35.49     0.174 HD
ATOM     12  HH  ARG D 557     -23.831  -2.698 -13.325  1.00 35.49     0.174 HD
ATOM     13  HE  ARG D 557     -25.592  -0.356 -14.525  1.00 35.49     0.178 HD
ENDBRANCH   4   5
ENDBRANCH   3   4
ENDBRANCH   2   3
ENDBRANCH   1   2
END_RES ARG D 557
BEGIN_RES GLU D 570
REMARK  3 active torsions:
REMARK  status: ('A' for Active; 'I' for Inactive)
REMARK    5  A    between atoms: CA   and  CB  
REMARK    6  A    between atoms: CB   and  CG  
REMARK    7  A    between atoms: CG   and  CD  
ROOT
ATOM     14  CA  GLU D 570     -18.033  -6.348 -13.375  1.00 32.92     0.160 C 
ENDROOT
BRANCH  14  15
ATOM     15  CB  GLU D 570     -19.500  -6.345 -13.794  1.00 32.92     0.043 C 
BRANCH  15  16
ATOM     16  CG  GLU D 570     -20.446  -5.549 -12.970  1.00 32.92     0.100 C 
BRANCH  16  17
ATOM     17  CD  GLU D 570     -21.737  -5.238 -13.690  1.00 32.92     0.185 C 
ATOM     18  OE1 GLU D 570     -22.267  -4.122 -13.528  1.00 32.92    -0.647 OA
ATOM     19  OE2 GLU D 570     -22.234  -6.127 -14.410  1.00 32.92    -0.647 OA
ENDBRANCH  16  17
ENDBRANCH  15  16
ENDBRANCH  14  15
END_RES GLU D 570
ENDMDL
MODEL 9
REMARK VINA RESULT:      -9.3      5.146      7.567
REMARK  3 active torsions:
REMARK  status: ('A' for Active; 'I' for Inactive)
REMARK    1  A    between atoms: C_2  and  C_5 
REMARK    2  A    between atoms: C_13  and  N_14 
REMARK       I    between atoms: N_14  and  C_15 
REMARK       I    between atoms: C_15  and  N_17 
REMARK    3  A    between atoms: N_17  and  C_18 
ROOT
HETATM    1  N   UNL     1     -17.306 -11.268  -2.346  1.00  0.00    -0.334 N 
HETATM    2  C   UNL     1     -17.777 -10.034  -2.736  1.00  0.00     0.321 C 
HETATM    3  O   UNL     1     -17.053  -9.045  -2.671  1.00  0.00    -0.247 OA
HETATM    4  N   UNL     1     -19.097 -10.050  -3.136  1.00  0.00    -0.308 N 
HETATM    5  H   UNL     1     -17.728 -12.097  -2.736  1.00  0.00     0.165 HD
HETATM    6  H   UNL     1     -19.619 -10.864  -2.858  1.00  0.00     0.170 HD
ENDROOT
BRANCH   1   7
HETATM    7  C   UNL     1     -15.921 -11.349  -1.915  1.00  0.00     0.120 C 
HETATM    8  C   UNL     1     -15.731 -12.230  -0.721  1.00  0.00    -0.029 A 
HETATM    9  C   UNL     1     -16.024 -11.936   0.596  1.00  0.00     0.010 A 
HETATM   10  C   UNL     1     -15.129 -13.440  -1.067  1.00  0.00    -0.049 A 
HETATM   11  C   UNL     1     -15.713 -12.883   1.575  1.00  0.00     0.008 A 
HETATM   12  C   UNL     1     -15.121 -14.128   1.254  1.00  0.00    -0.050 A 
HETATM   13  C   UNL     1     -14.826 -14.389  -0.102  1.00  0.00     0.015 A 
HETATM   14  C   UNL     1     -14.914 -13.518  -2.546  1.00  0.00     0.041 C 
HETATM   15  C   UNL     1     -14.999 -12.036  -2.944  1.00  0.00     0.035 C 
BRANCH  12  16
HETATM   16  C   UNL     1     -14.827 -15.192   2.329  1.00  0.00    -0.024 C 
HETATM   17  C   UNL     1     -13.330 -15.559   2.438  1.00  0.00     0.019 C 
HETATM   18  C   UNL     1     -15.595 -16.496   2.026  1.00  0.00     0.019 C 
HETATM   19  C   UNL     1     -15.271 -14.657   3.707  1.00  0.00     0.019 C 
ENDBRANCH  12  16
ENDBRANCH   1   7
BRANCH   4  20
HETATM   20  C   UNL     1     -19.833  -8.899  -3.560  1.00  0.00     0.047 A 
HETATM   21  C   UNL     1     -19.720  -8.433  -4.881  1.00  0.00     0.030 A 
HETATM   22  C   UNL     1     -20.332  -7.257  -5.302  1.00  0.00     0.003 A 
HETATM   23  C   UNL     1     -21.104  -6.528  -4.412  1.00  0.00     0.014 A 
HETATM   24  C   UNL     1     -21.295  -6.991  -3.103  1.00  0.00    -0.008 A 
HETATM   25  C   UNL     1     -22.095  -6.268  -2.218  1.00  0.00     0.100 A 
HETATM   26  C   UNL     1     -20.680  -8.189  -2.651  1.00  0.00     0.004 A 
HETATM   27  N   UNL     1     -22.354  -6.631  -0.943  1.00  0.00    -0.374 N 
HETATM   28  C   UNL     1     -21.783  -7.772  -0.527  1.00  0.00     0.088 A 
ATOM     29  HN  UNL     1     -22.948  -6.071  -0.333  1.00  0.00     0.164 HD
HETATM   30  C   UNL     1     -20.958  -8.566  -1.317  1.00  0.00     0.031 A 
ENDBRANCH   4  20
TORSDOF 3
BEGIN_RES ARG D 557
REMARK  4 active torsions:
REMARK  status: ('A' for Active; 'I' for Inactive)
REMARK    1  A    between atoms: CA   and  CB  
REMARK    2  A    between atoms: CB   and  CG  
REMARK    3  A    between atoms: CG   and  CD  
REMARK    4  A    between atoms: CD   and  NE  
REMARK       I    between atoms: NE   and  CZ  
REMARK       I    between atoms: CZ   and  NH1 
REMARK       I    between atoms: CZ   and  NH2 
ROOT
ATOM      1  CA  ARG D 557     -26.217   2.705 -17.014  1.00 35.49     0.159 C 
ENDROOT
BRANCH   1   2
ATOM      2  CB  ARG D 557     -26.789   1.319 -17.183  1.00 35.49     0.034 C 
BRANCH   2   3
ATOM      3  CG  ARG D 557     -25.863   0.195 -16.999  1.00 35.49     0.027 C 
BRANCH   3   4
ATOM      4  CD  ARG D 557     -26.269  -0.695 -15.888  1.00 35.49     0.116 C 
BRANCH   4   5
ATOM      5  NE  ARG D 557     -25.204  -0.905 -14.943  1.00 35.49    -0.212 N 
ATOM      6  CZ  ARG D 557     -24.912  -2.043 -14.355  1.00 35.49     0.666 C 
ATOM      7  NH1 ARG D 557     -25.601  -3.149 -14.568  1.00 35.49    -0.235 N 
ATOM      8  NH2 ARG D 557     -23.896  -2.054 -13.541  1.00 35.49    -0.235 N 
ATOM      9  HH  ARG D 557     -26.271  -3.164 -15.101  1.00 35.49     0.174 HD
ATOM     10  HH  ARG D 557     -25.362  -3.862 -14.158  1.00 35.49     0.174 HD
ATOM     11  HH  ARG D 557     -23.465  -1.327 -13.428  1.00 35.49     0.174 HD
ATOM     12  HH  ARG D 557     -23.675  -2.771 -13.146  1.00 35.49     0.174 HD
ATOM     13  HE  ARG D 557     -24.754  -0.228 -14.692  1.00 35.49     0.178 HD
ENDBRANCH   4   5
ENDBRANCH   3   4
ENDBRANCH   2   3
ENDBRANCH   1   2
END_RES ARG D 557
BEGIN_RES GLU D 570
REMARK  3 active torsions:
REMARK  status: ('A' for Active; 'I' for Inactive)
REMARK    5  A    between atoms: CA   and  CB  
REMARK    6  A    between atoms: CB   and  CG  
REMARK    7  A    between atoms: CG   and  CD  
ROOT
ATOM     14  CA  GLU D 570     -18.033  -6.348 -13.375  1.00 32.92     0.160 C 
ENDROOT
BRANCH  14  15
ATOM     15  CB  GLU D 570     -19.500  -6.345 -13.794  1.00 32.92     0.043 C 
BRANCH  15  16
ATOM     16  CG  GLU D 570     -20.449  -5.566 -12.957  1.00 32.92     0.100 C 
BRANCH  16  17
ATOM     17  CD  GLU D 570     -21.675  -5.118 -13.719  1.00 32.92     0.185 C 
ATOM     18  OE1 GLU D 570     -21.617  -5.029 -14.960  1.00 32.92    -0.647 OA
ATOM     19  OE2 GLU D 570     -22.699  -4.836 -13.065  1.00 32.92    -0.647 OA
ENDBRANCH  16  17
ENDBRANCH  15  16
ENDBRANCH  14  15
END_RES GLU D 570
ENDMDL
