MODEL 1
REMARK VINA RESULT:     -11.6      0.000      0.000
REMARK  4 active torsions:
REMARK  status: ('A' for Active; 'I' for Inactive)
REMARK    1  A    between atoms: C_2  and  C_5 
REMARK    2  A    between atoms: C_8  and  C_9 
REMARK    3  A    between atoms: C_10  and  C_11 
REMARK       I    between atoms: C_11  and  N_13 
REMARK    4  A    between atoms: N_13  and  C_14 
ROOT
HETATM    1  C   UNL     1     -20.217  -4.669  -6.798  1.00  0.00     0.245 C 
HETATM    2  O   UNL     1     -19.081  -4.405  -7.162  1.00  0.00    -0.268 OA
HETATM    3  N   UNL     1     -21.373  -4.594  -7.555  1.00  0.00    -0.324 N 
HETATM    4  H   UNL     1     -22.240  -4.837  -7.090  1.00  0.00     0.169 HD
ENDROOT
BRANCH   1   5
HETATM    5  C   UNL     1     -20.497  -5.151  -5.409  1.00  0.00     0.075 C 
HETATM    6  C   UNL     1     -20.890  -6.417  -5.191  1.00  0.00     0.017 C 
BRANCH   6   7
HETATM    7  C   UNL     1     -21.225  -6.985  -3.874  1.00  0.00    -0.036 A 
HETATM    8  C   UNL     1     -21.675  -6.206  -2.805  1.00  0.00     0.012 A 
HETATM    9  C   UNL     1     -22.039  -6.796  -1.584  1.00  0.00     0.009 A 
HETATM   10  C   UNL     1     -21.992  -8.188  -1.389  1.00  0.00    -0.051 A 
HETATM   11  C   UNL     1     -21.532  -8.958  -2.470  1.00  0.00     0.009 A 
HETATM   12  C   UNL     1     -21.166  -8.370  -3.691  1.00  0.00     0.012 A 
BRANCH  10  13
HETATM   13  C   UNL     1     -22.380  -8.828  -0.041  1.00  0.00    -0.024 C 
HETATM   14  C   UNL     1     -23.189 -10.135  -0.218  1.00  0.00     0.019 C 
HETATM   15  C   UNL     1     -23.242  -7.826   0.752  1.00  0.00     0.019 C 
HETATM   16  C   UNL     1     -21.152  -9.198   0.826  1.00  0.00     0.019 C 
ENDBRANCH  10  13
ENDBRANCH   6   7
ENDBRANCH   1   5
BRANCH   3  17
HETATM   17  C   UNL     1     -21.502  -4.251  -8.918  1.00  0.00     0.037 A 
HETATM   18  C   UNL     1     -20.480  -4.363  -9.855  1.00  0.00     0.032 A 
HETATM   19  C   UNL     1     -20.726  -4.059 -11.206  1.00  0.00     0.042 A 
HETATM   20  C   UNL     1     -21.988  -3.636 -11.624  1.00  0.00     0.102 A 
HETATM   21  C   UNL     1     -22.992  -3.461 -10.677  1.00  0.00     0.104 A 
HETATM   22  O   UNL     1     -22.158  -3.441 -12.960  1.00  0.00    -0.346 OA
HETATM   23  C   UNL     1     -22.751  -3.784  -9.340  1.00  0.00     0.069 A 
HETATM   24  O   UNL     1     -24.223  -2.951 -10.974  1.00  0.00    -0.346 OA
HETATM   25  C   UNL     1     -24.559  -3.083 -12.351  1.00  0.00     0.202 C 
HETATM   26  C   UNL     1     -23.406  -2.858 -13.323  1.00  0.00     0.202 C 
ENDBRANCH   3  17
TORSDOF 4
BEGIN_RES ARG D 557
REMARK  4 active torsions:
REMARK  status: ('A' for Active; 'I' for Inactive)
REMARK    1  A    between atoms: CA   and  CB  
REMARK    2  A    between atoms: CB   and  CG  
REMARK    3  A    between atoms: CG   and  CD  
REMARK    4  A    between atoms: CD   and  NE  
REMARK       I    between atoms: NE   and  CZ  
REMARK       I    between atoms: CZ   and  NH1 
REMARK       I    between atoms: CZ   and  NH2 
ROOT
ATOM      1  CA  ARG D 557     -26.217   2.705 -17.014  1.00 35.49     0.159 C 
ENDROOT
BRANCH   1   2
ATOM      2  CB  ARG D 557     -26.789   1.319 -17.183  1.00 35.49     0.034 C 
BRANCH   2   3
ATOM      3  CG  ARG D 557     -28.240   1.177 -17.009  1.00 35.49     0.027 C 
BRANCH   3   4
ATOM      4  CD  ARG D 557     -28.641  -0.221 -16.733  1.00 35.49     0.116 C 
BRANCH   4   5
ATOM      5  NE  ARG D 557     -27.609  -0.957 -16.052  1.00 35.49    -0.212 N 
ATOM      6  CZ  ARG D 557     -27.431  -2.258 -16.104  1.00 35.49     0.666 C 
ATOM      7  NH1 ARG D 557     -28.219  -3.054 -16.803  1.00 35.49    -0.235 N 
ATOM      8  NH2 ARG D 557     -26.429  -2.754 -15.438  1.00 35.49    -0.235 N 
ATOM      9  HH  ARG D 557     -28.883  -2.749 -17.250  1.00 35.49     0.174 HD
ATOM     10  HH  ARG D 557     -28.053  -3.895 -16.802  1.00 35.49     0.174 HD
ATOM     11  HH  ARG D 557     -25.932  -2.215 -15.002  1.00 35.49     0.174 HD
ATOM     12  HH  ARG D 557     -26.280  -3.589 -15.451  1.00 35.49     0.174 HD
ATOM     13  HE  ARG D 557     -27.100  -0.531 -15.520  1.00 35.49     0.178 HD
ENDBRANCH   4   5
ENDBRANCH   3   4
ENDBRANCH   2   3
ENDBRANCH   1   2
END_RES ARG D 557
BEGIN_RES GLU D 570
REMARK  3 active torsions:
REMARK  status: ('A' for Active; 'I' for Inactive)
REMARK    5  A    between atoms: CA   and  CB  
REMARK    6  A    between atoms: CB   and  CG  
REMARK    7  A    between atoms: CG   and  CD  
ROOT
ATOM     14  CA  GLU D 570     -18.033  -6.348 -13.375  1.00 32.92     0.160 C 
ENDROOT
BRANCH  14  15
ATOM     15  CB  GLU D 570     -19.500  -6.345 -13.794  1.00 32.92     0.043 C 
BRANCH  15  16
ATOM     16  CG  GLU D 570     -19.808  -6.003 -15.207  1.00 32.92     0.100 C 
BRANCH  16  17
ATOM     17  CD  GLU D 570     -21.269  -5.691 -15.433  1.00 32.92     0.185 C 
ATOM     18  OE1 GLU D 570     -21.579  -4.799 -16.246  1.00 32.92    -0.647 OA
ATOM     19  OE2 GLU D 570     -22.112  -6.334 -14.777  1.00 32.92    -0.647 OA
ENDBRANCH  16  17
ENDBRANCH  15  16
ENDBRANCH  14  15
END_RES GLU D 570
ENDMDL
MODEL 2
REMARK VINA RESULT:     -10.6      2.480      8.882
REMARK  4 active torsions:
REMARK  status: ('A' for Active; 'I' for Inactive)
REMARK    1  A    between atoms: C_2  and  C_5 
REMARK    2  A    between atoms: C_8  and  C_9 
REMARK    3  A    between atoms: C_10  and  C_11 
REMARK       I    between atoms: C_11  and  N_13 
REMARK    4  A    between atoms: N_13  and  C_14 
ROOT
HETATM    1  C   UNL     1     -21.006  -5.636  -5.660  1.00  0.00     0.245 C 
HETATM    2  O   UNL     1     -20.293  -4.770  -5.173  1.00  0.00    -0.268 OA
HETATM    3  N   UNL     1     -21.629  -6.675  -4.991  1.00  0.00    -0.324 N 
HETATM    4  H   UNL     1     -22.175  -7.317  -5.553  1.00  0.00     0.169 HD
ENDROOT
BRANCH   1   5
HETATM    5  C   UNL     1     -21.314  -5.658  -7.124  1.00  0.00     0.075 C 
HETATM    6  C   UNL     1     -21.719  -4.543  -7.754  1.00  0.00     0.017 C 
BRANCH   6   7
HETATM    7  C   UNL     1     -22.083  -4.458  -9.178  1.00  0.00    -0.036 A 
HETATM    8  C   UNL     1     -21.137  -4.298 -10.193  1.00  0.00     0.012 A 
HETATM    9  C   UNL     1     -21.522  -4.281 -11.544  1.00  0.00     0.009 A 
HETATM   10  C   UNL     1     -22.862  -4.445 -11.936  1.00  0.00    -0.051 A 
HETATM   11  C   UNL     1     -23.804  -4.598 -10.904  1.00  0.00     0.009 A 
HETATM   12  C   UNL     1     -23.421  -4.615  -9.554  1.00  0.00     0.012 A 
BRANCH  10  13
HETATM   13  C   UNL     1     -23.280  -4.410 -13.420  1.00  0.00    -0.024 C 
HETATM   14  C   UNL     1     -22.158  -3.865 -14.337  1.00  0.00     0.019 C 
HETATM   15  C   UNL     1     -24.513  -3.497 -13.564  1.00  0.00     0.019 C 
HETATM   16  C   UNL     1     -23.647  -5.807 -13.975  1.00  0.00     0.019 C 
ENDBRANCH  10  13
ENDBRANCH   6   7
ENDBRANCH   1   5
BRANCH   3  17
HETATM   17  C   UNL     1     -21.632  -6.943  -3.605  1.00  0.00     0.037 A 
HETATM   18  C   UNL     1     -22.183  -6.102  -2.645  1.00  0.00     0.032 A 
HETATM   19  C   UNL     1     -22.196  -6.488  -1.293  1.00  0.00     0.042 A 
HETATM   20  C   UNL     1     -21.654  -7.710  -0.895  1.00  0.00     0.102 A 
HETATM   21  C   UNL     1     -21.044  -8.523  -1.845  1.00  0.00     0.104 A 
HETATM   22  O   UNL     1     -21.783  -8.038   0.420  1.00  0.00    -0.346 OA
HETATM   23  C   UNL     1     -21.052  -8.146  -3.190  1.00  0.00     0.069 A 
HETATM   24  O   UNL     1     -20.395  -9.682  -1.535  1.00  0.00    -0.346 OA
HETATM   25  C   UNL     1     -20.810 -10.233  -0.290  1.00  0.00     0.202 C 
HETATM   26  C   UNL     1     -21.077  -9.213   0.812  1.00  0.00     0.202 C 
ENDBRANCH   3  17
TORSDOF 4
BEGIN_RES ARG D 557
REMARK  4 active torsions:
REMARK  status: ('A' for Active; 'I' for Inactive)
REMARK    1  A    between atoms: CA   and  CB  
REMARK    2  A    between atoms: CB   and  CG  
REMARK    3  A    between atoms: CG   and  CD  
REMARK    4  A    between atoms: CD   and  NE  
REMARK       I    between atoms: NE   and  CZ  
REMARK       I    between atoms: CZ   and  NH1 
REMARK       I    between atoms: CZ   and  NH2 
ROOT
ATOM      1  CA  ARG D 557     -26.217   2.705 -17.014  1.00 35.49     0.159 C 
ENDROOT
BRANCH   1   2
ATOM      2  CB  ARG D 557     -26.789   1.319 -17.183  1.00 35.49     0.034 C 
BRANCH   2   3
ATOM      3  CG  ARG D 557     -28.236   1.225 -17.413  1.00 35.49     0.027 C 
BRANCH   3   4
ATOM      4  CD  ARG D 557     -28.895   0.282 -16.481  1.00 35.49     0.116 C 
BRANCH   4   5
ATOM      5  NE  ARG D 557     -29.277  -0.944 -17.129  1.00 35.49    -0.212 N 
ATOM      6  CZ  ARG D 557     -28.646  -2.093 -17.031  1.00 35.49     0.666 C 
ATOM      7  NH1 ARG D 557     -27.549  -2.241 -16.312  1.00 35.49    -0.235 N 
ATOM      8  NH2 ARG D 557     -29.147  -3.109 -17.672  1.00 35.49    -0.235 N 
ATOM      9  HH  ARG D 557     -27.203  -1.586 -15.880  1.00 35.49     0.174 HD
ATOM     10  HH  ARG D 557     -27.182  -3.015 -16.283  1.00 35.49     0.174 HD
ATOM     11  HH  ARG D 557     -29.860  -2.986 -18.123  1.00 35.49     0.174 HD
ATOM     12  HH  ARG D 557     -28.770  -3.868 -17.630  1.00 35.49     0.174 HD
ATOM     13  HE  ARG D 557     -29.932  -0.923 -17.671  1.00 35.49     0.178 HD
ENDBRANCH   4   5
ENDBRANCH   3   4
ENDBRANCH   2   3
ENDBRANCH   1   2
END_RES ARG D 557
BEGIN_RES GLU D 570
REMARK  3 active torsions:
REMARK  status: ('A' for Active; 'I' for Inactive)
REMARK    5  A    between atoms: CA   and  CB  
REMARK    6  A    between atoms: CB   and  CG  
REMARK    7  A    between atoms: CG   and  CD  
ROOT
ATOM     14  CA  GLU D 570     -18.033  -6.348 -13.375  1.00 32.92     0.160 C 
ENDROOT
BRANCH  14  15
ATOM     15  CB  GLU D 570     -19.500  -6.345 -13.794  1.00 32.92     0.043 C 
BRANCH  15  16
ATOM     16  CG  GLU D 570     -20.090  -7.637 -14.229  1.00 32.92     0.100 C 
BRANCH  16  17
ATOM     17  CD  GLU D 570     -20.694  -7.573 -15.613  1.00 32.92     0.185 C 
ATOM     18  OE1 GLU D 570     -21.187  -8.605 -16.107  1.00 32.92    -0.647 OA
ATOM     19  OE2 GLU D 570     -20.660  -6.482 -16.216  1.00 32.92    -0.647 OA
ENDBRANCH  16  17
ENDBRANCH  15  16
ENDBRANCH  14  15
END_RES GLU D 570
ENDMDL
MODEL 3
REMARK VINA RESULT:     -10.2      4.127      7.261
REMARK  4 active torsions:
REMARK  status: ('A' for Active; 'I' for Inactive)
REMARK    1  A    between atoms: C_2  and  C_5 
REMARK    2  A    between atoms: C_8  and  C_9 
REMARK    3  A    between atoms: C_10  and  C_11 
REMARK       I    between atoms: C_11  and  N_13 
REMARK    4  A    between atoms: N_13  and  C_14 
ROOT
HETATM    1  C   UNL     1     -23.804  -5.024 -14.382  1.00  0.00     0.245 C 
HETATM    2  O   UNL     1     -23.874  -3.905 -14.870  1.00  0.00    -0.268 OA
HETATM    3  N   UNL     1     -24.343  -6.190 -14.895  1.00  0.00    -0.324 N 
HETATM    4  H   UNL     1     -24.204  -7.035 -14.352  1.00  0.00     0.169 HD
ENDROOT
BRANCH   1   5
HETATM    5  C   UNL     1     -23.066  -5.271 -13.104  1.00  0.00     0.075 C 
HETATM    6  C   UNL     1     -22.962  -4.304 -12.177  1.00  0.00     0.017 C 
BRANCH   6   7
HETATM    7  C   UNL     1     -22.232  -4.425 -10.904  1.00  0.00    -0.036 A 
HETATM    8  C   UNL     1     -22.871  -4.639  -9.681  1.00  0.00     0.012 A 
HETATM    9  C   UNL     1     -22.133  -4.807  -8.499  1.00  0.00     0.009 A 
HETATM   10  C   UNL     1     -20.727  -4.792  -8.494  1.00  0.00    -0.051 A 
HETATM   11  C   UNL     1     -20.097  -4.569  -9.730  1.00  0.00     0.009 A 
HETATM   12  C   UNL     1     -20.833  -4.400 -10.913  1.00  0.00     0.012 A 
BRANCH  10  13
HETATM   13  C   UNL     1     -19.922  -4.962  -7.189  1.00  0.00    -0.024 C 
HETATM   14  C   UNL     1     -20.615  -4.297  -5.976  1.00  0.00     0.019 C 
HETATM   15  C   UNL     1     -18.537  -4.312  -7.375  1.00  0.00     0.019 C 
HETATM   16  C   UNL     1     -19.709  -6.446  -6.802  1.00  0.00     0.019 C 
ENDBRANCH  10  13
ENDBRANCH   6   7
ENDBRANCH   1   5
BRANCH   3  17
HETATM   17  C   UNL     1     -25.042  -6.369 -16.108  1.00  0.00     0.037 A 
HETATM   18  C   UNL     1     -26.382  -6.047 -16.296  1.00  0.00     0.032 A 
HETATM   19  C   UNL     1     -26.973  -6.200 -17.563  1.00  0.00     0.042 A 
HETATM   20  C   UNL     1     -26.231  -6.679 -18.642  1.00  0.00     0.102 A 
HETATM   21  C   UNL     1     -24.910  -7.063 -18.440  1.00  0.00     0.104 A 
HETATM   22  O   UNL     1     -26.861  -6.719 -19.849  1.00  0.00    -0.346 OA
HETATM   23  C   UNL     1     -24.320  -6.890 -17.186  1.00  0.00     0.069 A 
HETATM   24  O   UNL     1     -24.140  -7.641 -19.408  1.00  0.00    -0.346 OA
HETATM   25  C   UNL     1     -24.607  -7.367 -20.724  1.00  0.00     0.202 C 
HETATM   26  C   UNL     1     -26.124  -7.363 -20.884  1.00  0.00     0.202 C 
ENDBRANCH   3  17
TORSDOF 4
BEGIN_RES ARG D 557
REMARK  4 active torsions:
REMARK  status: ('A' for Active; 'I' for Inactive)
REMARK    1  A    between atoms: CA   and  CB  
REMARK    2  A    between atoms: CB   and  CG  
REMARK    3  A    between atoms: CG   and  CD  
REMARK    4  A    between atoms: CD   and  NE  
REMARK       I    between atoms: NE   and  CZ  
REMARK       I    between atoms: CZ   and  NH1 
REMARK       I    between atoms: CZ   and  NH2 
ROOT
ATOM      1  CA  ARG D 557     -26.217   2.705 -17.014  1.00 35.49     0.159 C 
ENDROOT
BRANCH   1   2
ATOM      2  CB  ARG D 557     -26.789   1.319 -17.183  1.00 35.49     0.034 C 
BRANCH   2   3
ATOM      3  CG  ARG D 557     -28.247   1.188 -17.075  1.00 35.49     0.027 C 
BRANCH   3   4
ATOM      4  CD  ARG D 557     -28.665  -0.185 -16.711  1.00 35.49     0.116 C 
BRANCH   4   5
ATOM      5  NE  ARG D 557     -27.627  -0.902 -16.019  1.00 35.49    -0.212 N 
ATOM      6  CZ  ARG D 557     -27.419  -2.199 -16.078  1.00 35.49     0.666 C 
ATOM      7  NH1 ARG D 557     -28.177  -3.007 -16.795  1.00 35.49    -0.235 N 
ATOM      8  NH2 ARG D 557     -26.416  -2.677 -15.400  1.00 35.49    -0.235 N 
ATOM      9  HH  ARG D 557     -28.841  -2.714 -17.251  1.00 35.49     0.174 HD
ATOM     10  HH  ARG D 557     -27.992  -3.843 -16.798  1.00 35.49     0.174 HD
ATOM     11  HH  ARG D 557     -25.939  -2.130 -14.952  1.00 35.49     0.174 HD
ATOM     12  HH  ARG D 557     -26.247  -3.508 -15.417  1.00 35.49     0.174 HD
ATOM     13  HE  ARG D 557     -27.136  -0.469 -15.476  1.00 35.49     0.178 HD
ENDBRANCH   4   5
ENDBRANCH   3   4
ENDBRANCH   2   3
ENDBRANCH   1   2
END_RES ARG D 557
BEGIN_RES GLU D 570
REMARK  3 active torsions:
REMARK  status: ('A' for Active; 'I' for Inactive)
REMARK    5  A    between atoms: CA   and  CB  
REMARK    6  A    between atoms: CB   and  CG  
REMARK    7  A    between atoms: CG   and  CD  
ROOT
ATOM     14  CA  GLU D 570     -18.033  -6.348 -13.375  1.00 32.92     0.160 C 
ENDROOT
BRANCH  14  15
ATOM     15  CB  GLU D 570     -19.500  -6.345 -13.794  1.00 32.92     0.043 C 
BRANCH  15  16
ATOM     16  CG  GLU D 570     -20.090  -7.637 -14.229  1.00 32.92     0.100 C 
BRANCH  16  17
ATOM     17  CD  GLU D 570     -20.873  -7.523 -15.517  1.00 32.92     0.185 C 
ATOM     18  OE1 GLU D 570     -21.169  -6.392 -15.947  1.00 32.92    -0.647 OA
ATOM     19  OE2 GLU D 570     -21.209  -8.577 -16.092  1.00 32.92    -0.647 OA
ENDBRANCH  16  17
ENDBRANCH  15  16
ENDBRANCH  14  15
END_RES GLU D 570
ENDMDL
MODEL 4
REMARK VINA RESULT:     -10.1      1.334      2.084
REMARK  4 active torsions:
REMARK  status: ('A' for Active; 'I' for Inactive)
REMARK    1  A    between atoms: C_2  and  C_5 
REMARK    2  A    between atoms: C_8  and  C_9 
REMARK    3  A    between atoms: C_10  and  C_11 
REMARK       I    between atoms: C_11  and  N_13 
REMARK    4  A    between atoms: N_13  and  C_14 
ROOT
HETATM    1  C   UNL     1     -21.284  -4.487  -7.082  1.00  0.00     0.245 C 
HETATM    2  O   UNL     1     -20.465  -3.699  -7.532  1.00  0.00    -0.268 OA
HETATM    3  N   UNL     1     -22.510  -4.818  -7.632  1.00  0.00    -0.324 N 
HETATM    4  H   UNL     1     -23.077  -5.483  -7.118  1.00  0.00     0.169 HD
ENDROOT
BRANCH   1   5
HETATM    5  C   UNL     1     -21.025  -5.241  -5.816  1.00  0.00     0.075 C 
HETATM    6  C   UNL     1     -21.934  -6.106  -5.337  1.00  0.00     0.017 C 
BRANCH   6   7
HETATM    7  C   UNL     1     -21.799  -6.872  -4.086  1.00  0.00    -0.036 A 
HETATM    8  C   UNL     1     -21.952  -6.294  -2.824  1.00  0.00     0.012 A 
HETATM    9  C   UNL     1     -21.872  -7.073  -1.658  1.00  0.00     0.009 A 
HETATM   10  C   UNL     1     -21.660  -8.462  -1.707  1.00  0.00    -0.051 A 
HETATM   11  C   UNL     1     -21.501  -9.029  -2.983  1.00  0.00     0.009 A 
HETATM   12  C   UNL     1     -21.579  -8.252  -4.149  1.00  0.00     0.012 A 
BRANCH  10  13
HETATM   13  C   UNL     1     -21.559  -9.309  -0.422  1.00  0.00    -0.024 C 
HETATM   14  C   UNL     1     -21.283  -8.448   0.833  1.00  0.00     0.019 C 
HETATM   15  C   UNL     1     -20.404 -10.316  -0.584  1.00  0.00     0.019 C 
HETATM   16  C   UNL     1     -22.852 -10.104  -0.122  1.00  0.00     0.019 C 
ENDBRANCH  10  13
ENDBRANCH   6   7
ENDBRANCH   1   5
BRANCH   3  17
HETATM   17  C   UNL     1     -23.071  -4.370  -8.848  1.00  0.00     0.037 A 
HETATM   18  C   UNL     1     -24.236  -3.617  -8.944  1.00  0.00     0.032 A 
HETATM   19  C   UNL     1     -24.680  -3.161 -10.198  1.00  0.00     0.042 A 
HETATM   20  C   UNL     1     -23.965  -3.459 -11.359  1.00  0.00     0.102 A 
HETATM   21  C   UNL     1     -22.836  -4.267 -11.271  1.00  0.00     0.104 A 
HETATM   22  O   UNL     1     -24.422  -2.910 -12.517  1.00  0.00    -0.346 OA
HETATM   23  C   UNL     1     -22.386  -4.700 -10.022  1.00  0.00     0.069 A 
HETATM   24  O   UNL     1     -22.136  -4.698 -12.360  1.00  0.00    -0.346 OA
HETATM   25  C   UNL     1     -22.339  -3.881 -13.508  1.00  0.00     0.202 C 
HETATM   26  C   UNL     1     -23.763  -3.369 -13.694  1.00  0.00     0.202 C 
ENDBRANCH   3  17
TORSDOF 4
BEGIN_RES ARG D 557
REMARK  4 active torsions:
REMARK  status: ('A' for Active; 'I' for Inactive)
REMARK    1  A    between atoms: CA   and  CB  
REMARK    2  A    between atoms: CB   and  CG  
REMARK    3  A    between atoms: CG   and  CD  
REMARK    4  A    between atoms: CD   and  NE  
REMARK       I    between atoms: NE   and  CZ  
REMARK       I    between atoms: CZ   and  NH1 
REMARK       I    between atoms: CZ   and  NH2 
ROOT
ATOM      1  CA  ARG D 557     -26.217   2.705 -17.014  1.00 35.49     0.159 C 
ENDROOT
BRANCH   1   2
ATOM      2  CB  ARG D 557     -26.789   1.319 -17.183  1.00 35.49     0.034 C 
BRANCH   2   3
ATOM      3  CG  ARG D 557     -25.947   0.199 -16.745  1.00 35.49     0.027 C 
BRANCH   3   4
ATOM      4  CD  ARG D 557     -26.724  -0.850 -16.044  1.00 35.49     0.116 C 
BRANCH   4   5
ATOM      5  NE  ARG D 557     -27.967  -1.139 -16.708  1.00 35.49    -0.212 N 
ATOM      6  CZ  ARG D 557     -28.451  -2.338 -16.945  1.00 35.49     0.666 C 
ATOM      7  NH1 ARG D 557     -27.815  -3.441 -16.596  1.00 35.49    -0.235 N 
ATOM      8  NH2 ARG D 557     -29.606  -2.412 -17.540  1.00 35.49    -0.235 N 
ATOM      9  HH  ARG D 557     -27.055  -3.415 -16.201  1.00 35.49     0.174 HD
ATOM     10  HH  ARG D 557     -28.180  -4.195 -16.774  1.00 35.49     0.174 HD
ATOM     11  HH  ARG D 557     -29.997  -1.683 -17.747  1.00 35.49     0.174 HD
ATOM     12  HH  ARG D 557     -29.952  -3.168 -17.706  1.00 35.49     0.174 HD
ATOM     13  HE  ARG D 557     -28.408  -0.488 -17.032  1.00 35.49     0.178 HD
ENDBRANCH   4   5
ENDBRANCH   3   4
ENDBRANCH   2   3
ENDBRANCH   1   2
END_RES ARG D 557
BEGIN_RES GLU D 570
REMARK  3 active torsions:
REMARK  status: ('A' for Active; 'I' for Inactive)
REMARK    5  A    between atoms: CA   and  CB  
REMARK    6  A    between atoms: CB   and  CG  
REMARK    7  A    between atoms: CG   and  CD  
ROOT
ATOM     14  CA  GLU D 570     -18.033  -6.348 -13.375  1.00 32.92     0.160 C 
ENDROOT
BRANCH  14  15
ATOM     15  CB  GLU D 570     -19.500  -6.345 -13.794  1.00 32.92     0.043 C 
BRANCH  15  16
ATOM     16  CG  GLU D 570     -19.797  -6.243 -15.246  1.00 32.92     0.100 C 
BRANCH  16  17
ATOM     17  CD  GLU D 570     -20.758  -7.305 -15.728  1.00 32.92     0.185 C 
ATOM     18  OE1 GLU D 570     -20.603  -8.480 -15.344  1.00 32.92    -0.647 OA
ATOM     19  OE2 GLU D 570     -21.665  -6.961 -16.511  1.00 32.92    -0.647 OA
ENDBRANCH  16  17
ENDBRANCH  15  16
ENDBRANCH  14  15
END_RES GLU D 570
ENDMDL
MODEL 5
REMARK VINA RESULT:     -10.1      4.271      7.068
REMARK  4 active torsions:
REMARK  status: ('A' for Active; 'I' for Inactive)
REMARK    1  A    between atoms: C_2  and  C_5 
REMARK    2  A    between atoms: C_8  and  C_9 
REMARK    3  A    between atoms: C_10  and  C_11 
REMARK       I    between atoms: C_11  and  N_13 
REMARK    4  A    between atoms: N_13  and  C_14 
ROOT
HETATM    1  C   UNL     1     -23.590  -4.844 -14.303  1.00  0.00     0.245 C 
HETATM    2  O   UNL     1     -23.046  -4.845 -15.397  1.00  0.00    -0.268 OA
HETATM    3  N   UNL     1     -24.930  -4.622 -14.040  1.00  0.00    -0.324 N 
HETATM    4  H   UNL     1     -25.215  -4.643 -13.067  1.00  0.00     0.169 HD
ENDROOT
BRANCH   1   5
HETATM    5  C   UNL     1     -22.819  -5.117 -13.050  1.00  0.00     0.075 C 
HETATM    6  C   UNL     1     -22.889  -4.273 -12.007  1.00  0.00     0.017 C 
BRANCH   6   7
HETATM    7  C   UNL     1     -22.147  -4.424 -10.744  1.00  0.00    -0.036 A 
HETATM    8  C   UNL     1     -22.778  -4.634  -9.515  1.00  0.00     0.012 A 
HETATM    9  C   UNL     1     -22.031  -4.831  -8.343  1.00  0.00     0.009 A 
HETATM   10  C   UNL     1     -20.625  -4.850  -8.354  1.00  0.00    -0.051 A 
HETATM   11  C   UNL     1     -20.003  -4.630  -9.595  1.00  0.00     0.009 A 
HETATM   12  C   UNL     1     -20.749  -4.432 -10.768  1.00  0.00     0.012 A 
BRANCH  10  13
HETATM   13  C   UNL     1     -19.810  -5.052  -7.060  1.00  0.00    -0.024 C 
HETATM   14  C   UNL     1     -20.497  -4.423  -5.825  1.00  0.00     0.019 C 
HETATM   15  C   UNL     1     -18.429  -4.390  -7.238  1.00  0.00     0.019 C 
HETATM   16  C   UNL     1     -19.588  -6.544  -6.716  1.00  0.00     0.019 C 
ENDBRANCH  10  13
ENDBRANCH   6   7
ENDBRANCH   1   5
BRANCH   3  17
HETATM   17  C   UNL     1     -25.976  -4.402 -14.963  1.00  0.00     0.037 A 
HETATM   18  C   UNL     1     -26.540  -3.159 -15.227  1.00  0.00     0.032 A 
HETATM   19  C   UNL     1     -27.534  -3.031 -16.214  1.00  0.00     0.042 A 
HETATM   20  C   UNL     1     -27.970  -4.142 -16.935  1.00  0.00     0.102 A 
HETATM   21  C   UNL     1     -27.453  -5.397 -16.628  1.00  0.00     0.104 A 
HETATM   22  O   UNL     1     -28.875  -3.913 -17.926  1.00  0.00    -0.346 OA
HETATM   23  C   UNL     1     -26.451  -5.517 -15.661  1.00  0.00     0.069 A 
HETATM   24  O   UNL     1     -27.894  -6.552 -17.203  1.00  0.00    -0.346 OA
HETATM   25  C   UNL     1     -28.537  -6.336 -18.455  1.00  0.00     0.202 C 
HETATM   26  C   UNL     1     -29.412  -5.089 -18.526  1.00  0.00     0.202 C 
ENDBRANCH   3  17
TORSDOF 4
BEGIN_RES ARG D 557
REMARK  4 active torsions:
REMARK  status: ('A' for Active; 'I' for Inactive)
REMARK    1  A    between atoms: CA   and  CB  
REMARK    2  A    between atoms: CB   and  CG  
REMARK    3  A    between atoms: CG   and  CD  
REMARK    4  A    between atoms: CD   and  NE  
REMARK       I    between atoms: NE   and  CZ  
REMARK       I    between atoms: CZ   and  NH1 
REMARK       I    between atoms: CZ   and  NH2 
ROOT
ATOM      1  CA  ARG D 557     -26.217   2.705 -17.014  1.00 35.49     0.159 C 
ENDROOT
BRANCH   1   2
ATOM      2  CB  ARG D 557     -26.789   1.319 -17.183  1.00 35.49     0.034 C 
BRANCH   2   3
ATOM      3  CG  ARG D 557     -25.837   0.202 -17.143  1.00 35.49     0.027 C 
BRANCH   3   4
ATOM      4  CD  ARG D 557     -24.604   0.538 -16.395  1.00 35.49     0.116 C 
BRANCH   4   5
ATOM      5  NE  ARG D 557     -24.539  -0.136 -15.125  1.00 35.49    -0.212 N 
ATOM      6  CZ  ARG D 557     -23.716  -1.112 -14.815  1.00 35.49     0.666 C 
ATOM      7  NH1 ARG D 557     -22.841  -1.602 -15.674  1.00 35.49    -0.235 N 
ATOM      8  NH2 ARG D 557     -23.781  -1.592 -13.607  1.00 35.49    -0.235 N 
ATOM      9  HH  ARG D 557     -22.779  -1.300 -16.474  1.00 35.49     0.174 HD
ATOM     10  HH  ARG D 557     -22.328  -2.237 -15.415  1.00 35.49     0.174 HD
ATOM     11  HH  ARG D 557     -24.351  -1.251 -13.072  1.00 35.49     0.174 HD
ATOM     12  HH  ARG D 557     -23.264  -2.220 -13.369  1.00 35.49     0.174 HD
ATOM     13  HE  ARG D 557     -25.117   0.067 -14.535  1.00 35.49     0.178 HD
ENDBRANCH   4   5
ENDBRANCH   3   4
ENDBRANCH   2   3
ENDBRANCH   1   2
END_RES ARG D 557
BEGIN_RES GLU D 570
REMARK  3 active torsions:
REMARK  status: ('A' for Active; 'I' for Inactive)
REMARK    5  A    between atoms: CA   and  CB  
REMARK    6  A    between atoms: CB   and  CG  
REMARK    7  A    between atoms: CG   and  CD  
ROOT
ATOM     14  CA  GLU D 570     -18.033  -6.348 -13.375  1.00 32.92     0.160 C 
ENDROOT
BRANCH  14  15
ATOM     15  CB  GLU D 570     -19.500  -6.345 -13.794  1.00 32.92     0.043 C 
BRANCH  15  16
ATOM     16  CG  GLU D 570     -20.084  -7.632 -14.253  1.00 32.92     0.100 C 
BRANCH  16  17
ATOM     17  CD  GLU D 570     -20.708  -7.540 -15.625  1.00 32.92     0.185 C 
ATOM     18  OE1 GLU D 570     -21.414  -8.482 -16.033  1.00 32.92    -0.647 OA
ATOM     19  OE2 GLU D 570     -20.475  -6.522 -16.307  1.00 32.92    -0.647 OA
ENDBRANCH  16  17
ENDBRANCH  15  16
ENDBRANCH  14  15
END_RES GLU D 570
ENDMDL
MODEL 6
REMARK VINA RESULT:      -9.8      2.181      8.753
REMARK  4 active torsions:
REMARK  status: ('A' for Active; 'I' for Inactive)
REMARK    1  A    between atoms: C_2  and  C_5 
REMARK    2  A    between atoms: C_8  and  C_9 
REMARK    3  A    between atoms: C_10  and  C_11 
REMARK       I    between atoms: C_11  and  N_13 
REMARK    4  A    between atoms: N_13  and  C_14 
ROOT
HETATM    1  C   UNL     1     -20.412  -5.257  -6.667  1.00  0.00     0.245 C 
HETATM    2  O   UNL     1     -20.004  -4.409  -5.887  1.00  0.00    -0.268 OA
HETATM    3  N   UNL     1     -20.710  -6.577  -6.380  1.00  0.00    -0.324 N 
HETATM    4  H   UNL     1     -21.025  -7.153  -7.153  1.00  0.00     0.169 HD
ENDROOT
BRANCH   1   5
HETATM    5  C   UNL     1     -20.666  -4.933  -8.106  1.00  0.00     0.075 C 
HETATM    6  C   UNL     1     -21.830  -4.382  -8.487  1.00  0.00     0.017 C 
BRANCH   6   7
HETATM    7  C   UNL     1     -22.199  -4.056  -9.875  1.00  0.00    -0.036 A 
HETATM    8  C   UNL     1     -21.370  -4.335 -10.965  1.00  0.00     0.012 A 
HETATM    9  C   UNL     1     -21.786  -4.060 -12.278  1.00  0.00     0.009 A 
HETATM   10  C   UNL     1     -23.053  -3.518 -12.557  1.00  0.00    -0.051 A 
HETATM   11  C   UNL     1     -23.873  -3.236 -11.451  1.00  0.00     0.009 A 
HETATM   12  C   UNL     1     -23.459  -3.509 -10.138  1.00  0.00     0.012 A 
BRANCH  10  13
HETATM   13  C   UNL     1     -23.498  -3.205 -14.000  1.00  0.00    -0.024 C 
HETATM   14  C   UNL     1     -24.849  -3.868 -14.359  1.00  0.00     0.019 C 
HETATM   15  C   UNL     1     -22.424  -3.733 -14.972  1.00  0.00     0.019 C 
HETATM   16  C   UNL     1     -23.679  -1.691 -14.259  1.00  0.00     0.019 C 
ENDBRANCH  10  13
ENDBRANCH   6   7
ENDBRANCH   1   5
BRANCH   3  17
HETATM   17  C   UNL     1     -20.664  -7.230  -5.130  1.00  0.00     0.037 A 
HETATM   18  C   UNL     1     -19.811  -8.286  -4.827  1.00  0.00     0.032 A 
HETATM   19  C   UNL     1     -19.793  -8.828  -3.529  1.00  0.00     0.042 A 
HETATM   20  C   UNL     1     -20.630  -8.323  -2.534  1.00  0.00     0.102 A 
HETATM   21  C   UNL     1     -21.530  -7.311  -2.853  1.00  0.00     0.104 A 
HETATM   22  O   UNL     1     -20.489  -8.853  -1.288  1.00  0.00    -0.346 OA
HETATM   23  C   UNL     1     -21.530  -6.761  -4.137  1.00  0.00     0.069 A 
HETATM   24  O   UNL     1     -22.458  -6.829  -1.977  1.00  0.00    -0.346 OA
HETATM   25  C   UNL     1     -22.115  -7.071  -0.617  1.00  0.00     0.202 C 
HETATM   26  C   UNL     1     -21.468  -8.425  -0.345  1.00  0.00     0.202 C 
ENDBRANCH   3  17
TORSDOF 4
BEGIN_RES ARG D 557
REMARK  4 active torsions:
REMARK  status: ('A' for Active; 'I' for Inactive)
REMARK    1  A    between atoms: CA   and  CB  
REMARK    2  A    between atoms: CB   and  CG  
REMARK    3  A    between atoms: CG   and  CD  
REMARK    4  A    between atoms: CD   and  NE  
REMARK       I    between atoms: NE   and  CZ  
REMARK       I    between atoms: CZ   and  NH1 
REMARK       I    between atoms: CZ   and  NH2 
ROOT
ATOM      1  CA  ARG D 557     -26.217   2.705 -17.014  1.00 35.49     0.159 C 
ENDROOT
BRANCH   1   2
ATOM      2  CB  ARG D 557     -26.789   1.319 -17.183  1.00 35.49     0.034 C 
BRANCH   2   3
ATOM      3  CG  ARG D 557     -25.965   0.202 -16.706  1.00 35.49     0.027 C 
BRANCH   3   4
ATOM      4  CD  ARG D 557     -26.769  -0.849 -16.041  1.00 35.49     0.116 C 
BRANCH   4   5
ATOM      5  NE  ARG D 557     -28.013  -1.093 -16.722  1.00 35.49    -0.212 N 
ATOM      6  CZ  ARG D 557     -28.535  -2.274 -16.968  1.00 35.49     0.666 C 
ATOM      7  NH1 ARG D 557     -27.941  -3.399 -16.615  1.00 35.49    -0.235 N 
ATOM      8  NH2 ARG D 557     -29.683  -2.307 -17.580  1.00 35.49    -0.235 N 
ATOM      9  HH  ARG D 557     -27.186  -3.401 -16.210  1.00 35.49     0.174 HD
ATOM     10  HH  ARG D 557     -28.331  -4.140 -16.800  1.00 35.49     0.174 HD
ATOM     11  HH  ARG D 557     -30.047  -1.564 -17.789  1.00 35.49     0.174 HD
ATOM     12  HH  ARG D 557     -30.053  -3.050 -17.752  1.00 35.49     0.174 HD
ATOM     13  HE  ARG D 557     -28.427  -0.426 -17.049  1.00 35.49     0.178 HD
ENDBRANCH   4   5
ENDBRANCH   3   4
ENDBRANCH   2   3
ENDBRANCH   1   2
END_RES ARG D 557
BEGIN_RES GLU D 570
REMARK  3 active torsions:
REMARK  status: ('A' for Active; 'I' for Inactive)
REMARK    5  A    between atoms: CA   and  CB  
REMARK    6  A    between atoms: CB   and  CG  
REMARK    7  A    between atoms: CG   and  CD  
ROOT
ATOM     14  CA  GLU D 570     -18.033  -6.348 -13.375  1.00 32.92     0.160 C 
ENDROOT
BRANCH  14  15
ATOM     15  CB  GLU D 570     -19.500  -6.345 -13.794  1.00 32.92     0.043 C 
BRANCH  15  16
ATOM     16  CG  GLU D 570     -19.796  -6.280 -15.248  1.00 32.92     0.100 C 
BRANCH  16  17
ATOM     17  CD  GLU D 570     -20.797  -7.321 -15.693  1.00 32.92     0.185 C 
ATOM     18  OE1 GLU D 570     -20.608  -8.513 -15.385  1.00 32.92    -0.647 OA
ATOM     19  OE2 GLU D 570     -21.773  -6.942 -16.370  1.00 32.92    -0.647 OA
ENDBRANCH  16  17
ENDBRANCH  15  16
ENDBRANCH  14  15
END_RES GLU D 570
ENDMDL
MODEL 7
REMARK VINA RESULT:      -9.5      4.141      7.120
REMARK  4 active torsions:
REMARK  status: ('A' for Active; 'I' for Inactive)
REMARK    1  A    between atoms: C_2  and  C_5 
REMARK    2  A    between atoms: C_8  and  C_9 
REMARK    3  A    between atoms: C_10  and  C_11 
REMARK       I    between atoms: C_11  and  N_13 
REMARK    4  A    between atoms: N_13  and  C_14 
ROOT
HETATM    1  C   UNL     1     -24.164  -4.492 -14.242  1.00  0.00     0.245 C 
HETATM    2  O   UNL     1     -24.341  -3.388 -14.736  1.00  0.00    -0.268 OA
HETATM    3  N   UNL     1     -24.757  -5.681 -14.629  1.00  0.00    -0.324 N 
HETATM    4  H   UNL     1     -24.508  -6.509 -14.099  1.00  0.00     0.169 HD
ENDROOT
BRANCH   1   5
HETATM    5  C   UNL     1     -23.212  -4.693 -13.105  1.00  0.00     0.075 C 
HETATM    6  C   UNL     1     -23.517  -4.251 -11.874  1.00  0.00     0.017 C 
BRANCH   6   7
HETATM    7  C   UNL     1     -22.643  -4.362 -10.693  1.00  0.00    -0.036 A 
HETATM    8  C   UNL     1     -23.137  -4.523  -9.397  1.00  0.00     0.012 A 
HETATM    9  C   UNL     1     -22.268  -4.684  -8.306  1.00  0.00     0.009 A 
HETATM   10  C   UNL     1     -20.871  -4.714  -8.469  1.00  0.00    -0.051 A 
HETATM   11  C   UNL     1     -20.387  -4.544  -9.777  1.00  0.00     0.009 A 
HETATM   12  C   UNL     1     -21.255  -4.382 -10.868  1.00  0.00     0.012 A 
BRANCH  10  13
HETATM   13  C   UNL     1     -19.921  -4.876  -7.265  1.00  0.00    -0.024 C 
HETATM   14  C   UNL     1     -18.554  -4.190  -7.495  1.00  0.00     0.019 C 
HETATM   15  C   UNL     1     -19.678  -6.379  -7.027  1.00  0.00     0.019 C 
HETATM   16  C   UNL     1     -20.492  -4.268  -5.961  1.00  0.00     0.019 C 
ENDBRANCH  10  13
ENDBRANCH   6   7
ENDBRANCH   1   5
BRANCH   3  17
HETATM   17  C   UNL     1     -25.649  -5.904 -15.699  1.00  0.00     0.037 A 
HETATM   18  C   UNL     1     -25.261  -6.299 -16.975  1.00  0.00     0.032 A 
HETATM   19  C   UNL     1     -26.232  -6.560 -17.958  1.00  0.00     0.042 A 
HETATM   20  C   UNL     1     -27.590  -6.423 -17.673  1.00  0.00     0.102 A 
HETATM   21  C   UNL     1     -27.977  -5.965 -16.418  1.00  0.00     0.104 A 
HETATM   22  O   UNL     1     -28.462  -6.774 -18.658  1.00  0.00    -0.346 OA
HETATM   23  C   UNL     1     -27.012  -5.727 -15.437  1.00  0.00     0.069 A 
HETATM   24  O   UNL     1     -29.273  -5.699 -16.083  1.00  0.00    -0.346 OA
HETATM   25  C   UNL     1     -30.210  -6.378 -16.911  1.00  0.00     0.202 C 
HETATM   26  C   UNL     1     -29.826  -6.466 -18.384  1.00  0.00     0.202 C 
ENDBRANCH   3  17
TORSDOF 4
BEGIN_RES ARG D 557
REMARK  4 active torsions:
REMARK  status: ('A' for Active; 'I' for Inactive)
REMARK    1  A    between atoms: CA   and  CB  
REMARK    2  A    between atoms: CB   and  CG  
REMARK    3  A    between atoms: CG   and  CD  
REMARK    4  A    between atoms: CD   and  NE  
REMARK       I    between atoms: NE   and  CZ  
REMARK       I    between atoms: CZ   and  NH1 
REMARK       I    between atoms: CZ   and  NH2 
ROOT
ATOM      1  CA  ARG D 557     -26.217   2.705 -17.014  1.00 35.49     0.159 C 
ENDROOT
BRANCH   1   2
ATOM      2  CB  ARG D 557     -26.789   1.319 -17.183  1.00 35.49     0.034 C 
BRANCH   2   3
ATOM      3  CG  ARG D 557     -28.226   1.228 -17.468  1.00 35.49     0.027 C 
BRANCH   3   4
ATOM      4  CD  ARG D 557     -28.934   0.337 -16.520  1.00 35.49     0.116 C 
BRANCH   4   5
ATOM      5  NE  ARG D 557     -29.333  -0.902 -17.133  1.00 35.49    -0.212 N 
ATOM      6  CZ  ARG D 557     -28.688  -2.044 -17.047  1.00 35.49     0.666 C 
ATOM      7  NH1 ARG D 557     -27.559  -2.172 -16.375  1.00 35.49    -0.235 N 
ATOM      8  NH2 ARG D 557     -29.207  -3.073 -17.651  1.00 35.49    -0.235 N 
ATOM      9  HH  ARG D 557     -27.201  -1.508 -15.969  1.00 35.49     0.174 HD
ATOM     10  HH  ARG D 557     -27.185  -2.942 -16.352  1.00 35.49     0.174 HD
ATOM     11  HH  ARG D 557     -29.941  -2.962 -18.072  1.00 35.49     0.174 HD
ATOM     12  HH  ARG D 557     -28.822  -3.828 -17.615  1.00 35.49     0.174 HD
ATOM     13  HE  ARG D 557     -30.011  -0.893 -17.646  1.00 35.49     0.178 HD
ENDBRANCH   4   5
ENDBRANCH   3   4
ENDBRANCH   2   3
ENDBRANCH   1   2
END_RES ARG D 557
BEGIN_RES GLU D 570
REMARK  3 active torsions:
REMARK  status: ('A' for Active; 'I' for Inactive)
REMARK    5  A    between atoms: CA   and  CB  
REMARK    6  A    between atoms: CB   and  CG  
REMARK    7  A    between atoms: CG   and  CD  
ROOT
ATOM     14  CA  GLU D 570     -18.033  -6.348 -13.375  1.00 32.92     0.160 C 
ENDROOT
BRANCH  14  15
ATOM     15  CB  GLU D 570     -19.500  -6.345 -13.794  1.00 32.92     0.043 C 
BRANCH  15  16
ATOM     16  CG  GLU D 570     -19.849  -5.648 -15.059  1.00 32.92     0.100 C 
BRANCH  16  17
ATOM     17  CD  GLU D 570     -21.164  -6.111 -15.643  1.00 32.92     0.185 C 
ATOM     18  OE1 GLU D 570     -21.763  -7.062 -15.106  1.00 32.92    -0.647 OA
ATOM     19  OE2 GLU D 570     -21.591  -5.525 -16.658  1.00 32.92    -0.647 OA
ENDBRANCH  16  17
ENDBRANCH  15  16
ENDBRANCH  14  15
END_RES GLU D 570
ENDMDL
MODEL 8
REMARK VINA RESULT:      -9.0      3.097      8.993
REMARK  4 active torsions:
REMARK  status: ('A' for Active; 'I' for Inactive)
REMARK    1  A    between atoms: C_2  and  C_5 
REMARK    2  A    between atoms: C_8  and  C_9 
REMARK    3  A    between atoms: C_10  and  C_11 
REMARK       I    between atoms: C_11  and  N_13 
REMARK    4  A    between atoms: N_13  and  C_14 
ROOT
HETATM    1  C   UNL     1     -21.784  -6.663  -3.954  1.00  0.00     0.245 C 
HETATM    2  O   UNL     1     -21.604  -5.804  -3.104  1.00  0.00    -0.268 OA
HETATM    3  N   UNL     1     -21.730  -8.035  -3.776  1.00  0.00    -0.324 N 
HETATM    4  H   UNL     1     -21.891  -8.609  -4.596  1.00  0.00     0.169 HD
ENDROOT
BRANCH   1   5
HETATM    5  C   UNL     1     -22.122  -6.302  -5.366  1.00  0.00     0.075 C 
HETATM    6  C   UNL     1     -21.491  -5.289  -5.982  1.00  0.00     0.017 C 
BRANCH   6   7
HETATM    7  C   UNL     1     -21.768  -4.826  -7.353  1.00  0.00    -0.036 A 
HETATM    8  C   UNL     1     -20.809  -4.848  -8.368  1.00  0.00     0.012 A 
HETATM    9  C   UNL     1     -21.131  -4.451  -9.676  1.00  0.00     0.009 A 
HETATM   10  C   UNL     1     -22.429  -4.041 -10.028  1.00  0.00    -0.051 A 
HETATM   11  C   UNL     1     -23.382  -4.018  -8.996  1.00  0.00     0.009 A 
HETATM   12  C   UNL     1     -23.061  -4.413  -7.688  1.00  0.00     0.012 A 
BRANCH  10  13
HETATM   13  C   UNL     1     -22.773  -3.593 -11.463  1.00  0.00    -0.024 C 
HETATM   14  C   UNL     1     -24.252  -3.162 -11.609  1.00  0.00     0.019 C 
HETATM   15  C   UNL     1     -22.512  -4.771 -12.423  1.00  0.00     0.019 C 
HETATM   16  C   UNL     1     -21.926  -2.388 -11.937  1.00  0.00     0.019 C 
ENDBRANCH  10  13
ENDBRANCH   6   7
ENDBRANCH   1   5
BRANCH   3  17
HETATM   17  C   UNL     1     -21.510  -8.751  -2.580  1.00  0.00     0.037 A 
HETATM   18  C   UNL     1     -20.994  -8.193  -1.415  1.00  0.00     0.032 A 
HETATM   19  C   UNL     1     -20.874  -8.975  -0.252  1.00  0.00     0.042 A 
HETATM   20  C   UNL     1     -21.263 -10.314  -0.250  1.00  0.00     0.102 A 
HETATM   21  C   UNL     1     -21.718 -10.890  -1.431  1.00  0.00     0.104 A 
HETATM   22  O   UNL     1     -21.187 -10.972   0.940  1.00  0.00    -0.346 OA
HETATM   23  C   UNL     1     -21.856 -10.106  -2.579  1.00  0.00     0.069 A 
HETATM   24  O   UNL     1     -22.019 -12.216  -1.552  1.00  0.00    -0.346 OA
HETATM   25  C   UNL     1     -22.306 -12.835  -0.303  1.00  0.00     0.202 C 
HETATM   26  C   UNL     1     -21.438 -12.373   0.863  1.00  0.00     0.202 C 
ENDBRANCH   3  17
TORSDOF 4
BEGIN_RES ARG D 557
REMARK  4 active torsions:
REMARK  status: ('A' for Active; 'I' for Inactive)
REMARK    1  A    between atoms: CA   and  CB  
REMARK    2  A    between atoms: CB   and  CG  
REMARK    3  A    between atoms: CG   and  CD  
REMARK    4  A    between atoms: CD   and  NE  
REMARK       I    between atoms: NE   and  CZ  
REMARK       I    between atoms: CZ   and  NH1 
REMARK       I    between atoms: CZ   and  NH2 
ROOT
ATOM      1  CA  ARG D 557     -26.217   2.705 -17.014  1.00 35.49     0.159 C 
ENDROOT
BRANCH   1   2
ATOM      2  CB  ARG D 557     -26.789   1.319 -17.183  1.00 35.49     0.034 C 
BRANCH   2   3
ATOM      3  CG  ARG D 557     -28.231   1.226 -17.440  1.00 35.49     0.027 C 
BRANCH   3   4
ATOM      4  CD  ARG D 557     -28.914   0.309 -16.500  1.00 35.49     0.116 C 
BRANCH   4   5
ATOM      5  NE  ARG D 557     -29.293  -0.929 -17.128  1.00 35.49    -0.212 N 
ATOM      6  CZ  ARG D 557     -28.650  -2.071 -17.025  1.00 35.49     0.666 C 
ATOM      7  NH1 ARG D 557     -27.542  -2.200 -16.318  1.00 35.49    -0.235 N 
ATOM      8  NH2 ARG D 557     -29.149  -3.099 -17.647  1.00 35.49    -0.235 N 
ATOM      9  HH  ARG D 557     -27.197  -1.537 -15.899  1.00 35.49     0.174 HD
ATOM     10  HH  ARG D 557     -27.168  -2.970 -16.285  1.00 35.49     0.174 HD
ATOM     11  HH  ARG D 557     -29.870  -2.988 -18.090  1.00 35.49     0.174 HD
ATOM     12  HH  ARG D 557     -28.765  -3.854 -17.601  1.00 35.49     0.174 HD
ATOM     13  HE  ARG D 557     -29.955  -0.920 -17.662  1.00 35.49     0.178 HD
ENDBRANCH   4   5
ENDBRANCH   3   4
ENDBRANCH   2   3
ENDBRANCH   1   2
END_RES ARG D 557
BEGIN_RES GLU D 570
REMARK  3 active torsions:
REMARK  status: ('A' for Active; 'I' for Inactive)
REMARK    5  A    between atoms: CA   and  CB  
REMARK    6  A    between atoms: CB   and  CG  
REMARK    7  A    between atoms: CG   and  CD  
ROOT
ATOM     14  CA  GLU D 570     -18.033  -6.348 -13.375  1.00 32.92     0.160 C 
ENDROOT
BRANCH  14  15
ATOM     15  CB  GLU D 570     -19.500  -6.345 -13.794  1.00 32.92     0.043 C 
BRANCH  15  16
ATOM     16  CG  GLU D 570     -20.088  -7.635 -14.239  1.00 32.92     0.100 C 
BRANCH  16  17
ATOM     17  CD  GLU D 570     -20.999  -7.486 -15.434  1.00 32.92     0.185 C 
ATOM     18  OE1 GLU D 570     -21.212  -8.476 -16.160  1.00 32.92    -0.647 OA
ATOM     19  OE2 GLU D 570     -21.493  -6.363 -15.657  1.00 32.92    -0.647 OA
ENDBRANCH  16  17
ENDBRANCH  15  16
ENDBRANCH  14  15
END_RES GLU D 570
ENDMDL
