MODEL 1
REMARK VINA RESULT:      -9.7      0.000      0.000
REMARK  4 active torsions:
REMARK  status: ('A' for Active; 'I' for Inactive)
REMARK    1  A    between atoms: O_2  and  C_3 
REMARK    2  A    between atoms: C_7  and  N_8 
REMARK       I    between atoms: N_8  and  C_9 
REMARK    3  A    between atoms: C_9  and  C_11 
REMARK    4  A    between atoms: C_12  and  C_13 
ROOT
HETATM    1  N   UNL     1     -21.310  -4.539  -7.132  1.00  0.00    -0.324 N 
HETATM    2  C   UNL     1     -20.777  -5.683  -6.568  1.00  0.00     0.245 C 
HETATM    3  O   UNL     1     -20.293  -6.634  -7.169  1.00  0.00    -0.268 OA
HETATM    4  H   UNL     1     -21.654  -3.814  -6.517  1.00  0.00     0.169 HD
ENDROOT
BRANCH   2   5
HETATM    5  C   UNL     1     -20.820  -5.700  -5.076  1.00  0.00     0.075 C 
HETATM    6  C   UNL     1     -21.131  -6.871  -4.489  1.00  0.00     0.017 C 
BRANCH   6   7
HETATM    7  C   UNL     1     -21.261  -7.129  -3.050  1.00  0.00    -0.036 A 
HETATM    8  C   UNL     1     -22.154  -6.426  -2.236  1.00  0.00     0.013 A 
HETATM    9  C   UNL     1     -22.301  -6.765  -0.886  1.00  0.00     0.024 A 
HETATM   10  C   UNL     1     -21.562  -7.816  -0.348  1.00  0.00     0.034 A 
HETATM   11 CL   UNL     1     -21.759  -8.242   1.307  1.00  0.00    -0.084 Cl
HETATM   12  C   UNL     1     -20.678  -8.533  -1.146  1.00  0.00     0.024 A 
HETATM   13  C   UNL     1     -20.531  -8.193  -2.494  1.00  0.00     0.013 A 
ENDBRANCH   6   7
ENDBRANCH   2   5
BRANCH   1  14
HETATM   14  C   UNL     1     -21.371  -4.258  -8.523  1.00  0.00     0.037 A 
HETATM   15  C   UNL     1     -20.253  -4.308  -9.361  1.00  0.00     0.029 A 
HETATM   16  C   UNL     1     -20.349  -3.976 -10.710  1.00  0.00     0.005 A 
HETATM   17  C   UNL     1     -21.571  -3.593 -11.251  1.00  0.00     0.037 A 
HETATM   18  C   UNL     1     -22.707  -3.557 -10.444  1.00  0.00     0.070 A 
HETATM   19  C   UNL     1     -22.605  -3.898  -9.085  1.00  0.00     0.066 A 
BRANCH  18  20
HETATM   20  O   UNL     1     -23.960  -3.198 -10.868  1.00  0.00    -0.356 OA
HETATM   21  C   UNL     1     -25.014  -3.347  -9.918  1.00  0.00     0.210 C 
ENDBRANCH  18  20
ENDBRANCH   1  14
TORSDOF 4
BEGIN_RES ARG D 557
REMARK  4 active torsions:
REMARK  status: ('A' for Active; 'I' for Inactive)
REMARK    1  A    between atoms: CA   and  CB  
REMARK    2  A    between atoms: CB   and  CG  
REMARK    3  A    between atoms: CG   and  CD  
REMARK    4  A    between atoms: CD   and  NE  
REMARK       I    between atoms: NE   and  CZ  
REMARK       I    between atoms: CZ   and  NH1 
REMARK       I    between atoms: CZ   and  NH2 
ROOT
ATOM      1  CA  ARG D 557     -26.217   2.705 -17.014  1.00 35.49     0.159 C 
ENDROOT
BRANCH   1   2
ATOM      2  CB  ARG D 557     -26.789   1.319 -17.183  1.00 35.49     0.034 C 
BRANCH   2   3
ATOM      3  CG  ARG D 557     -25.868   0.195 -16.979  1.00 35.49     0.027 C 
BRANCH   3   4
ATOM      4  CD  ARG D 557     -26.292  -0.688 -15.869  1.00 35.49     0.116 C 
BRANCH   4   5
ATOM      5  NE  ARG D 557     -25.232  -0.917 -14.922  1.00 35.49    -0.212 N 
ATOM      6  CZ  ARG D 557     -24.936  -2.069 -14.364  1.00 35.49     0.666 C 
ATOM      7  NH1 ARG D 557     -25.615  -3.173 -14.614  1.00 35.49    -0.235 N 
ATOM      8  NH2 ARG D 557     -23.927  -2.096 -13.543  1.00 35.49    -0.235 N 
ATOM      9  HH  ARG D 557     -26.281  -3.179 -15.152  1.00 35.49     0.174 HD
ATOM     10  HH  ARG D 557     -25.374  -3.897 -14.222  1.00 35.49     0.174 HD
ATOM     11  HH  ARG D 557     -23.502  -1.369 -13.406  1.00 35.49     0.174 HD
ATOM     12  HH  ARG D 557     -23.703  -2.822 -13.166  1.00 35.49     0.174 HD
ATOM     13  HE  ARG D 557     -24.789  -0.244 -14.648  1.00 35.49     0.178 HD
ENDBRANCH   4   5
ENDBRANCH   3   4
ENDBRANCH   2   3
ENDBRANCH   1   2
END_RES ARG D 557
BEGIN_RES GLU D 570
REMARK  3 active torsions:
REMARK  status: ('A' for Active; 'I' for Inactive)
REMARK    5  A    between atoms: CA   and  CB  
REMARK    6  A    between atoms: CB   and  CG  
REMARK    7  A    between atoms: CG   and  CD  
ROOT
ATOM     14  CA  GLU D 570     -18.033  -6.348 -13.375  1.00 32.92     0.160 C 
ENDROOT
BRANCH  14  15
ATOM     15  CB  GLU D 570     -19.500  -6.345 -13.794  1.00 32.92     0.043 C 
BRANCH  15  16
ATOM     16  CG  GLU D 570     -19.801  -6.108 -15.229  1.00 32.92     0.100 C 
BRANCH  16  17
ATOM     17  CD  GLU D 570     -21.114  -5.390 -15.445  1.00 32.92     0.185 C 
ATOM     18  OE1 GLU D 570     -21.450  -5.079 -16.604  1.00 32.92    -0.647 OA
ATOM     19  OE2 GLU D 570     -21.805  -5.122 -14.443  1.00 32.92    -0.647 OA
ENDBRANCH  16  17
ENDBRANCH  15  16
ENDBRANCH  14  15
END_RES GLU D 570
ENDMDL
MODEL 2
REMARK VINA RESULT:      -9.6      1.200      1.406
REMARK  4 active torsions:
REMARK  status: ('A' for Active; 'I' for Inactive)
REMARK    1  A    between atoms: O_2  and  C_3 
REMARK    2  A    between atoms: C_7  and  N_8 
REMARK       I    between atoms: N_8  and  C_9 
REMARK    3  A    between atoms: C_9  and  C_11 
REMARK    4  A    between atoms: C_12  and  C_13 
ROOT
HETATM    1  N   UNL     1     -21.635  -4.379  -7.266  1.00  0.00    -0.324 N 
HETATM    2  C   UNL     1     -21.128  -5.535  -6.701  1.00  0.00     0.245 C 
HETATM    3  O   UNL     1     -20.653  -6.491  -7.303  1.00  0.00    -0.268 OA
HETATM    4  H   UNL     1     -21.973  -3.650  -6.650  1.00  0.00     0.169 HD
ENDROOT
BRANCH   2   5
HETATM    5  C   UNL     1     -21.189  -5.559  -5.210  1.00  0.00     0.075 C 
HETATM    6  C   UNL     1     -21.234  -6.769  -4.623  1.00  0.00     0.017 C 
BRANCH   6   7
HETATM    7  C   UNL     1     -21.323  -7.049  -3.185  1.00  0.00    -0.036 A 
HETATM    8  C   UNL     1     -22.157  -6.324  -2.327  1.00  0.00     0.013 A 
HETATM    9  C   UNL     1     -22.270  -6.682  -0.979  1.00  0.00     0.024 A 
HETATM   10  C   UNL     1     -21.557  -7.773  -0.486  1.00  0.00     0.034 A 
HETATM   11 CL   UNL     1     -21.713  -8.220   1.168  1.00  0.00    -0.084 Cl
HETATM   12  C   UNL     1     -20.733  -8.511  -1.328  1.00  0.00     0.024 A 
HETATM   13  C   UNL     1     -20.620  -8.152  -2.673  1.00  0.00     0.013 A 
ENDBRANCH   6   7
ENDBRANCH   2   5
BRANCH   1  14
HETATM   14  C   UNL     1     -21.675  -4.089  -8.656  1.00  0.00     0.037 A 
HETATM   15  C   UNL     1     -20.544  -4.135  -9.477  1.00  0.00     0.029 A 
HETATM   16  C   UNL     1     -20.618  -3.794 -10.825  1.00  0.00     0.005 A 
HETATM   17  C   UNL     1     -21.832  -3.407 -11.382  1.00  0.00     0.037 A 
HETATM   18  C   UNL     1     -22.980  -3.373 -10.592  1.00  0.00     0.070 A 
HETATM   19  C   UNL     1     -22.899  -3.723  -9.233  1.00  0.00     0.066 A 
BRANCH  18  20
HETATM   20  O   UNL     1     -24.226  -3.009 -11.033  1.00  0.00    -0.356 OA
HETATM   21  C   UNL     1     -24.416  -2.998 -12.447  1.00  0.00     0.210 C 
ENDBRANCH  18  20
ENDBRANCH   1  14
TORSDOF 4
BEGIN_RES ARG D 557
REMARK  4 active torsions:
REMARK  status: ('A' for Active; 'I' for Inactive)
REMARK    1  A    between atoms: CA   and  CB  
REMARK    2  A    between atoms: CB   and  CG  
REMARK    3  A    between atoms: CG   and  CD  
REMARK    4  A    between atoms: CD   and  NE  
REMARK       I    between atoms: NE   and  CZ  
REMARK       I    between atoms: CZ   and  NH1 
REMARK       I    between atoms: CZ   and  NH2 
ROOT
ATOM      1  CA  ARG D 557     -26.217   2.705 -17.014  1.00 35.49     0.159 C 
ENDROOT
BRANCH   1   2
ATOM      2  CB  ARG D 557     -26.789   1.319 -17.183  1.00 35.49     0.034 C 
BRANCH   2   3
ATOM      3  CG  ARG D 557     -28.235   1.171 -16.975  1.00 35.49     0.027 C 
BRANCH   3   4
ATOM      4  CD  ARG D 557     -28.628  -0.235 -16.729  1.00 35.49     0.116 C 
BRANCH   4   5
ATOM      5  NE  ARG D 557     -27.609  -0.968 -16.025  1.00 35.49    -0.212 N 
ATOM      6  CZ  ARG D 557     -27.417  -2.267 -16.086  1.00 35.49     0.666 C 
ATOM      7  NH1 ARG D 557     -28.176  -3.063 -16.815  1.00 35.49    -0.235 N 
ATOM      8  NH2 ARG D 557     -26.429  -2.761 -15.396  1.00 35.49    -0.235 N 
ATOM      9  HH  ARG D 557     -28.830  -2.760 -17.279  1.00 35.49     0.174 HD
ATOM     10  HH  ARG D 557     -28.002  -3.902 -16.818  1.00 35.49     0.174 HD
ATOM     11  HH  ARG D 557     -25.951  -2.222 -14.940  1.00 35.49     0.174 HD
ATOM     12  HH  ARG D 557     -26.272  -3.593 -15.414  1.00 35.49     0.174 HD
ATOM     13  HE  ARG D 557     -27.120  -0.544 -15.475  1.00 35.49     0.178 HD
ENDBRANCH   4   5
ENDBRANCH   3   4
ENDBRANCH   2   3
ENDBRANCH   1   2
END_RES ARG D 557
BEGIN_RES GLU D 570
REMARK  3 active torsions:
REMARK  status: ('A' for Active; 'I' for Inactive)
REMARK    5  A    between atoms: CA   and  CB  
REMARK    6  A    between atoms: CB   and  CG  
REMARK    7  A    between atoms: CG   and  CD  
ROOT
ATOM     14  CA  GLU D 570     -18.033  -6.348 -13.375  1.00 32.92     0.160 C 
ENDROOT
BRANCH  14  15
ATOM     15  CB  GLU D 570     -19.500  -6.345 -13.794  1.00 32.92     0.043 C 
BRANCH  15  16
ATOM     16  CG  GLU D 570     -19.809  -5.982 -15.201  1.00 32.92     0.100 C 
BRANCH  16  17
ATOM     17  CD  GLU D 570     -21.191  -5.393 -15.368  1.00 32.92     0.185 C 
ATOM     18  OE1 GLU D 570     -21.602  -5.131 -16.514  1.00 32.92    -0.647 OA
ATOM     19  OE2 GLU D 570     -21.861  -5.175 -14.340  1.00 32.92    -0.647 OA
ENDBRANCH  16  17
ENDBRANCH  15  16
ENDBRANCH  14  15
END_RES GLU D 570
ENDMDL
MODEL 3
REMARK VINA RESULT:      -8.8      3.491      7.286
REMARK  4 active torsions:
REMARK  status: ('A' for Active; 'I' for Inactive)
REMARK    1  A    between atoms: O_2  and  C_3 
REMARK    2  A    between atoms: C_7  and  N_8 
REMARK       I    between atoms: N_8  and  C_9 
REMARK    3  A    between atoms: C_9  and  C_11 
REMARK    4  A    between atoms: C_12  and  C_13 
ROOT
HETATM    1  N   UNL     1     -21.797  -5.723  -5.365  1.00  0.00    -0.324 N 
HETATM    2  C   UNL     1     -20.900  -4.817  -5.900  1.00  0.00     0.245 C 
HETATM    3  O   UNL     1     -19.745  -4.633  -5.534  1.00  0.00    -0.268 OA
HETATM    4  H   UNL     1     -22.716  -5.794  -5.781  1.00  0.00     0.169 HD
ENDROOT
BRANCH   2   5
HETATM    5  C   UNL     1     -21.449  -4.017  -7.034  1.00  0.00     0.075 C 
HETATM    6  C   UNL     1     -21.476  -4.611  -8.241  1.00  0.00     0.017 C 
BRANCH   6   7
HETATM    7  C   UNL     1     -21.941  -4.025  -9.503  1.00  0.00    -0.036 A 
HETATM    8  C   UNL     1     -21.081  -3.761 -10.574  1.00  0.00     0.013 A 
HETATM    9  C   UNL     1     -21.585  -3.277 -11.786  1.00  0.00     0.024 A 
HETATM   10  C   UNL     1     -22.954  -3.066 -11.936  1.00  0.00     0.034 A 
HETATM   11 CL   UNL     1     -23.572  -2.489 -13.434  1.00  0.00    -0.084 Cl
HETATM   12  C   UNL     1     -23.825  -3.333 -10.885  1.00  0.00     0.024 A 
HETATM   13  C   UNL     1     -23.320  -3.815  -9.675  1.00  0.00     0.013 A 
ENDBRANCH   6   7
ENDBRANCH   2   5
BRANCH   1  14
HETATM   14  C   UNL     1     -21.524  -6.620  -4.298  1.00  0.00     0.037 A 
HETATM   15  C   UNL     1     -20.839  -7.826  -4.473  1.00  0.00     0.029 A 
HETATM   16  C   UNL     1     -20.637  -8.701  -3.408  1.00  0.00     0.005 A 
HETATM   17  C   UNL     1     -21.112  -8.381  -2.141  1.00  0.00     0.037 A 
HETATM   18  C   UNL     1     -21.778  -7.175  -1.933  1.00  0.00     0.070 A 
HETATM   19  C   UNL     1     -21.974  -6.294  -3.011  1.00  0.00     0.066 A 
BRANCH  18  20
HETATM   20  O   UNL     1     -22.286  -6.756  -0.730  1.00  0.00    -0.356 OA
HETATM   21  C   UNL     1     -22.736  -7.780   0.155  1.00  0.00     0.210 C 
ENDBRANCH  18  20
ENDBRANCH   1  14
TORSDOF 4
BEGIN_RES ARG D 557
REMARK  4 active torsions:
REMARK  status: ('A' for Active; 'I' for Inactive)
REMARK    1  A    between atoms: CA   and  CB  
REMARK    2  A    between atoms: CB   and  CG  
REMARK    3  A    between atoms: CG   and  CD  
REMARK    4  A    between atoms: CD   and  NE  
REMARK       I    between atoms: NE   and  CZ  
REMARK       I    between atoms: CZ   and  NH1 
REMARK       I    between atoms: CZ   and  NH2 
ROOT
ATOM      1  CA  ARG D 557     -26.217   2.705 -17.014  1.00 35.49     0.159 C 
ENDROOT
BRANCH   1   2
ATOM      2  CB  ARG D 557     -26.789   1.319 -17.183  1.00 35.49     0.034 C 
BRANCH   2   3
ATOM      3  CG  ARG D 557     -28.228   1.164 -16.938  1.00 35.49     0.027 C 
BRANCH   3   4
ATOM      4  CD  ARG D 557     -28.624  -0.255 -16.783  1.00 35.49     0.116 C 
BRANCH   4   5
ATOM      5  NE  ARG D 557     -27.626  -1.024 -16.087  1.00 35.49    -0.212 N 
ATOM      6  CZ  ARG D 557     -27.478  -2.328 -16.153  1.00 35.49     0.666 C 
ATOM      7  NH1 ARG D 557     -28.268  -3.096 -16.880  1.00 35.49    -0.235 N 
ATOM      8  NH2 ARG D 557     -26.503  -2.856 -15.471  1.00 35.49    -0.235 N 
ATOM      9  HH  ARG D 557     -28.914  -2.769 -17.339  1.00 35.49     0.174 HD
ATOM     10  HH  ARG D 557     -28.121  -3.940 -16.887  1.00 35.49     0.174 HD
ATOM     11  HH  ARG D 557     -26.004  -2.335 -15.016  1.00 35.49     0.174 HD
ATOM     12  HH  ARG D 557     -26.374  -3.694 -15.491  1.00 35.49     0.174 HD
ATOM     13  HE  ARG D 557     -27.119  -0.617 -15.538  1.00 35.49     0.178 HD
ENDBRANCH   4   5
ENDBRANCH   3   4
ENDBRANCH   2   3
ENDBRANCH   1   2
END_RES ARG D 557
BEGIN_RES GLU D 570
REMARK  3 active torsions:
REMARK  status: ('A' for Active; 'I' for Inactive)
REMARK    5  A    between atoms: CA   and  CB  
REMARK    6  A    between atoms: CB   and  CG  
REMARK    7  A    between atoms: CG   and  CD  
ROOT
ATOM     14  CA  GLU D 570     -18.033  -6.348 -13.375  1.00 32.92     0.160 C 
ENDROOT
BRANCH  14  15
ATOM     15  CB  GLU D 570     -19.500  -6.345 -13.794  1.00 32.92     0.043 C 
BRANCH  15  16
ATOM     16  CG  GLU D 570     -19.816  -5.908 -15.178  1.00 32.92     0.100 C 
BRANCH  16  17
ATOM     17  CD  GLU D 570     -21.233  -5.407 -15.330  1.00 32.92     0.185 C 
ATOM     18  OE1 GLU D 570     -21.546  -4.777 -16.358  1.00 32.92    -0.647 OA
ATOM     19  OE2 GLU D 570     -22.035  -5.632 -14.402  1.00 32.92    -0.647 OA
ENDBRANCH  16  17
ENDBRANCH  15  16
ENDBRANCH  14  15
END_RES GLU D 570
ENDMDL
MODEL 4
REMARK VINA RESULT:      -8.4      8.037     13.196
REMARK  4 active torsions:
REMARK  status: ('A' for Active; 'I' for Inactive)
REMARK    1  A    between atoms: O_2  and  C_3 
REMARK    2  A    between atoms: C_7  and  N_8 
REMARK       I    between atoms: N_8  and  C_9 
REMARK    3  A    between atoms: C_9  and  C_11 
REMARK    4  A    between atoms: C_12  and  C_13 
ROOT
HETATM    1  N   UNL     1     -33.493  -4.210 -14.225  1.00  0.00    -0.324 N 
HETATM    2  C   UNL     1     -33.883  -3.920 -15.519  1.00  0.00     0.245 C 
HETATM    3  O   UNL     1     -34.891  -3.311 -15.857  1.00  0.00    -0.268 OA
HETATM    4  H   UNL     1     -32.619  -4.699 -14.083  1.00  0.00     0.169 HD
ENDROOT
BRANCH   2   5
HETATM    5  C   UNL     1     -32.941  -4.420 -16.563  1.00  0.00     0.075 C 
HETATM    6  C   UNL     1     -31.720  -4.806 -16.147  1.00  0.00     0.017 C 
BRANCH   6   7
HETATM    7  C   UNL     1     -30.621  -5.304 -16.982  1.00  0.00    -0.036 A 
HETATM    8  C   UNL     1     -30.485  -6.653 -17.324  1.00  0.00     0.013 A 
HETATM    9  C   UNL     1     -29.467  -7.067 -18.190  1.00  0.00     0.024 A 
HETATM   10  C   UNL     1     -28.585  -6.130 -18.725  1.00  0.00     0.034 A 
HETATM   11 CL   UNL     1     -27.346  -6.640 -19.803  1.00  0.00    -0.084 Cl
HETATM   12  C   UNL     1     -28.712  -4.783 -18.404  1.00  0.00     0.024 A 
HETATM   13  C   UNL     1     -29.729  -4.371 -17.539  1.00  0.00     0.013 A 
ENDBRANCH   6   7
ENDBRANCH   2   5
BRANCH   1  14
HETATM   14  C   UNL     1     -34.193  -3.830 -13.049  1.00  0.00     0.037 A 
HETATM   15  C   UNL     1     -34.699  -4.756 -12.131  1.00  0.00     0.029 A 
HETATM   16  C   UNL     1     -35.424  -4.341 -11.016  1.00  0.00     0.005 A 
HETATM   17  C   UNL     1     -35.651  -2.988 -10.793  1.00  0.00     0.037 A 
HETATM   18  C   UNL     1     -35.139  -2.042 -11.680  1.00  0.00     0.070 A 
HETATM   19  C   UNL     1     -34.404  -2.467 -12.800  1.00  0.00     0.066 A 
BRANCH  18  20
HETATM   20  O   UNL     1     -35.299  -0.686 -11.560  1.00  0.00    -0.356 OA
HETATM   21  C   UNL     1     -35.048   0.085 -12.735  1.00  0.00     0.210 C 
ENDBRANCH  18  20
ENDBRANCH   1  14
TORSDOF 4
BEGIN_RES ARG D 557
REMARK  4 active torsions:
REMARK  status: ('A' for Active; 'I' for Inactive)
REMARK    1  A    between atoms: CA   and  CB  
REMARK    2  A    between atoms: CB   and  CG  
REMARK    3  A    between atoms: CG   and  CD  
REMARK    4  A    between atoms: CD   and  NE  
REMARK       I    between atoms: NE   and  CZ  
REMARK       I    between atoms: CZ   and  NH1 
REMARK       I    between atoms: CZ   and  NH2 
ROOT
ATOM      1  CA  ARG D 557     -26.217   2.705 -17.014  1.00 35.49     0.159 C 
ENDROOT
BRANCH   1   2
ATOM      2  CB  ARG D 557     -26.789   1.319 -17.183  1.00 35.49     0.034 C 
BRANCH   2   3
ATOM      3  CG  ARG D 557     -25.836   0.203 -17.153  1.00 35.49     0.027 C 
BRANCH   3   4
ATOM      4  CD  ARG D 557     -24.758   0.407 -16.159  1.00 35.49     0.116 C 
BRANCH   4   5
ATOM      5  NE  ARG D 557     -24.910  -0.448 -15.011  1.00 35.49    -0.212 N 
ATOM      6  CZ  ARG D 557     -24.096  -1.419 -14.664  1.00 35.49     0.666 C 
ATOM      7  NH1 ARG D 557     -23.023  -1.730 -15.367  1.00 35.49    -0.235 N 
ATOM      8  NH2 ARG D 557     -24.377  -2.079 -13.578  1.00 35.49    -0.235 N 
ATOM      9  HH  ARG D 557     -22.817  -1.308 -16.083  1.00 35.49     0.174 HD
ATOM     10  HH  ARG D 557     -22.527  -2.372 -15.090  1.00 35.49     0.174 HD
ATOM     11  HH  ARG D 557     -25.073  -1.851 -13.140  1.00 35.49     0.174 HD
ATOM     12  HH  ARG D 557     -23.873  -2.710 -13.320  1.00 35.49     0.174 HD
ATOM     13  HE  ARG D 557     -25.614  -0.365 -14.542  1.00 35.49     0.178 HD
ENDBRANCH   4   5
ENDBRANCH   3   4
ENDBRANCH   2   3
ENDBRANCH   1   2
END_RES ARG D 557
BEGIN_RES GLU D 570
REMARK  3 active torsions:
REMARK  status: ('A' for Active; 'I' for Inactive)
REMARK    5  A    between atoms: CA   and  CB  
REMARK    6  A    between atoms: CB   and  CG  
REMARK    7  A    between atoms: CG   and  CD  
ROOT
ATOM     14  CA  GLU D 570     -18.033  -6.348 -13.375  1.00 32.92     0.160 C 
ENDROOT
BRANCH  14  15
ATOM     15  CB  GLU D 570     -19.500  -6.345 -13.794  1.00 32.92     0.043 C 
BRANCH  15  16
ATOM     16  CG  GLU D 570     -20.442  -5.529 -12.984  1.00 32.92     0.100 C 
BRANCH  16  17
ATOM     17  CD  GLU D 570     -21.735  -5.232 -13.706  1.00 32.92     0.185 C 
ATOM     18  OE1 GLU D 570     -22.299  -4.138 -13.513  1.00 32.92    -0.647 OA
ATOM     19  OE2 GLU D 570     -22.199  -6.111 -14.460  1.00 32.92    -0.647 OA
ENDBRANCH  16  17
ENDBRANCH  15  16
ENDBRANCH  14  15
END_RES GLU D 570
ENDMDL
MODEL 5
REMARK VINA RESULT:      -8.3      2.181      3.156
REMARK  4 active torsions:
REMARK  status: ('A' for Active; 'I' for Inactive)
REMARK    1  A    between atoms: O_2  and  C_3 
REMARK    2  A    between atoms: C_7  and  N_8 
REMARK       I    between atoms: N_8  and  C_9 
REMARK    3  A    between atoms: C_9  and  C_11 
REMARK    4  A    between atoms: C_12  and  C_13 
ROOT
HETATM    1  N   UNL     1     -22.493  -4.464  -9.713  1.00  0.00    -0.324 N 
HETATM    2  C   UNL     1     -21.247  -4.507  -9.115  1.00  0.00     0.245 C 
HETATM    3  O   UNL     1     -20.166  -4.381  -9.677  1.00  0.00    -0.268 OA
HETATM    4  H   UNL     1     -23.312  -4.555  -9.127  1.00  0.00     0.169 HD
ENDROOT
BRANCH   2   5
HETATM    5  C   UNL     1     -21.290  -4.727  -7.640  1.00  0.00     0.075 C 
HETATM    6  C   UNL     1     -21.135  -5.992  -7.208  1.00  0.00     0.017 C 
BRANCH   6   7
HETATM    7  C   UNL     1     -21.166  -6.460  -5.818  1.00  0.00    -0.036 A 
HETATM    8  C   UNL     1     -21.105  -5.587  -4.727  1.00  0.00     0.013 A 
HETATM    9  C   UNL     1     -21.221  -6.074  -3.421  1.00  0.00     0.024 A 
HETATM   10  C   UNL     1     -21.408  -7.437  -3.200  1.00  0.00     0.034 A 
HETATM   11 CL   UNL     1     -21.568  -8.030  -1.594  1.00  0.00    -0.084 Cl
HETATM   12  C   UNL     1     -21.481  -8.318  -4.274  1.00  0.00     0.024 A 
HETATM   13  C   UNL     1     -21.364  -7.830  -5.577  1.00  0.00     0.013 A 
ENDBRANCH   6   7
ENDBRANCH   2   5
BRANCH   1  14
HETATM   14  C   UNL     1     -22.736  -4.244 -11.095  1.00  0.00     0.037 A 
HETATM   15  C   UNL     1     -22.602  -2.992 -11.703  1.00  0.00     0.029 A 
HETATM   16  C   UNL     1     -22.899  -2.810 -13.052  1.00  0.00     0.005 A 
HETATM   17  C   UNL     1     -23.332  -3.883 -13.823  1.00  0.00     0.037 A 
HETATM   18  C   UNL     1     -23.454  -5.147 -13.248  1.00  0.00     0.070 A 
HETATM   19  C   UNL     1     -23.147  -5.325 -11.888  1.00  0.00     0.066 A 
BRANCH  18  20
HETATM   20  O   UNL     1     -23.869  -6.274 -13.910  1.00  0.00    -0.356 OA
HETATM   21  C   UNL     1     -24.578  -6.063 -15.130  1.00  0.00     0.210 C 
ENDBRANCH  18  20
ENDBRANCH   1  14
TORSDOF 4
BEGIN_RES ARG D 557
REMARK  4 active torsions:
REMARK  status: ('A' for Active; 'I' for Inactive)
REMARK    1  A    between atoms: CA   and  CB  
REMARK    2  A    between atoms: CB   and  CG  
REMARK    3  A    between atoms: CG   and  CD  
REMARK    4  A    between atoms: CD   and  NE  
REMARK       I    between atoms: NE   and  CZ  
REMARK       I    between atoms: CZ   and  NH1 
REMARK       I    between atoms: CZ   and  NH2 
ROOT
ATOM      1  CA  ARG D 557     -26.217   2.705 -17.014  1.00 35.49     0.159 C 
ENDROOT
BRANCH   1   2
ATOM      2  CB  ARG D 557     -26.789   1.319 -17.183  1.00 35.49     0.034 C 
BRANCH   2   3
ATOM      3  CG  ARG D 557     -28.232   1.168 -16.958  1.00 35.49     0.027 C 
BRANCH   3   4
ATOM      4  CD  ARG D 557     -28.620  -0.240 -16.714  1.00 35.49     0.116 C 
BRANCH   4   5
ATOM      5  NE  ARG D 557     -27.601  -0.969 -16.004  1.00 35.49    -0.212 N 
ATOM      6  CZ  ARG D 557     -27.395  -2.265 -16.073  1.00 35.49     0.666 C 
ATOM      7  NH1 ARG D 557     -28.139  -3.063 -16.816  1.00 35.49    -0.235 N 
ATOM      8  NH2 ARG D 557     -26.410  -2.754 -15.376  1.00 35.49    -0.235 N 
ATOM      9  HH  ARG D 557     -28.791  -2.762 -17.284  1.00 35.49     0.174 HD
ATOM     10  HH  ARG D 557     -27.956  -3.900 -16.824  1.00 35.49     0.174 HD
ATOM     11  HH  ARG D 557     -25.942  -2.213 -14.911  1.00 35.49     0.174 HD
ATOM     12  HH  ARG D 557     -26.244  -3.585 -15.398  1.00 35.49     0.174 HD
ATOM     13  HE  ARG D 557     -27.122  -0.543 -15.446  1.00 35.49     0.178 HD
ENDBRANCH   4   5
ENDBRANCH   3   4
ENDBRANCH   2   3
ENDBRANCH   1   2
END_RES ARG D 557
BEGIN_RES GLU D 570
REMARK  3 active torsions:
REMARK  status: ('A' for Active; 'I' for Inactive)
REMARK    5  A    between atoms: CA   and  CB  
REMARK    6  A    between atoms: CB   and  CG  
REMARK    7  A    between atoms: CG   and  CD  
ROOT
ATOM     14  CA  GLU D 570     -18.033  -6.348 -13.375  1.00 32.92     0.160 C 
ENDROOT
BRANCH  14  15
ATOM     15  CB  GLU D 570     -19.500  -6.345 -13.794  1.00 32.92     0.043 C 
BRANCH  15  16
ATOM     16  CG  GLU D 570     -20.089  -7.636 -14.234  1.00 32.92     0.100 C 
BRANCH  16  17
ATOM     17  CD  GLU D 570     -20.868  -7.520 -15.523  1.00 32.92     0.185 C 
ATOM     18  OE1 GLU D 570     -21.221  -8.559 -16.113  1.00 32.92    -0.647 OA
ATOM     19  OE2 GLU D 570     -21.113  -6.377 -15.957  1.00 32.92    -0.647 OA
ENDBRANCH  16  17
ENDBRANCH  15  16
ENDBRANCH  14  15
END_RES GLU D 570
ENDMDL
MODEL 6
REMARK VINA RESULT:      -8.3      0.969      2.034
REMARK  4 active torsions:
REMARK  status: ('A' for Active; 'I' for Inactive)
REMARK    1  A    between atoms: O_2  and  C_3 
REMARK    2  A    between atoms: C_7  and  N_8 
REMARK       I    between atoms: N_8  and  C_9 
REMARK    3  A    between atoms: C_9  and  C_11 
REMARK    4  A    between atoms: C_12  and  C_13 
ROOT
HETATM    1  N   UNL     1     -22.272  -4.756  -7.098  1.00  0.00    -0.324 N 
HETATM    2  C   UNL     1     -20.964  -4.578  -6.686  1.00  0.00     0.245 C 
HETATM    3  O   UNL     1     -20.082  -3.986  -7.297  1.00  0.00    -0.268 OA
HETATM    4  H   UNL     1     -22.909  -5.242  -6.481  1.00  0.00     0.169 HD
ENDROOT
BRANCH   2   5
HETATM    5  C   UNL     1     -20.659  -5.184  -5.357  1.00  0.00     0.075 C 
HETATM    6  C   UNL     1     -21.577  -6.026  -4.846  1.00  0.00     0.017 C 
BRANCH   6   7
HETATM    7  C   UNL     1     -21.516  -6.719  -3.554  1.00  0.00    -0.036 A 
HETATM    8  C   UNL     1     -20.700  -7.833  -3.334  1.00  0.00     0.013 A 
HETATM    9  C   UNL     1     -20.613  -8.410  -2.062  1.00  0.00     0.024 A 
HETATM   10  C   UNL     1     -21.337  -7.867  -1.002  1.00  0.00     0.034 A 
HETATM   11 CL   UNL     1     -21.214  -8.568   0.564  1.00  0.00    -0.084 Cl
HETATM   12  C   UNL     1     -22.144  -6.753  -1.200  1.00  0.00     0.024 A 
HETATM   13  C   UNL     1     -22.230  -6.179  -2.471  1.00  0.00     0.013 A 
ENDBRANCH   6   7
ENDBRANCH   2   5
BRANCH   1  14
HETATM   14  C   UNL     1     -22.829  -4.261  -8.307  1.00  0.00     0.037 A 
HETATM   15  C   UNL     1     -24.181  -3.933  -8.444  1.00  0.00     0.029 A 
HETATM   16  C   UNL     1     -24.697  -3.498  -9.663  1.00  0.00     0.005 A 
HETATM   17  C   UNL     1     -23.865  -3.375 -10.770  1.00  0.00     0.037 A 
HETATM   18  C   UNL     1     -22.508  -3.674 -10.656  1.00  0.00     0.070 A 
HETATM   19  C   UNL     1     -21.993  -4.107  -9.422  1.00  0.00     0.066 A 
BRANCH  18  20
HETATM   20  O   UNL     1     -21.597  -3.589 -11.677  1.00  0.00    -0.356 OA
HETATM   21  C   UNL     1     -20.228  -3.768 -11.316  1.00  0.00     0.210 C 
ENDBRANCH  18  20
ENDBRANCH   1  14
TORSDOF 4
BEGIN_RES ARG D 557
REMARK  4 active torsions:
REMARK  status: ('A' for Active; 'I' for Inactive)
REMARK    1  A    between atoms: CA   and  CB  
REMARK    2  A    between atoms: CB   and  CG  
REMARK    3  A    between atoms: CG   and  CD  
REMARK    4  A    between atoms: CD   and  NE  
REMARK       I    between atoms: NE   and  CZ  
REMARK       I    between atoms: CZ   and  NH1 
REMARK       I    between atoms: CZ   and  NH2 
ROOT
ATOM      1  CA  ARG D 557     -26.217   2.705 -17.014  1.00 35.49     0.159 C 
ENDROOT
BRANCH   1   2
ATOM      2  CB  ARG D 557     -26.789   1.319 -17.183  1.00 35.49     0.034 C 
BRANCH   2   3
ATOM      3  CG  ARG D 557     -25.864   0.195 -16.993  1.00 35.49     0.027 C 
BRANCH   3   4
ATOM      4  CD  ARG D 557     -26.120  -0.540 -15.733  1.00 35.49     0.116 C 
BRANCH   4   5
ATOM      5  NE  ARG D 557     -24.901  -0.928 -15.074  1.00 35.49    -0.212 N 
ATOM      6  CZ  ARG D 557     -24.654  -2.106 -14.548  1.00 35.49     0.666 C 
ATOM      7  NH1 ARG D 557     -25.538  -3.087 -14.558  1.00 35.49    -0.235 N 
ATOM      8  NH2 ARG D 557     -23.484  -2.289 -14.008  1.00 35.49    -0.235 N 
ATOM      9  HH  ARG D 557     -26.313  -2.989 -14.909  1.00 35.49     0.174 HD
ATOM     10  HH  ARG D 557     -25.320  -3.835 -14.201  1.00 35.49     0.174 HD
ATOM     11  HH  ARG D 557     -22.931  -1.641 -14.023  1.00 35.49     0.174 HD
ATOM     12  HH  ARG D 557     -23.286  -3.038 -13.662  1.00 35.49     0.174 HD
ATOM     13  HE  ARG D 557     -24.303  -0.334 -14.958  1.00 35.49     0.178 HD
ENDBRANCH   4   5
ENDBRANCH   3   4
ENDBRANCH   2   3
ENDBRANCH   1   2
END_RES ARG D 557
BEGIN_RES GLU D 570
REMARK  3 active torsions:
REMARK  status: ('A' for Active; 'I' for Inactive)
REMARK    5  A    between atoms: CA   and  CB  
REMARK    6  A    between atoms: CB   and  CG  
REMARK    7  A    between atoms: CG   and  CD  
ROOT
ATOM     14  CA  GLU D 570     -18.033  -6.348 -13.375  1.00 32.92     0.160 C 
ENDROOT
BRANCH  14  15
ATOM     15  CB  GLU D 570     -19.500  -6.345 -13.794  1.00 32.92     0.043 C 
BRANCH  15  16
ATOM     16  CG  GLU D 570     -19.796  -6.280 -15.248  1.00 32.92     0.100 C 
BRANCH  16  17
ATOM     17  CD  GLU D 570     -21.003  -5.428 -15.566  1.00 32.92     0.185 C 
ATOM     18  OE1 GLU D 570     -21.684  -4.970 -14.629  1.00 32.92    -0.647 OA
ATOM     19  OE2 GLU D 570     -21.280  -5.231 -16.766  1.00 32.92    -0.647 OA
ENDBRANCH  16  17
ENDBRANCH  15  16
ENDBRANCH  14  15
END_RES GLU D 570
ENDMDL
MODEL 7
REMARK VINA RESULT:      -8.2      3.187      7.203
REMARK  4 active torsions:
REMARK  status: ('A' for Active; 'I' for Inactive)
REMARK    1  A    between atoms: O_2  and  C_3 
REMARK    2  A    between atoms: C_7  and  N_8 
REMARK       I    between atoms: N_8  and  C_9 
REMARK    3  A    between atoms: C_9  and  C_11 
REMARK    4  A    between atoms: C_12  and  C_13 
ROOT
HETATM    1  N   UNL     1     -21.272  -6.774  -4.069  1.00  0.00    -0.324 N 
HETATM    2  C   UNL     1     -20.292  -7.309  -4.884  1.00  0.00     0.245 C 
HETATM    3  O   UNL     1     -19.587  -8.280  -4.634  1.00  0.00    -0.268 OA
HETATM    4  H   UNL     1     -21.804  -5.984  -4.410  1.00  0.00     0.169 HD
ENDROOT
BRANCH   2   5
HETATM    5  C   UNL     1     -20.127  -6.594  -6.183  1.00  0.00     0.075 C 
HETATM    6  C   UNL     1     -21.150  -5.818  -6.586  1.00  0.00     0.017 C 
BRANCH   6   7
HETATM    7  C   UNL     1     -21.233  -5.043  -7.830  1.00  0.00    -0.036 A 
HETATM    8  C   UNL     1     -20.192  -5.002  -8.763  1.00  0.00     0.013 A 
HETATM    9  C   UNL     1     -20.351  -4.316  -9.972  1.00  0.00     0.024 A 
HETATM   10  C   UNL     1     -21.556  -3.676 -10.256  1.00  0.00     0.034 A 
HETATM   11 CL   UNL     1     -21.753  -2.848 -11.752  1.00  0.00    -0.084 Cl
HETATM   12  C   UNL     1     -22.604  -3.716  -9.344  1.00  0.00     0.024 A 
HETATM   13  C   UNL     1     -22.444  -4.400  -8.137  1.00  0.00     0.013 A 
ENDBRANCH   6   7
ENDBRANCH   2   5
BRANCH   1  14
HETATM   14  C   UNL     1     -21.648  -7.276  -2.795  1.00  0.00     0.037 A 
HETATM   15  C   UNL     1     -22.093  -6.455  -1.753  1.00  0.00     0.029 A 
HETATM   16  C   UNL     1     -22.404  -6.983  -0.503  1.00  0.00     0.005 A 
HETATM   17  C   UNL     1     -22.283  -8.349  -0.271  1.00  0.00     0.037 A 
HETATM   18  C   UNL     1     -21.863  -9.194  -1.297  1.00  0.00     0.070 A 
HETATM   19  C   UNL     1     -21.556  -8.655  -2.558  1.00  0.00     0.066 A 
BRANCH  18  20
HETATM   20  O   UNL     1     -21.709 -10.551  -1.183  1.00  0.00    -0.356 OA
HETATM   21  C   UNL     1     -21.432 -11.046   0.126  1.00  0.00     0.210 C 
ENDBRANCH  18  20
ENDBRANCH   1  14
TORSDOF 4
BEGIN_RES ARG D 557
REMARK  4 active torsions:
REMARK  status: ('A' for Active; 'I' for Inactive)
REMARK    1  A    between atoms: CA   and  CB  
REMARK    2  A    between atoms: CB   and  CG  
REMARK    3  A    between atoms: CG   and  CD  
REMARK    4  A    between atoms: CD   and  NE  
REMARK       I    between atoms: NE   and  CZ  
REMARK       I    between atoms: CZ   and  NH1 
REMARK       I    between atoms: CZ   and  NH2 
ROOT
ATOM      1  CA  ARG D 557     -26.217   2.705 -17.014  1.00 35.49     0.159 C 
ENDROOT
BRANCH   1   2
ATOM      2  CB  ARG D 557     -26.789   1.319 -17.183  1.00 35.49     0.034 C 
BRANCH   2   3
ATOM      3  CG  ARG D 557     -25.833   0.205 -17.179  1.00 35.49     0.027 C 
BRANCH   3   4
ATOM      4  CD  ARG D 557     -24.779   0.370 -16.152  1.00 35.49     0.116 C 
BRANCH   4   5
ATOM      5  NE  ARG D 557     -24.976  -0.505 -15.026  1.00 35.49    -0.212 N 
ATOM      6  CZ  ARG D 557     -24.169  -1.472 -14.654  1.00 35.49     0.666 C 
ATOM      7  NH1 ARG D 557     -23.059  -1.761 -15.309  1.00 35.49    -0.235 N 
ATOM      8  NH2 ARG D 557     -24.495  -2.152 -13.594  1.00 35.49    -0.235 N 
ATOM      9  HH  ARG D 557     -22.824  -1.325 -16.008  1.00 35.49     0.174 HD
ATOM     10  HH  ARG D 557     -22.570  -2.402 -15.018  1.00 35.49     0.174 HD
ATOM     11  HH  ARG D 557     -25.214  -1.939 -13.187  1.00 35.49     0.174 HD
ATOM     12  HH  ARG D 557     -23.997  -2.782 -13.321  1.00 35.49     0.174 HD
ATOM     13  HE  ARG D 557     -25.704  -0.436 -14.591  1.00 35.49     0.178 HD
ENDBRANCH   4   5
ENDBRANCH   3   4
ENDBRANCH   2   3
ENDBRANCH   1   2
END_RES ARG D 557
BEGIN_RES GLU D 570
REMARK  3 active torsions:
REMARK  status: ('A' for Active; 'I' for Inactive)
REMARK    5  A    between atoms: CA   and  CB  
REMARK    6  A    between atoms: CB   and  CG  
REMARK    7  A    between atoms: CG   and  CD  
ROOT
ATOM     14  CA  GLU D 570     -18.033  -6.348 -13.375  1.00 32.92     0.160 C 
ENDROOT
BRANCH  14  15
ATOM     15  CB  GLU D 570     -19.500  -6.345 -13.794  1.00 32.92     0.043 C 
BRANCH  15  16
ATOM     16  CG  GLU D 570     -19.798  -6.202 -15.243  1.00 32.92     0.100 C 
BRANCH  16  17
ATOM     17  CD  GLU D 570     -21.051  -5.401 -15.510  1.00 32.92     0.185 C 
ATOM     18  OE1 GLU D 570     -21.397  -5.193 -16.689  1.00 32.92    -0.647 OA
ATOM     19  OE2 GLU D 570     -21.685  -4.962 -14.530  1.00 32.92    -0.647 OA
ENDBRANCH  16  17
ENDBRANCH  15  16
ENDBRANCH  14  15
END_RES GLU D 570
ENDMDL
MODEL 8
REMARK VINA RESULT:      -8.1      2.555      3.981
REMARK  4 active torsions:
REMARK  status: ('A' for Active; 'I' for Inactive)
REMARK    1  A    between atoms: O_2  and  C_3 
REMARK    2  A    between atoms: C_7  and  N_8 
REMARK       I    between atoms: N_8  and  C_9 
REMARK    3  A    between atoms: C_9  and  C_11 
REMARK    4  A    between atoms: C_12  and  C_13 
ROOT
HETATM    1  N   UNL     1     -22.949  -4.320 -10.593  1.00  0.00    -0.324 N 
HETATM    2  C   UNL     1     -21.667  -3.982 -10.199  1.00  0.00     0.245 C 
HETATM    3  O   UNL     1     -20.739  -3.667 -10.935  1.00  0.00    -0.268 OA
HETATM    4  H   UNL     1     -23.631  -4.534  -9.878  1.00  0.00     0.169 HD
ENDROOT
BRANCH   2   5
HETATM    5  C   UNL     1     -21.456  -4.019  -8.722  1.00  0.00     0.075 C 
HETATM    6  C   UNL     1     -21.500  -5.227  -8.131  1.00  0.00     0.017 C 
BRANCH   6   7
HETATM    7  C   UNL     1     -21.350  -5.514  -6.699  1.00  0.00    -0.036 A 
HETATM    8  C   UNL     1     -20.421  -4.851  -5.891  1.00  0.00     0.013 A 
HETATM    9  C   UNL     1     -20.372  -5.101  -4.515  1.00  0.00     0.024 A 
HETATM   10  C   UNL     1     -21.260  -6.008  -3.941  1.00  0.00     0.034 A 
HETATM   11 CL   UNL     1     -21.208  -6.299  -2.246  1.00  0.00    -0.084 Cl
HETATM   12  C   UNL     1     -22.197  -6.668  -4.728  1.00  0.00     0.024 A 
HETATM   13  C   UNL     1     -22.244  -6.418  -6.102  1.00  0.00     0.013 A 
ENDBRANCH   6   7
ENDBRANCH   2   5
BRANCH   1  14
HETATM   14  C   UNL     1     -23.421  -4.342 -11.932  1.00  0.00     0.037 A 
HETATM   15  C   UNL     1     -23.120  -5.371 -12.830  1.00  0.00     0.029 A 
HETATM   16  C   UNL     1     -23.562  -5.327 -14.150  1.00  0.00     0.005 A 
HETATM   17  C   UNL     1     -24.323  -4.253 -14.597  1.00  0.00     0.037 A 
HETATM   18  C   UNL     1     -24.657  -3.224 -13.718  1.00  0.00     0.070 A 
HETATM   19  C   UNL     1     -24.212  -3.277 -12.386  1.00  0.00     0.066 A 
BRANCH  18  20
HETATM   20  O   UNL     1     -25.400  -2.120 -14.047  1.00  0.00    -0.356 OA
HETATM   21  C   UNL     1     -24.769  -1.166 -14.900  1.00  0.00     0.210 C 
ENDBRANCH  18  20
ENDBRANCH   1  14
TORSDOF 4
BEGIN_RES ARG D 557
REMARK  4 active torsions:
REMARK  status: ('A' for Active; 'I' for Inactive)
REMARK    1  A    between atoms: CA   and  CB  
REMARK    2  A    between atoms: CB   and  CG  
REMARK    3  A    between atoms: CG   and  CD  
REMARK    4  A    between atoms: CD   and  NE  
REMARK       I    between atoms: NE   and  CZ  
REMARK       I    between atoms: CZ   and  NH1 
REMARK       I    between atoms: CZ   and  NH2 
ROOT
ATOM      1  CA  ARG D 557     -26.217   2.705 -17.014  1.00 35.49     0.159 C 
ENDROOT
BRANCH   1   2
ATOM      2  CB  ARG D 557     -26.789   1.319 -17.183  1.00 35.49     0.034 C 
BRANCH   2   3
ATOM      3  CG  ARG D 557     -28.195   1.134 -16.805  1.00 35.49     0.027 C 
BRANCH   3   4
ATOM      4  CD  ARG D 557     -28.717  -0.194 -17.202  1.00 35.49     0.116 C 
BRANCH   4   5
ATOM      5  NE  ARG D 557     -27.981  -1.270 -16.592  1.00 35.49    -0.212 N 
ATOM      6  CZ  ARG D 557     -28.221  -2.552 -16.752  1.00 35.49     0.666 C 
ATOM      7  NH1 ARG D 557     -29.208  -3.000 -17.507  1.00 35.49    -0.235 N 
ATOM      8  NH2 ARG D 557     -27.439  -3.391 -16.138  1.00 35.49    -0.235 N 
ATOM      9  HH  ARG D 557     -29.734  -2.466 -17.922  1.00 35.49     0.174 HD
ATOM     10  HH  ARG D 557     -29.315  -3.847 -17.577  1.00 35.49     0.174 HD
ATOM     11  HH  ARG D 557     -26.805  -3.073 -15.663  1.00 35.49     0.174 HD
ATOM     12  HH  ARG D 557     -27.560  -4.226 -16.221  1.00 35.49     0.174 HD
ATOM     13  HE  ARG D 557     -27.373  -1.071 -16.032  1.00 35.49     0.178 HD
ENDBRANCH   4   5
ENDBRANCH   3   4
ENDBRANCH   2   3
ENDBRANCH   1   2
END_RES ARG D 557
BEGIN_RES GLU D 570
REMARK  3 active torsions:
REMARK  status: ('A' for Active; 'I' for Inactive)
REMARK    5  A    between atoms: CA   and  CB  
REMARK    6  A    between atoms: CB   and  CG  
REMARK    7  A    between atoms: CG   and  CD  
ROOT
ATOM     14  CA  GLU D 570     -18.033  -6.348 -13.375  1.00 32.92     0.160 C 
ENDROOT
BRANCH  14  15
ATOM     15  CB  GLU D 570     -19.500  -6.345 -13.794  1.00 32.92     0.043 C 
BRANCH  15  16
ATOM     16  CG  GLU D 570     -20.085  -7.633 -14.248  1.00 32.92     0.100 C 
BRANCH  16  17
ATOM     17  CD  GLU D 570     -20.611  -7.576 -15.663  1.00 32.92     0.185 C 
ATOM     18  OE1 GLU D 570     -20.886  -8.640 -16.250  1.00 32.92    -0.647 OA
ATOM     19  OE2 GLU D 570     -20.735  -6.455 -16.195  1.00 32.92    -0.647 OA
ENDBRANCH  16  17
ENDBRANCH  15  16
ENDBRANCH  14  15
END_RES GLU D 570
ENDMDL
MODEL 9
REMARK VINA RESULT:      -8.0      2.046      2.813
REMARK  4 active torsions:
REMARK  status: ('A' for Active; 'I' for Inactive)
REMARK    1  A    between atoms: O_2  and  C_3 
REMARK    2  A    between atoms: C_7  and  N_8 
REMARK       I    between atoms: N_8  and  C_9 
REMARK    3  A    between atoms: C_9  and  C_11 
REMARK    4  A    between atoms: C_12  and  C_13 
ROOT
HETATM    1  N   UNL     1     -22.024  -5.063  -8.196  1.00  0.00    -0.324 N 
HETATM    2  C   UNL     1     -21.350  -4.401  -7.187  1.00  0.00     0.245 C 
HETATM    3  O   UNL     1     -21.197  -3.189  -7.086  1.00  0.00    -0.268 OA
HETATM    4  H   UNL     1     -22.101  -6.070  -8.144  1.00  0.00     0.169 HD
ENDROOT
BRANCH   2   5
HETATM    5  C   UNL     1     -20.779  -5.304  -6.145  1.00  0.00     0.075 C 
HETATM    6  C   UNL     1     -21.639  -5.815  -5.245  1.00  0.00     0.017 C 
BRANCH   6   7
HETATM    7  C   UNL     1     -21.316  -6.699  -4.119  1.00  0.00    -0.036 A 
HETATM    8  C   UNL     1     -21.775  -6.462  -2.819  1.00  0.00     0.013 A 
HETATM    9  C   UNL     1     -21.509  -7.378  -1.795  1.00  0.00     0.024 A 
HETATM   10  C   UNL     1     -20.790  -8.540  -2.070  1.00  0.00     0.034 A 
HETATM   11 CL   UNL     1     -20.480  -9.672  -0.812  1.00  0.00    -0.084 Cl
HETATM   12  C   UNL     1     -20.336  -8.796  -3.359  1.00  0.00     0.024 A 
HETATM   13  C   UNL     1     -20.601  -7.880  -4.380  1.00  0.00     0.013 A 
ENDBRANCH   6   7
ENDBRANCH   2   5
BRANCH   1  14
HETATM   14  C   UNL     1     -22.680  -4.443  -9.294  1.00  0.00     0.037 A 
HETATM   15  C   UNL     1     -23.950  -3.867  -9.196  1.00  0.00     0.029 A 
HETATM   16  C   UNL     1     -24.577  -3.314 -10.310  1.00  0.00     0.005 A 
HETATM   17  C   UNL     1     -23.940  -3.320 -11.546  1.00  0.00     0.037 A 
HETATM   18  C   UNL     1     -22.664  -3.867 -11.668  1.00  0.00     0.070 A 
HETATM   19  C   UNL     1     -22.034  -4.419 -10.538  1.00  0.00     0.066 A 
BRANCH  18  20
HETATM   20  O   UNL     1     -21.942  -3.926 -12.831  1.00  0.00    -0.356 OA
HETATM   21  C   UNL     1     -22.654  -4.346 -13.994  1.00  0.00     0.210 C 
ENDBRANCH  18  20
ENDBRANCH   1  14
TORSDOF 4
BEGIN_RES ARG D 557
REMARK  4 active torsions:
REMARK  status: ('A' for Active; 'I' for Inactive)
REMARK    1  A    between atoms: CA   and  CB  
REMARK    2  A    between atoms: CB   and  CG  
REMARK    3  A    between atoms: CG   and  CD  
REMARK    4  A    between atoms: CD   and  NE  
REMARK       I    between atoms: NE   and  CZ  
REMARK       I    between atoms: CZ   and  NH1 
REMARK       I    between atoms: CZ   and  NH2 
ROOT
ATOM      1  CA  ARG D 557     -26.217   2.705 -17.014  1.00 35.49     0.159 C 
ENDROOT
BRANCH   1   2
ATOM      2  CB  ARG D 557     -26.789   1.319 -17.183  1.00 35.49     0.034 C 
BRANCH   2   3
ATOM      3  CG  ARG D 557     -25.961   0.201 -16.715  1.00 35.49     0.027 C 
BRANCH   3   4
ATOM      4  CD  ARG D 557     -26.761  -0.854 -16.050  1.00 35.49     0.116 C 
BRANCH   4   5
ATOM      5  NE  ARG D 557     -28.006  -1.098 -16.728  1.00 35.49    -0.212 N 
ATOM      6  CZ  ARG D 557     -28.535  -2.278 -16.963  1.00 35.49     0.666 C 
ATOM      7  NH1 ARG D 557     -27.947  -3.403 -16.599  1.00 35.49    -0.235 N 
ATOM      8  NH2 ARG D 557     -29.684  -2.311 -17.573  1.00 35.49    -0.235 N 
ATOM      9  HH  ARG D 557     -27.192  -3.405 -16.194  1.00 35.49     0.174 HD
ATOM     10  HH  ARG D 557     -28.340  -4.144 -16.776  1.00 35.49     0.174 HD
ATOM     11  HH  ARG D 557     -30.043  -1.569 -17.789  1.00 35.49     0.174 HD
ATOM     12  HH  ARG D 557     -30.058  -3.054 -17.738  1.00 35.49     0.174 HD
ATOM     13  HE  ARG D 557     -28.417  -0.432 -17.062  1.00 35.49     0.178 HD
ENDBRANCH   4   5
ENDBRANCH   3   4
ENDBRANCH   2   3
ENDBRANCH   1   2
END_RES ARG D 557
BEGIN_RES GLU D 570
REMARK  3 active torsions:
REMARK  status: ('A' for Active; 'I' for Inactive)
REMARK    5  A    between atoms: CA   and  CB  
REMARK    6  A    between atoms: CB   and  CG  
REMARK    7  A    between atoms: CG   and  CD  
ROOT
ATOM     14  CA  GLU D 570     -18.033  -6.348 -13.375  1.00 32.92     0.160 C 
ENDROOT
BRANCH  14  15
ATOM     15  CB  GLU D 570     -19.500  -6.345 -13.794  1.00 32.92     0.043 C 
BRANCH  15  16
ATOM     16  CG  GLU D 570     -20.087  -7.634 -14.242  1.00 32.92     0.100 C 
BRANCH  16  17
ATOM     17  CD  GLU D 570     -20.689  -7.558 -15.626  1.00 32.92     0.185 C 
ATOM     18  OE1 GLU D 570     -20.657  -6.475 -16.241  1.00 32.92    -0.647 OA
ATOM     19  OE2 GLU D 570     -21.213  -8.589 -16.093  1.00 32.92    -0.647 OA
ENDBRANCH  16  17
ENDBRANCH  15  16
ENDBRANCH  14  15
END_RES GLU D 570
ENDMDL
