MODEL 1
REMARK VINA RESULT:      -8.6      0.000      0.000
REMARK  17 active torsions:
REMARK  status: ('A' for Active; 'I' for Inactive)
REMARK    1  A    between atoms: C_2  and  C_3 
REMARK    2  A    between atoms: C_3  and  C_4 
REMARK    3  A    between atoms: C_4  and  C_5 
REMARK    4  A    between atoms: C_5  and  C_6 
REMARK    5  A    between atoms: C_7  and  C_8 
REMARK    6  A    between atoms: C_8  and  C_9 
REMARK    7  A    between atoms: C_10  and  C_11 
REMARK    8  A    between atoms: C_11  and  C_12 
REMARK    9  A    between atoms: C_13  and  C_14 
REMARK   10  A    between atoms: C_15  and  C_16 
REMARK   11  A    between atoms: C_16  and  C_17 
REMARK   12  A    between atoms: C_16  and  O_23 
REMARK   13  A    between atoms: C_17  and  C_18 
REMARK   14  A    between atoms: C_18  and  C_19 
REMARK   15  A    between atoms: C_19  and  C_20 
REMARK   16  A    between atoms: C_20  and  O_22 
REMARK   17  A    between atoms: O_23  and  O_24 
ROOT
HETATM    1  C   UNL     1     -20.009  -4.317  -8.617  1.00  0.00    -0.023 C 
HETATM    2  C   UNL     1     -21.300  -4.506  -8.934  1.00  0.00    -0.004 C 
ENDROOT
BRANCH   2   3
HETATM    3  C   UNL     1     -21.849  -4.099 -10.205  1.00  0.00    -0.002 C 
HETATM    4  C   UNL     1     -22.976  -3.380 -10.321  1.00  0.00     0.008 C 
BRANCH   4   5
HETATM    5  C   UNL     1     -23.557  -2.964 -11.648  1.00  0.00     0.183 C 
BRANCH   5   6
HETATM    6  C   UNL     1     -22.968  -3.829 -12.771  1.00  0.00     0.040 C 
BRANCH   6   7
HETATM    7  C   UNL     1     -23.530  -3.533 -14.167  1.00  0.00     0.013 C 
BRANCH   7   8
HETATM    8  C   UNL     1     -23.414  -2.070 -14.591  1.00  0.00     0.110 C 
BRANCH   8   9
HETATM    9  C   UNL     1     -24.777  -1.426 -14.718  1.00  0.00     0.139 C 
HETATM   10  O   UNL     1     -25.845  -2.014 -14.692  1.00  0.00    -0.650 OA
BRANCH   9  11
HETATM   11  O   UNL     1     -24.699  -0.080 -14.869  1.00  0.00    -0.776 OA
HETATM   12  H   UNL     1     -23.837   0.296 -14.621  1.00  0.00     0.167 HD
ENDBRANCH   9  11
ENDBRANCH   8   9
ENDBRANCH   7   8
ENDBRANCH   6   7
ENDBRANCH   5   6
BRANCH   5  13
HETATM   13  O   UNL     1     -24.977  -3.157 -11.624  1.00  0.00    -0.234 OA
BRANCH  13  14
HETATM   14  O   UNL     1     -25.373  -3.176 -10.220  1.00  0.00    -0.250 OA
HETATM   15  H   UNL     1     -25.042  -2.285 -10.008  1.00  0.00     0.253 HD
ENDBRANCH  13  14
ENDBRANCH   5  13
ENDBRANCH   4   5
ENDBRANCH   2   3
BRANCH   1  16
HETATM   16  C   UNL     1     -19.405  -4.720  -7.305  1.00  0.00     0.054 C 
BRANCH  16  17
HETATM   17  C   UNL     1     -20.206  -5.806  -6.647  1.00  0.00    -0.027 C 
HETATM   18  C   UNL     1     -21.098  -5.591  -5.666  1.00  0.00    -0.027 C 
BRANCH  18  19
HETATM   19  C   UNL     1     -21.925  -6.668  -5.030  1.00  0.00     0.053 C 
BRANCH  19  20
HETATM   20  C   UNL     1     -21.791  -6.642  -3.535  1.00  0.00    -0.027 C 
HETATM   21  C   UNL     1     -21.316  -7.662  -2.808  1.00  0.00    -0.030 C 
BRANCH  21  22
HETATM   22  C   UNL     1     -21.172  -7.624  -1.312  1.00  0.00     0.027 C 
BRANCH  22  23
HETATM   23  C   UNL     1     -22.457  -7.125  -0.651  1.00  0.00     0.004 C 
BRANCH  23  24
HETATM   24  C   UNL     1     -22.990  -8.148   0.352  1.00  0.00    -0.000 C 
BRANCH  24  25
HETATM   25  C   UNL     1     -22.544  -9.564  -0.008  1.00  0.00    -0.005 C 
HETATM   26  C   UNL     1     -23.739 -10.486  -0.196  1.00  0.00     0.005 C 
ENDBRANCH  24  25
ENDBRANCH  23  24
ENDBRANCH  22  23
ENDBRANCH  21  22
ENDBRANCH  19  20
ENDBRANCH  18  19
ENDBRANCH  16  17
ENDBRANCH   1  16
TORSDOF 17
BEGIN_RES ARG D 557
REMARK  4 active torsions:
REMARK  status: ('A' for Active; 'I' for Inactive)
REMARK    1  A    between atoms: CA   and  CB  
REMARK    2  A    between atoms: CB   and  CG  
REMARK    3  A    between atoms: CG   and  CD  
REMARK    4  A    between atoms: CD   and  NE  
REMARK       I    between atoms: NE   and  CZ  
REMARK       I    between atoms: CZ   and  NH1 
REMARK       I    between atoms: CZ   and  NH2 
ROOT
ATOM      1  CA  ARG D 557     -26.217   2.705 -17.014  1.00 35.49     0.159 C 
ENDROOT
BRANCH   1   2
ATOM      2  CB  ARG D 557     -26.789   1.319 -17.183  1.00 35.49     0.034 C 
BRANCH   2   3
ATOM      3  CG  ARG D 557     -28.139   1.092 -16.654  1.00 35.49     0.027 C 
BRANCH   3   4
ATOM      4  CD  ARG D 557     -28.746  -0.156 -17.170  1.00 35.49     0.116 C 
BRANCH   4   5
ATOM      5  NE  ARG D 557     -28.072  -1.329 -16.679  1.00 35.49    -0.212 N 
ATOM      6  CZ  ARG D 557     -28.434  -2.573 -16.903  1.00 35.49     0.666 C 
ATOM      7  NH1 ARG D 557     -29.500  -2.884 -17.617  1.00 35.49    -0.235 N 
ATOM      8  NH2 ARG D 557     -27.692  -3.514 -16.397  1.00 35.49    -0.235 N 
ATOM      9  HH  ARG D 557     -30.001  -2.280 -17.962  1.00 35.49     0.174 HD
ATOM     10  HH  ARG D 557     -29.685  -3.712 -17.732  1.00 35.49     0.174 HD
ATOM     11  HH  ARG D 557     -27.005  -3.284 -15.946  1.00 35.49     0.174 HD
ATOM     12  HH  ARG D 557     -27.891  -4.329 -16.523  1.00 35.49     0.174 HD
ATOM     13  HE  ARG D 557     -27.416  -1.221 -16.149  1.00 35.49     0.178 HD
ENDBRANCH   4   5
ENDBRANCH   3   4
ENDBRANCH   2   3
ENDBRANCH   1   2
END_RES ARG D 557
BEGIN_RES GLU D 570
REMARK  3 active torsions:
REMARK  status: ('A' for Active; 'I' for Inactive)
REMARK    5  A    between atoms: CA   and  CB  
REMARK    6  A    between atoms: CB   and  CG  
REMARK    7  A    between atoms: CG   and  CD  
ROOT
ATOM     14  CA  GLU D 570     -18.033  -6.348 -13.375  1.00 32.92     0.160 C 
ENDROOT
BRANCH  14  15
ATOM     15  CB  GLU D 570     -19.500  -6.345 -13.794  1.00 32.92     0.043 C 
BRANCH  15  16
ATOM     16  CG  GLU D 570     -20.087  -7.634 -14.242  1.00 32.92     0.100 C 
BRANCH  16  17
ATOM     17  CD  GLU D 570     -20.746  -7.542 -15.598  1.00 32.92     0.185 C 
ATOM     18  OE1 GLU D 570     -20.896  -6.422 -16.124  1.00 32.92    -0.647 OA
ATOM     19  OE2 GLU D 570     -21.133  -8.600 -16.133  1.00 32.92    -0.647 OA
ENDBRANCH  16  17
ENDBRANCH  15  16
ENDBRANCH  14  15
END_RES GLU D 570
ENDMDL
MODEL 2
REMARK VINA RESULT:      -8.4      1.225      1.953
REMARK  17 active torsions:
REMARK  status: ('A' for Active; 'I' for Inactive)
REMARK    1  A    between atoms: C_2  and  C_3 
REMARK    2  A    between atoms: C_3  and  C_4 
REMARK    3  A    between atoms: C_4  and  C_5 
REMARK    4  A    between atoms: C_5  and  C_6 
REMARK    5  A    between atoms: C_7  and  C_8 
REMARK    6  A    between atoms: C_8  and  C_9 
REMARK    7  A    between atoms: C_10  and  C_11 
REMARK    8  A    between atoms: C_11  and  C_12 
REMARK    9  A    between atoms: C_13  and  C_14 
REMARK   10  A    between atoms: C_15  and  C_16 
REMARK   11  A    between atoms: C_16  and  C_17 
REMARK   12  A    between atoms: C_16  and  O_23 
REMARK   13  A    between atoms: C_17  and  C_18 
REMARK   14  A    between atoms: C_18  and  C_19 
REMARK   15  A    between atoms: C_19  and  C_20 
REMARK   16  A    between atoms: C_20  and  O_22 
REMARK   17  A    between atoms: O_23  and  O_24 
ROOT
HETATM    1  C   UNL     1     -21.005  -5.591  -7.253  1.00  0.00    -0.023 C 
HETATM    2  C   UNL     1     -20.485  -4.697  -8.108  1.00  0.00    -0.004 C 
ENDROOT
BRANCH   2   3
HETATM    3  C   UNL     1     -21.226  -4.186  -9.236  1.00  0.00    -0.002 C 
HETATM    4  C   UNL     1     -22.566  -4.162  -9.283  1.00  0.00     0.008 C 
BRANCH   4   5
HETATM    5  C   UNL     1     -23.342  -3.639 -10.465  1.00  0.00     0.183 C 
BRANCH   5   6
HETATM    6  C   UNL     1     -23.761  -4.804 -11.373  1.00  0.00     0.040 C 
BRANCH   6   7
HETATM    7  C   UNL     1     -23.542  -4.557 -12.870  1.00  0.00     0.013 C 
BRANCH   7   8
HETATM    8  C   UNL     1     -22.605  -3.393 -13.183  1.00  0.00     0.110 C 
BRANCH   8   9
HETATM    9  C   UNL     1     -23.233  -2.430 -14.167  1.00  0.00     0.139 C 
HETATM   10  O   UNL     1     -22.832  -2.209 -15.297  1.00  0.00    -0.650 OA
BRANCH   9  11
HETATM   11  O   UNL     1     -24.328  -1.814 -13.657  1.00  0.00    -0.776 OA
HETATM   12  H   UNL     1     -24.544  -2.079 -12.747  1.00  0.00     0.167 HD
ENDBRANCH   9  11
ENDBRANCH   8   9
ENDBRANCH   7   8
ENDBRANCH   6   7
ENDBRANCH   5   6
BRANCH   5  13
HETATM   13  O   UNL     1     -24.525  -2.978  -9.999  1.00  0.00    -0.234 OA
BRANCH  13  14
HETATM   14  O   UNL     1     -25.480  -4.025  -9.652  1.00  0.00    -0.250 OA
HETATM   15  H   UNL     1     -24.828  -4.749  -9.612  1.00  0.00     0.253 HD
ENDBRANCH  13  14
ENDBRANCH   5  13
ENDBRANCH   4   5
ENDBRANCH   2   3
BRANCH   1  16
HETATM   16  C   UNL     1     -20.264  -6.149  -6.075  1.00  0.00     0.054 C 
BRANCH  16  17
HETATM   17  C   UNL     1     -20.893  -5.716  -4.782  1.00  0.00    -0.027 C 
HETATM   18  C   UNL     1     -21.156  -6.547  -3.760  1.00  0.00    -0.027 C 
BRANCH  18  19
HETATM   19  C   UNL     1     -21.753  -6.113  -2.455  1.00  0.00     0.053 C 
BRANCH  19  20
HETATM   20  C   UNL     1     -22.039  -7.293  -1.571  1.00  0.00    -0.027 C 
HETATM   21  C   UNL     1     -22.616  -7.204  -0.366  1.00  0.00    -0.030 C 
BRANCH  21  22
HETATM   22  C   UNL     1     -22.910  -8.391   0.508  1.00  0.00     0.027 C 
BRANCH  22  23
HETATM   23  C   UNL     1     -22.453  -9.688  -0.160  1.00  0.00     0.004 C 
BRANCH  23  24
HETATM   24  C   UNL     1     -23.537 -10.762  -0.069  1.00  0.00    -0.000 C 
BRANCH  24  25
HETATM   25  C   UNL     1     -23.897 -11.308  -1.450  1.00  0.00    -0.005 C 
HETATM   26  C   UNL     1     -22.831 -10.959  -2.475  1.00  0.00     0.005 C 
ENDBRANCH  24  25
ENDBRANCH  23  24
ENDBRANCH  22  23
ENDBRANCH  21  22
ENDBRANCH  19  20
ENDBRANCH  18  19
ENDBRANCH  16  17
ENDBRANCH   1  16
TORSDOF 17
BEGIN_RES ARG D 557
REMARK  4 active torsions:
REMARK  status: ('A' for Active; 'I' for Inactive)
REMARK    1  A    between atoms: CA   and  CB  
REMARK    2  A    between atoms: CB   and  CG  
REMARK    3  A    between atoms: CG   and  CD  
REMARK    4  A    between atoms: CD   and  NE  
REMARK       I    between atoms: NE   and  CZ  
REMARK       I    between atoms: CZ   and  NH1 
REMARK       I    between atoms: CZ   and  NH2 
ROOT
ATOM      1  CA  ARG D 557     -26.217   2.705 -17.014  1.00 35.49     0.159 C 
ENDROOT
BRANCH   1   2
ATOM      2  CB  ARG D 557     -26.789   1.319 -17.183  1.00 35.49     0.034 C 
BRANCH   2   3
ATOM      3  CG  ARG D 557     -28.219   1.155 -16.896  1.00 35.49     0.027 C 
BRANCH   3   4
ATOM      4  CD  ARG D 557     -28.614  -0.268 -16.793  1.00 35.49     0.116 C 
BRANCH   4   5
ATOM      5  NE  ARG D 557     -27.632  -1.055 -16.094  1.00 35.49    -0.212 N 
ATOM      6  CZ  ARG D 557     -27.505  -2.361 -16.162  1.00 35.49     0.666 C 
ATOM      7  NH1 ARG D 557     -28.304  -3.115 -16.894  1.00 35.49    -0.235 N 
ATOM      8  NH2 ARG D 557     -26.542  -2.907 -15.476  1.00 35.49    -0.235 N 
ATOM      9  HH  ARG D 557     -28.942  -2.777 -17.355  1.00 35.49     0.174 HD
ATOM     10  HH  ARG D 557     -28.171  -3.961 -16.902  1.00 35.49     0.174 HD
ATOM     11  HH  ARG D 557     -26.037  -2.395 -15.018  1.00 35.49     0.174 HD
ATOM     12  HH  ARG D 557     -26.426  -3.746 -15.498  1.00 35.49     0.174 HD
ATOM     13  HE  ARG D 557     -27.121  -0.658 -15.542  1.00 35.49     0.178 HD
ENDBRANCH   4   5
ENDBRANCH   3   4
ENDBRANCH   2   3
ENDBRANCH   1   2
END_RES ARG D 557
BEGIN_RES GLU D 570
REMARK  3 active torsions:
REMARK  status: ('A' for Active; 'I' for Inactive)
REMARK    5  A    between atoms: CA   and  CB  
REMARK    6  A    between atoms: CB   and  CG  
REMARK    7  A    between atoms: CG   and  CD  
ROOT
ATOM     14  CA  GLU D 570     -18.033  -6.348 -13.375  1.00 32.92     0.160 C 
ENDROOT
BRANCH  14  15
ATOM     15  CB  GLU D 570     -19.500  -6.345 -13.794  1.00 32.92     0.043 C 
BRANCH  15  16
ATOM     16  CG  GLU D 570     -19.796  -6.308 -15.249  1.00 32.92     0.100 C 
BRANCH  16  17
ATOM     17  CD  GLU D 570     -21.247  -6.013 -15.548  1.00 32.92     0.185 C 
ATOM     18  OE1 GLU D 570     -21.532  -5.017 -16.241  1.00 32.92    -0.647 OA
ATOM     19  OE2 GLU D 570     -22.110  -6.776 -15.070  1.00 32.92    -0.647 OA
ENDBRANCH  16  17
ENDBRANCH  15  16
ENDBRANCH  14  15
END_RES GLU D 570
ENDMDL
MODEL 3
REMARK VINA RESULT:      -8.2      1.358      1.853
REMARK  17 active torsions:
REMARK  status: ('A' for Active; 'I' for Inactive)
REMARK    1  A    between atoms: C_2  and  C_3 
REMARK    2  A    between atoms: C_3  and  C_4 
REMARK    3  A    between atoms: C_4  and  C_5 
REMARK    4  A    between atoms: C_5  and  C_6 
REMARK    5  A    between atoms: C_7  and  C_8 
REMARK    6  A    between atoms: C_8  and  C_9 
REMARK    7  A    between atoms: C_10  and  C_11 
REMARK    8  A    between atoms: C_11  and  C_12 
REMARK    9  A    between atoms: C_13  and  C_14 
REMARK   10  A    between atoms: C_15  and  C_16 
REMARK   11  A    between atoms: C_16  and  C_17 
REMARK   12  A    between atoms: C_16  and  O_23 
REMARK   13  A    between atoms: C_17  and  C_18 
REMARK   14  A    between atoms: C_18  and  C_19 
REMARK   15  A    between atoms: C_19  and  C_20 
REMARK   16  A    between atoms: C_20  and  O_22 
REMARK   17  A    between atoms: O_23  and  O_24 
ROOT
HETATM    1  C   UNL     1     -19.859  -4.516  -8.521  1.00  0.00    -0.023 C 
HETATM    2  C   UNL     1     -21.141  -4.351  -8.881  1.00  0.00    -0.004 C 
ENDROOT
BRANCH   2   3
HETATM    3  C   UNL     1     -21.524  -3.966 -10.217  1.00  0.00    -0.002 C 
HETATM    4  C   UNL     1     -22.724  -3.445 -10.516  1.00  0.00     0.008 C 
BRANCH   4   5
HETATM    5  C   UNL     1     -23.129  -3.052 -11.913  1.00  0.00     0.183 C 
BRANCH   5   6
HETATM    6  C   UNL     1     -22.702  -4.141 -12.908  1.00  0.00     0.040 C 
BRANCH   6   7
HETATM    7  C   UNL     1     -23.769  -4.512 -13.945  1.00  0.00     0.013 C 
BRANCH   7   8
HETATM    8  C   UNL     1     -23.710  -5.965 -14.411  1.00  0.00     0.110 C 
BRANCH   8   9
HETATM    9  C   UNL     1     -24.928  -6.328 -15.232  1.00  0.00     0.139 C 
HETATM   10  O   UNL     1     -25.352  -7.458 -15.409  1.00  0.00    -0.650 OA
BRANCH   9  11
HETATM   11  O   UNL     1     -25.529  -5.240 -15.772  1.00  0.00    -0.776 OA
HETATM   12  H   UNL     1     -25.899  -4.625 -15.116  1.00  0.00     0.167 HD
ENDBRANCH   9  11
ENDBRANCH   8   9
ENDBRANCH   7   8
ENDBRANCH   6   7
ENDBRANCH   5   6
BRANCH   5  13
HETATM   13  O   UNL     1     -24.555  -2.917 -11.972  1.00  0.00    -0.234 OA
BRANCH  13  14
HETATM   14  O   UNL     1     -25.061  -3.248 -10.644  1.00  0.00    -0.250 OA
HETATM   15  H   UNL     1     -25.887  -3.666 -10.951  1.00  0.00     0.253 HD
ENDBRANCH  13  14
ENDBRANCH   5  13
ENDBRANCH   4   5
ENDBRANCH   2   3
BRANCH   1  16
HETATM   16  C   UNL     1     -19.423  -4.909  -7.141  1.00  0.00     0.054 C 
BRANCH  16  17
HETATM   17  C   UNL     1     -20.362  -5.914  -6.539  1.00  0.00    -0.027 C 
HETATM   18  C   UNL     1     -21.126  -5.675  -5.460  1.00  0.00    -0.027 C 
BRANCH  18  19
HETATM   19  C   UNL     1     -22.091  -6.664  -4.877  1.00  0.00     0.053 C 
BRANCH  19  20
HETATM   20  C   UNL     1     -21.771  -6.947  -3.437  1.00  0.00    -0.027 C 
HETATM   21  C   UNL     1     -22.382  -6.355  -2.403  1.00  0.00    -0.030 C 
BRANCH  21  22
HETATM   22  C   UNL     1     -22.065  -6.654  -0.965  1.00  0.00     0.027 C 
BRANCH  22  23
HETATM   23  C   UNL     1     -21.989  -8.162  -0.722  1.00  0.00     0.004 C 
BRANCH  23  24
HETATM   24  C   UNL     1     -23.089  -8.617   0.237  1.00  0.00    -0.000 C 
BRANCH  24  25
HETATM   25  C   UNL     1     -23.573 -10.026  -0.099  1.00  0.00    -0.005 C 
HETATM   26  C   UNL     1     -22.460 -10.860  -0.711  1.00  0.00     0.005 C 
ENDBRANCH  24  25
ENDBRANCH  23  24
ENDBRANCH  22  23
ENDBRANCH  21  22
ENDBRANCH  19  20
ENDBRANCH  18  19
ENDBRANCH  16  17
ENDBRANCH   1  16
TORSDOF 17
BEGIN_RES ARG D 557
REMARK  4 active torsions:
REMARK  status: ('A' for Active; 'I' for Inactive)
REMARK    1  A    between atoms: CA   and  CB  
REMARK    2  A    between atoms: CB   and  CG  
REMARK    3  A    between atoms: CG   and  CD  
REMARK    4  A    between atoms: CD   and  NE  
REMARK       I    between atoms: NE   and  CZ  
REMARK       I    between atoms: CZ   and  NH1 
REMARK       I    between atoms: CZ   and  NH2 
ROOT
ATOM      1  CA  ARG D 557     -26.217   2.705 -17.014  1.00 35.49     0.159 C 
ENDROOT
BRANCH   1   2
ATOM      2  CB  ARG D 557     -26.789   1.319 -17.183  1.00 35.49     0.034 C 
BRANCH   2   3
ATOM      3  CG  ARG D 557     -28.148   1.098 -16.673  1.00 35.49     0.027 C 
BRANCH   3   4
ATOM      4  CD  ARG D 557     -28.787  -0.097 -17.269  1.00 35.49     0.116 C 
BRANCH   4   5
ATOM      5  NE  ARG D 557     -28.164  -1.319 -16.835  1.00 35.49    -0.212 N 
ATOM      6  CZ  ARG D 557     -28.629  -2.532 -17.035  1.00 35.49     0.666 C 
ATOM      7  NH1 ARG D 557     -29.766  -2.760 -17.666  1.00 35.49    -0.235 N 
ATOM      8  NH2 ARG D 557     -27.920  -3.528 -16.590  1.00 35.49    -0.235 N 
ATOM      9  HH  ARG D 557     -30.248  -2.120 -17.970  1.00 35.49     0.174 HD
ATOM     10  HH  ARG D 557     -30.018  -3.572 -17.770  1.00 35.49     0.174 HD
ATOM     11  HH  ARG D 557     -27.186  -3.351 -16.192  1.00 35.49     0.174 HD
ATOM     12  HH  ARG D 557     -28.186  -4.325 -16.703  1.00 35.49     0.174 HD
ATOM     13  HE  ARG D 557     -27.463  -1.262 -16.356  1.00 35.49     0.178 HD
ENDBRANCH   4   5
ENDBRANCH   3   4
ENDBRANCH   2   3
ENDBRANCH   1   2
END_RES ARG D 557
BEGIN_RES GLU D 570
REMARK  3 active torsions:
REMARK  status: ('A' for Active; 'I' for Inactive)
REMARK    5  A    between atoms: CA   and  CB  
REMARK    6  A    between atoms: CB   and  CG  
REMARK    7  A    between atoms: CG   and  CD  
ROOT
ATOM     14  CA  GLU D 570     -18.033  -6.348 -13.375  1.00 32.92     0.160 C 
ENDROOT
BRANCH  14  15
ATOM     15  CB  GLU D 570     -19.500  -6.345 -13.794  1.00 32.92     0.043 C 
BRANCH  15  16
ATOM     16  CG  GLU D 570     -19.797  -6.262 -15.248  1.00 32.92     0.100 C 
BRANCH  16  17
ATOM     17  CD  GLU D 570     -20.609  -7.433 -15.751  1.00 32.92     0.185 C 
ATOM     18  OE1 GLU D 570     -21.348  -7.275 -16.742  1.00 32.92    -0.647 OA
ATOM     19  OE2 GLU D 570     -20.518  -8.514 -15.137  1.00 32.92    -0.647 OA
ENDBRANCH  16  17
ENDBRANCH  15  16
ENDBRANCH  14  15
END_RES GLU D 570
ENDMDL
MODEL 4
REMARK VINA RESULT:      -7.9      2.936      5.052
REMARK  17 active torsions:
REMARK  status: ('A' for Active; 'I' for Inactive)
REMARK    1  A    between atoms: C_2  and  C_3 
REMARK    2  A    between atoms: C_3  and  C_4 
REMARK    3  A    between atoms: C_4  and  C_5 
REMARK    4  A    between atoms: C_5  and  C_6 
REMARK    5  A    between atoms: C_7  and  C_8 
REMARK    6  A    between atoms: C_8  and  C_9 
REMARK    7  A    between atoms: C_10  and  C_11 
REMARK    8  A    between atoms: C_11  and  C_12 
REMARK    9  A    between atoms: C_13  and  C_14 
REMARK   10  A    between atoms: C_15  and  C_16 
REMARK   11  A    between atoms: C_16  and  C_17 
REMARK   12  A    between atoms: C_16  and  O_23 
REMARK   13  A    between atoms: C_17  and  C_18 
REMARK   14  A    between atoms: C_18  and  C_19 
REMARK   15  A    between atoms: C_19  and  C_20 
REMARK   16  A    between atoms: C_20  and  O_22 
REMARK   17  A    between atoms: O_23  and  O_24 
ROOT
HETATM    1  C   UNL     1     -23.516  -4.790 -11.970  1.00  0.00    -0.023 C 
HETATM    2  C   UNL     1     -23.167  -5.018 -13.246  1.00  0.00    -0.004 C 
ENDROOT
BRANCH   2   3
HETATM    3  C   UNL     1     -23.730  -6.097 -14.019  1.00  0.00    -0.002 C 
HETATM    4  C   UNL     1     -24.588  -5.903 -15.033  1.00  0.00     0.008 C 
BRANCH   4   5
HETATM    5  C   UNL     1     -25.186  -7.030 -15.835  1.00  0.00     0.183 C 
BRANCH   5   6
HETATM    6  C   UNL     1     -25.695  -6.500 -17.183  1.00  0.00     0.040 C 
BRANCH   6   7
HETATM    7  C   UNL     1     -27.127  -5.953 -17.155  1.00  0.00     0.013 C 
BRANCH   7   8
HETATM    8  C   UNL     1     -27.966  -6.329 -18.375  1.00  0.00     0.110 C 
BRANCH   8   9
HETATM    9  C   UNL     1     -29.357  -6.765 -17.972  1.00  0.00     0.139 C 
HETATM   10  O   UNL     1     -30.320  -6.029 -17.837  1.00  0.00    -0.650 OA
BRANCH   9  11
HETATM   11  O   UNL     1     -29.439  -8.103 -17.767  1.00  0.00    -0.776 OA
HETATM   12  H   UNL     1     -28.704  -8.609 -18.155  1.00  0.00     0.167 HD
ENDBRANCH   9  11
ENDBRANCH   8   9
ENDBRANCH   7   8
ENDBRANCH   6   7
ENDBRANCH   5   6
BRANCH   5  13
HETATM   13  O   UNL     1     -24.179  -8.019 -16.087  1.00  0.00    -0.234 OA
BRANCH  13  14
HETATM   14  O   UNL     1     -23.584  -7.690 -17.377  1.00  0.00    -0.250 OA
HETATM   15  H   UNL     1     -23.112  -8.535 -17.491  1.00  0.00     0.253 HD
ENDBRANCH  13  14
ENDBRANCH   5  13
ENDBRANCH   4   5
ENDBRANCH   2   3
BRANCH   1  16
HETATM   16  C   UNL     1     -22.947  -3.683 -11.133  1.00  0.00     0.054 C 
BRANCH  16  17
HETATM   17  C   UNL     1     -21.968  -4.212 -10.125  1.00  0.00    -0.027 C 
HETATM   18  C   UNL     1     -20.641  -4.017 -10.194  1.00  0.00    -0.027 C 
BRANCH  18  19
HETATM   19  C   UNL     1     -19.663  -4.514  -9.172  1.00  0.00     0.053 C 
BRANCH  19  20
HETATM   20  C   UNL     1     -20.356  -4.879  -7.891  1.00  0.00    -0.027 C 
HETATM   21  C   UNL     1     -19.820  -4.711  -6.675  1.00  0.00    -0.030 C 
BRANCH  21  22
HETATM   22  C   UNL     1     -20.526  -5.067  -5.397  1.00  0.00     0.027 C 
BRANCH  22  23
HETATM   23  C   UNL     1     -21.468  -6.254  -5.603  1.00  0.00     0.004 C 
BRANCH  23  24
HETATM   24  C   UNL     1     -22.187  -6.614  -4.303  1.00  0.00    -0.000 C 
BRANCH  24  25
HETATM   25  C   UNL     1     -21.408  -6.128  -3.082  1.00  0.00    -0.005 C 
HETATM   26  C   UNL     1     -22.222  -6.292  -1.809  1.00  0.00     0.005 C 
ENDBRANCH  24  25
ENDBRANCH  23  24
ENDBRANCH  22  23
ENDBRANCH  21  22
ENDBRANCH  19  20
ENDBRANCH  18  19
ENDBRANCH  16  17
ENDBRANCH   1  16
TORSDOF 17
BEGIN_RES ARG D 557
REMARK  4 active torsions:
REMARK  status: ('A' for Active; 'I' for Inactive)
REMARK    1  A    between atoms: CA   and  CB  
REMARK    2  A    between atoms: CB   and  CG  
REMARK    3  A    between atoms: CG   and  CD  
REMARK    4  A    between atoms: CD   and  NE  
REMARK       I    between atoms: NE   and  CZ  
REMARK       I    between atoms: CZ   and  NH1 
REMARK       I    between atoms: CZ   and  NH2 
ROOT
ATOM      1  CA  ARG D 557     -26.217   2.705 -17.014  1.00 35.49     0.159 C 
ENDROOT
BRANCH   1   2
ATOM      2  CB  ARG D 557     -26.789   1.319 -17.183  1.00 35.49     0.034 C 
BRANCH   2   3
ATOM      3  CG  ARG D 557     -28.229   1.227 -17.451  1.00 35.49     0.027 C 
BRANCH   3   4
ATOM      4  CD  ARG D 557     -28.924   0.331 -16.499  1.00 35.49     0.116 C 
BRANCH   4   5
ATOM      5  NE  ARG D 557     -29.335  -0.903 -17.117  1.00 35.49    -0.212 N 
ATOM      6  CZ  ARG D 557     -28.702  -2.051 -17.034  1.00 35.49     0.666 C 
ATOM      7  NH1 ARG D 557     -27.574  -2.193 -16.363  1.00 35.49    -0.235 N 
ATOM      8  NH2 ARG D 557     -29.232  -3.074 -17.641  1.00 35.49    -0.235 N 
ATOM      9  HH  ARG D 557     -27.209  -1.534 -15.954  1.00 35.49     0.174 HD
ATOM     10  HH  ARG D 557     -27.207  -2.967 -16.342  1.00 35.49     0.174 HD
ATOM     11  HH  ARG D 557     -29.964  -2.954 -18.061  1.00 35.49     0.174 HD
ATOM     12  HH  ARG D 557     -28.854  -3.832 -17.607  1.00 35.49     0.174 HD
ATOM     13  HE  ARG D 557     -30.014  -0.886 -17.629  1.00 35.49     0.178 HD
ENDBRANCH   4   5
ENDBRANCH   3   4
ENDBRANCH   2   3
ENDBRANCH   1   2
END_RES ARG D 557
BEGIN_RES GLU D 570
REMARK  3 active torsions:
REMARK  status: ('A' for Active; 'I' for Inactive)
REMARK    5  A    between atoms: CA   and  CB  
REMARK    6  A    between atoms: CB   and  CG  
REMARK    7  A    between atoms: CG   and  CD  
ROOT
ATOM     14  CA  GLU D 570     -18.033  -6.348 -13.375  1.00 32.92     0.160 C 
ENDROOT
BRANCH  14  15
ATOM     15  CB  GLU D 570     -19.500  -6.345 -13.794  1.00 32.92     0.043 C 
BRANCH  15  16
ATOM     16  CG  GLU D 570     -19.863  -5.573 -15.010  1.00 32.92     0.100 C 
BRANCH  16  17
ATOM     17  CD  GLU D 570     -20.798  -6.324 -15.929  1.00 32.92     0.185 C 
ATOM     18  OE1 GLU D 570     -20.855  -7.567 -15.850  1.00 32.92    -0.647 OA
ATOM     19  OE2 GLU D 570     -21.468  -5.665 -16.748  1.00 32.92    -0.647 OA
ENDBRANCH  16  17
ENDBRANCH  15  16
ENDBRANCH  14  15
END_RES GLU D 570
ENDMDL
MODEL 5
REMARK VINA RESULT:      -7.9      2.440      4.603
REMARK  17 active torsions:
REMARK  status: ('A' for Active; 'I' for Inactive)
REMARK    1  A    between atoms: C_2  and  C_3 
REMARK    2  A    between atoms: C_3  and  C_4 
REMARK    3  A    between atoms: C_4  and  C_5 
REMARK    4  A    between atoms: C_5  and  C_6 
REMARK    5  A    between atoms: C_7  and  C_8 
REMARK    6  A    between atoms: C_8  and  C_9 
REMARK    7  A    between atoms: C_10  and  C_11 
REMARK    8  A    between atoms: C_11  and  C_12 
REMARK    9  A    between atoms: C_13  and  C_14 
REMARK   10  A    between atoms: C_15  and  C_16 
REMARK   11  A    between atoms: C_16  and  C_17 
REMARK   12  A    between atoms: C_16  and  O_23 
REMARK   13  A    between atoms: C_17  and  C_18 
REMARK   14  A    between atoms: C_18  and  C_19 
REMARK   15  A    between atoms: C_19  and  C_20 
REMARK   16  A    between atoms: C_20  and  O_22 
REMARK   17  A    between atoms: O_23  and  O_24 
ROOT
HETATM    1  C   UNL     1     -22.667  -4.774 -12.034  1.00  0.00    -0.023 C 
HETATM    2  C   UNL     1     -22.777  -5.046 -13.343  1.00  0.00    -0.004 C 
ENDROOT
BRANCH   2   3
HETATM    3  C   UNL     1     -23.709  -6.021 -13.853  1.00  0.00    -0.002 C 
HETATM    4  C   UNL     1     -24.255  -5.945 -15.077  1.00  0.00     0.008 C 
BRANCH   4   5
HETATM    5  C   UNL     1     -25.237  -6.957 -15.608  1.00  0.00     0.183 C 
BRANCH   5   6
HETATM    6  C   UNL     1     -26.034  -6.352 -16.773  1.00  0.00     0.040 C 
BRANCH   6   7
HETATM    7  C   UNL     1     -27.538  -6.212 -16.514  1.00  0.00     0.013 C 
BRANCH   7   8
HETATM    8  C   UNL     1     -27.905  -5.088 -15.547  1.00  0.00     0.110 C 
BRANCH   8   9
HETATM    9  C   UNL     1     -27.561  -3.732 -16.124  1.00  0.00     0.139 C 
HETATM   10  O   UNL     1     -26.654  -3.010 -15.744  1.00  0.00    -0.650 OA
BRANCH   9  11
HETATM   11  O   UNL     1     -28.384  -3.381 -17.142  1.00  0.00    -0.776 OA
HETATM   12  H   UNL     1     -28.653  -2.447 -17.129  1.00  0.00     0.167 HD
ENDBRANCH   9  11
ENDBRANCH   8   9
ENDBRANCH   7   8
ENDBRANCH   6   7
ENDBRANCH   5   6
BRANCH   5  13
HETATM   13  O   UNL     1     -24.523  -8.102 -16.091  1.00  0.00    -0.234 OA
BRANCH  13  14
HETATM   14  O   UNL     1     -24.027  -7.755 -17.419  1.00  0.00    -0.250 OA
HETATM   15  H   UNL     1     -24.728  -7.109 -17.624  1.00  0.00     0.253 HD
ENDBRANCH  13  14
ENDBRANCH   5  13
ENDBRANCH   4   5
ENDBRANCH   2   3
BRANCH   1  16
HETATM   16  C   UNL     1     -21.705  -3.773 -11.466  1.00  0.00     0.054 C 
BRANCH  16  17
HETATM   17  C   UNL     1     -21.424  -4.050 -10.017  1.00  0.00    -0.027 C 
HETATM   18  C   UNL     1     -20.190  -4.083  -9.486  1.00  0.00    -0.027 C 
BRANCH  18  19
HETATM   19  C   UNL     1     -19.906  -4.326  -8.034  1.00  0.00     0.053 C 
BRANCH  19  20
HETATM   20  C   UNL     1     -21.125  -4.835  -7.321  1.00  0.00    -0.027 C 
HETATM   21  C   UNL     1     -21.088  -5.681  -6.283  1.00  0.00    -0.030 C 
BRANCH  21  22
HETATM   22  C   UNL     1     -22.313  -6.176  -5.566  1.00  0.00     0.027 C 
BRANCH  22  23
HETATM   23  C   UNL     1     -21.932  -7.039  -4.363  1.00  0.00     0.004 C 
BRANCH  23  24
HETATM   24  C   UNL     1     -21.296  -6.192  -3.261  1.00  0.00    -0.000 C 
BRANCH  24  25
HETATM   25  C   UNL     1     -22.193  -6.117  -2.027  1.00  0.00    -0.005 C 
HETATM   26  C   UNL     1     -22.045  -7.358  -1.163  1.00  0.00     0.005 C 
ENDBRANCH  24  25
ENDBRANCH  23  24
ENDBRANCH  22  23
ENDBRANCH  21  22
ENDBRANCH  19  20
ENDBRANCH  18  19
ENDBRANCH  16  17
ENDBRANCH   1  16
TORSDOF 17
BEGIN_RES ARG D 557
REMARK  4 active torsions:
REMARK  status: ('A' for Active; 'I' for Inactive)
REMARK    1  A    between atoms: CA   and  CB  
REMARK    2  A    between atoms: CB   and  CG  
REMARK    3  A    between atoms: CG   and  CD  
REMARK    4  A    between atoms: CD   and  NE  
REMARK       I    between atoms: NE   and  CZ  
REMARK       I    between atoms: CZ   and  NH1 
REMARK       I    between atoms: CZ   and  NH2 
ROOT
ATOM      1  CA  ARG D 557     -26.217   2.705 -17.014  1.00 35.49     0.159 C 
ENDROOT
BRANCH   1   2
ATOM      2  CB  ARG D 557     -26.789   1.319 -17.183  1.00 35.49     0.034 C 
BRANCH   2   3
ATOM      3  CG  ARG D 557     -25.834   0.204 -17.175  1.00 35.49     0.027 C 
BRANCH   3   4
ATOM      4  CD  ARG D 557     -24.746   0.400 -16.189  1.00 35.49     0.116 C 
BRANCH   4   5
ATOM      5  NE  ARG D 557     -24.905  -0.441 -15.033  1.00 35.49    -0.212 N 
ATOM      6  CZ  ARG D 557     -24.091  -1.406 -14.667  1.00 35.49     0.666 C 
ATOM      7  NH1 ARG D 557     -23.011  -1.722 -15.357  1.00 35.49    -0.235 N 
ATOM      8  NH2 ARG D 557     -24.379  -2.054 -13.576  1.00 35.49    -0.235 N 
ATOM      9  HH  ARG D 557     -22.800  -1.307 -16.077  1.00 35.49     0.174 HD
ATOM     10  HH  ARG D 557     -22.515  -2.359 -15.069  1.00 35.49     0.174 HD
ATOM     11  HH  ARG D 557     -25.079  -1.823 -13.146  1.00 35.49     0.174 HD
ATOM     12  HH  ARG D 557     -23.875  -2.680 -13.306  1.00 35.49     0.174 HD
ATOM     13  HE  ARG D 557     -25.613  -0.355 -14.570  1.00 35.49     0.178 HD
ENDBRANCH   4   5
ENDBRANCH   3   4
ENDBRANCH   2   3
ENDBRANCH   1   2
END_RES ARG D 557
BEGIN_RES GLU D 570
REMARK  3 active torsions:
REMARK  status: ('A' for Active; 'I' for Inactive)
REMARK    5  A    between atoms: CA   and  CB  
REMARK    6  A    between atoms: CB   and  CG  
REMARK    7  A    between atoms: CG   and  CD  
ROOT
ATOM     14  CA  GLU D 570     -18.033  -6.348 -13.375  1.00 32.92     0.160 C 
ENDROOT
BRANCH  14  15
ATOM     15  CB  GLU D 570     -19.500  -6.345 -13.794  1.00 32.92     0.043 C 
BRANCH  15  16
ATOM     16  CG  GLU D 570     -20.079  -7.629 -14.267  1.00 32.92     0.100 C 
BRANCH  16  17
ATOM     17  CD  GLU D 570     -20.771  -7.505 -15.605  1.00 32.92     0.185 C 
ATOM     18  OE1 GLU D 570     -21.228  -8.530 -16.147  1.00 32.92    -0.647 OA
ATOM     19  OE2 GLU D 570     -20.842  -6.374 -16.124  1.00 32.92    -0.647 OA
ENDBRANCH  16  17
ENDBRANCH  15  16
ENDBRANCH  14  15
END_RES GLU D 570
ENDMDL
MODEL 6
REMARK VINA RESULT:      -7.8      1.383      2.555
REMARK  17 active torsions:
REMARK  status: ('A' for Active; 'I' for Inactive)
REMARK    1  A    between atoms: C_2  and  C_3 
REMARK    2  A    between atoms: C_3  and  C_4 
REMARK    3  A    between atoms: C_4  and  C_5 
REMARK    4  A    between atoms: C_5  and  C_6 
REMARK    5  A    between atoms: C_7  and  C_8 
REMARK    6  A    between atoms: C_8  and  C_9 
REMARK    7  A    between atoms: C_10  and  C_11 
REMARK    8  A    between atoms: C_11  and  C_12 
REMARK    9  A    between atoms: C_13  and  C_14 
REMARK   10  A    between atoms: C_15  and  C_16 
REMARK   11  A    between atoms: C_16  and  C_17 
REMARK   12  A    between atoms: C_16  and  O_23 
REMARK   13  A    between atoms: C_17  and  C_18 
REMARK   14  A    between atoms: C_18  and  C_19 
REMARK   15  A    between atoms: C_19  and  C_20 
REMARK   16  A    between atoms: C_20  and  O_22 
REMARK   17  A    between atoms: O_23  and  O_24 
ROOT
HETATM    1  C   UNL     1     -21.794  -5.811  -5.955  1.00  0.00    -0.023 C 
HETATM    2  C   UNL     1     -21.196  -4.849  -6.675  1.00  0.00    -0.004 C 
ENDROOT
BRANCH   2   3
HETATM    3  C   UNL     1     -21.649  -4.477  -7.993  1.00  0.00    -0.002 C 
HETATM    4  C   UNL     1     -22.902  -4.071  -8.251  1.00  0.00     0.008 C 
BRANCH   4   5
HETATM    5  C   UNL     1     -23.380  -3.692  -9.629  1.00  0.00     0.183 C 
BRANCH   5   6
HETATM    6  C   UNL     1     -22.384  -4.192 -10.684  1.00  0.00     0.040 C 
BRANCH   6   7
HETATM    7  C   UNL     1     -22.016  -3.159 -11.756  1.00  0.00     0.013 C 
BRANCH   7   8
HETATM    8  C   UNL     1     -22.606  -3.449 -13.134  1.00  0.00     0.110 C 
BRANCH   8   9
HETATM    9  C   UNL     1     -23.744  -2.505 -13.454  1.00  0.00     0.139 C 
HETATM   10  O   UNL     1     -23.764  -1.705 -14.375  1.00  0.00    -0.650 OA
BRANCH   9  11
HETATM   11  O   UNL     1     -24.781  -2.636 -12.591  1.00  0.00    -0.776 OA
HETATM   12  H   UNL     1     -24.557  -2.427 -11.668  1.00  0.00     0.167 HD
ENDBRANCH   9  11
ENDBRANCH   8   9
ENDBRANCH   7   8
ENDBRANCH   6   7
ENDBRANCH   5   6
BRANCH   5  13
HETATM   13  O   UNL     1     -24.650  -4.310  -9.875  1.00  0.00    -0.234 OA
BRANCH  13  14
HETATM   14  O   UNL     1     -25.656  -3.260  -9.752  1.00  0.00    -0.250 OA
HETATM   15  H   UNL     1     -26.425  -3.835  -9.918  1.00  0.00     0.253 HD
ENDBRANCH  13  14
ENDBRANCH   5  13
ENDBRANCH   4   5
ENDBRANCH   2   3
BRANCH   1  16
HETATM   16  C   UNL     1     -21.348  -6.229  -4.586  1.00  0.00     0.054 C 
BRANCH  16  17
HETATM   17  C   UNL     1     -20.865  -7.651  -4.582  1.00  0.00    -0.027 C 
HETATM   18  C   UNL     1     -21.632  -8.703  -4.252  1.00  0.00    -0.027 C 
BRANCH  18  19
HETATM   19  C   UNL     1     -21.165 -10.128  -4.279  1.00  0.00     0.053 C 
BRANCH  19  20
HETATM   20  C   UNL     1     -21.913 -10.963  -3.281  1.00  0.00    -0.027 C 
HETATM   21  C   UNL     1     -22.888 -10.493  -2.492  1.00  0.00    -0.030 C 
BRANCH  21  22
HETATM   22  C   UNL     1     -23.641 -11.338  -1.504  1.00  0.00     0.027 C 
BRANCH  22  23
HETATM   23  C   UNL     1     -23.642 -10.691  -0.118  1.00  0.00     0.004 C 
BRANCH  23  24
HETATM   24  C   UNL     1     -22.515  -9.667   0.008  1.00  0.00    -0.000 C 
BRANCH  24  25
HETATM   25  C   UNL     1     -23.057  -8.280   0.346  1.00  0.00    -0.005 C 
HETATM   26  C   UNL     1     -22.463  -7.218  -0.565  1.00  0.00     0.005 C 
ENDBRANCH  24  25
ENDBRANCH  23  24
ENDBRANCH  22  23
ENDBRANCH  21  22
ENDBRANCH  19  20
ENDBRANCH  18  19
ENDBRANCH  16  17
ENDBRANCH   1  16
TORSDOF 17
BEGIN_RES ARG D 557
REMARK  4 active torsions:
REMARK  status: ('A' for Active; 'I' for Inactive)
REMARK    1  A    between atoms: CA   and  CB  
REMARK    2  A    between atoms: CB   and  CG  
REMARK    3  A    between atoms: CG   and  CD  
REMARK    4  A    between atoms: CD   and  NE  
REMARK       I    between atoms: NE   and  CZ  
REMARK       I    between atoms: CZ   and  NH1 
REMARK       I    between atoms: CZ   and  NH2 
ROOT
ATOM      1  CA  ARG D 557     -26.217   2.705 -17.014  1.00 35.49     0.159 C 
ENDROOT
BRANCH   1   2
ATOM      2  CB  ARG D 557     -26.789   1.319 -17.183  1.00 35.49     0.034 C 
BRANCH   2   3
ATOM      3  CG  ARG D 557     -28.227   1.163 -16.935  1.00 35.49     0.027 C 
BRANCH   3   4
ATOM      4  CD  ARG D 557     -28.618  -0.253 -16.750  1.00 35.49     0.116 C 
BRANCH   4   5
ATOM      5  NE  ARG D 557     -27.626  -0.999 -16.021  1.00 35.49    -0.212 N 
ATOM      6  CZ  ARG D 557     -27.453  -2.300 -16.071  1.00 35.49     0.666 C 
ATOM      7  NH1 ARG D 557     -28.210  -3.088 -16.812  1.00 35.49    -0.235 N 
ATOM      8  NH2 ARG D 557     -26.488  -2.806 -15.359  1.00 35.49    -0.235 N 
ATOM      9  HH  ARG D 557     -28.849  -2.777 -17.291  1.00 35.49     0.174 HD
ATOM     10  HH  ARG D 557     -28.048  -3.930 -16.807  1.00 35.49     0.174 HD
ATOM     11  HH  ARG D 557     -26.011  -2.272 -14.896  1.00 35.49     0.174 HD
ATOM     12  HH  ARG D 557     -26.343  -3.641 -15.368  1.00 35.49     0.174 HD
ATOM     13  HE  ARG D 557     -27.141  -0.579 -15.463  1.00 35.49     0.178 HD
ENDBRANCH   4   5
ENDBRANCH   3   4
ENDBRANCH   2   3
ENDBRANCH   1   2
END_RES ARG D 557
BEGIN_RES GLU D 570
REMARK  3 active torsions:
REMARK  status: ('A' for Active; 'I' for Inactive)
REMARK    5  A    between atoms: CA   and  CB  
REMARK    6  A    between atoms: CB   and  CG  
REMARK    7  A    between atoms: CG   and  CD  
ROOT
ATOM     14  CA  GLU D 570     -18.033  -6.348 -13.375  1.00 32.92     0.160 C 
ENDROOT
BRANCH  14  15
ATOM     15  CB  GLU D 570     -19.500  -6.345 -13.794  1.00 32.92     0.043 C 
BRANCH  15  16
ATOM     16  CG  GLU D 570     -19.798  -6.482 -15.243  1.00 32.92     0.100 C 
BRANCH  16  17
ATOM     17  CD  GLU D 570     -20.951  -7.417 -15.522  1.00 32.92     0.185 C 
ATOM     18  OE1 GLU D 570     -20.710  -8.602 -15.823  1.00 32.92    -0.647 OA
ATOM     19  OE2 GLU D 570     -22.108  -6.956 -15.455  1.00 32.92    -0.647 OA
ENDBRANCH  16  17
ENDBRANCH  15  16
ENDBRANCH  14  15
END_RES GLU D 570
ENDMDL
MODEL 7
REMARK VINA RESULT:      -7.6      2.083      4.342
REMARK  17 active torsions:
REMARK  status: ('A' for Active; 'I' for Inactive)
REMARK    1  A    between atoms: C_2  and  C_3 
REMARK    2  A    between atoms: C_3  and  C_4 
REMARK    3  A    between atoms: C_4  and  C_5 
REMARK    4  A    between atoms: C_5  and  C_6 
REMARK    5  A    between atoms: C_7  and  C_8 
REMARK    6  A    between atoms: C_8  and  C_9 
REMARK    7  A    between atoms: C_10  and  C_11 
REMARK    8  A    between atoms: C_11  and  C_12 
REMARK    9  A    between atoms: C_13  and  C_14 
REMARK   10  A    between atoms: C_15  and  C_16 
REMARK   11  A    between atoms: C_16  and  C_17 
REMARK   12  A    between atoms: C_16  and  O_23 
REMARK   13  A    between atoms: C_17  and  C_18 
REMARK   14  A    between atoms: C_18  and  C_19 
REMARK   15  A    between atoms: C_19  and  C_20 
REMARK   16  A    between atoms: C_20  and  O_22 
REMARK   17  A    between atoms: O_23  and  O_24 
ROOT
HETATM    1  C   UNL     1     -21.523  -6.129  -3.839  1.00  0.00    -0.023 C 
HETATM    2  C   UNL     1     -20.757  -5.490  -4.736  1.00  0.00    -0.004 C 
ENDROOT
BRANCH   2   3
HETATM    3  C   UNL     1     -21.135  -5.362  -6.122  1.00  0.00    -0.002 C 
HETATM    4  C   UNL     1     -20.992  -4.225  -6.820  1.00  0.00     0.008 C 
BRANCH   4   5
HETATM    5  C   UNL     1     -21.397  -4.087  -8.265  1.00  0.00     0.183 C 
BRANCH   5   6
HETATM    6  C   UNL     1     -20.299  -4.660  -9.173  1.00  0.00     0.040 C 
BRANCH   6   7
HETATM    7  C   UNL     1     -20.569  -4.508 -10.675  1.00  0.00     0.013 C 
BRANCH   7   8
HETATM    8  C   UNL     1     -20.990  -3.103 -11.097  1.00  0.00     0.110 C 
BRANCH   8   9
HETATM    9  C   UNL     1     -22.416  -3.086 -11.604  1.00  0.00     0.139 C 
HETATM   10  O   UNL     1     -22.902  -2.229 -12.324  1.00  0.00    -0.650 OA
BRANCH   9  11
HETATM   11  O   UNL     1     -23.130  -4.153 -11.170  1.00  0.00    -0.776 OA
HETATM   12  H   UNL     1     -22.599  -4.824 -10.708  1.00  0.00     0.167 HD
ENDBRANCH   9  11
ENDBRANCH   8   9
ENDBRANCH   7   8
ENDBRANCH   6   7
ENDBRANCH   5   6
BRANCH   5  13
HETATM   13  O   UNL     1     -22.604  -4.825  -8.491  1.00  0.00    -0.234 OA
BRANCH  13  14
HETATM   14  O   UNL     1     -23.709  -3.926  -8.175  1.00  0.00    -0.250 OA
HETATM   15  H   UNL     1     -23.651  -4.028  -7.208  1.00  0.00     0.253 HD
ENDBRANCH  13  14
ENDBRANCH   5  13
ENDBRANCH   4   5
ENDBRANCH   2   3
BRANCH   1  16
HETATM   16  C   UNL     1     -21.160  -6.288  -2.392  1.00  0.00     0.054 C 
BRANCH  16  17
HETATM   17  C   UNL     1     -22.078  -7.257  -1.704  1.00  0.00    -0.027 C 
HETATM   18  C   UNL     1     -22.231  -7.329  -0.372  1.00  0.00    -0.027 C 
BRANCH  18  19
HETATM   19  C   UNL     1     -23.171  -8.272   0.318  1.00  0.00     0.053 C 
BRANCH  19  20
HETATM   20  C   UNL     1     -23.001  -9.674  -0.189  1.00  0.00    -0.027 C 
HETATM   21  C   UNL     1     -23.961 -10.608  -0.149  1.00  0.00    -0.030 C 
BRANCH  21  22
HETATM   22  C   UNL     1     -23.786 -12.006  -0.671  1.00  0.00     0.027 C 
BRANCH  22  23
HETATM   23  C   UNL     1     -22.452 -12.156  -1.402  1.00  0.00     0.004 C 
BRANCH  23  24
HETATM   24  C   UNL     1     -22.670 -12.367  -2.900  1.00  0.00    -0.000 C 
BRANCH  24  25
HETATM   25  C   UNL     1     -22.731 -11.036  -3.648  1.00  0.00    -0.005 C 
HETATM   26  C   UNL     1     -21.405 -10.297  -3.567  1.00  0.00     0.005 C 
ENDBRANCH  24  25
ENDBRANCH  23  24
ENDBRANCH  22  23
ENDBRANCH  21  22
ENDBRANCH  19  20
ENDBRANCH  18  19
ENDBRANCH  16  17
ENDBRANCH   1  16
TORSDOF 17
BEGIN_RES ARG D 557
REMARK  4 active torsions:
REMARK  status: ('A' for Active; 'I' for Inactive)
REMARK    1  A    between atoms: CA   and  CB  
REMARK    2  A    between atoms: CB   and  CG  
REMARK    3  A    between atoms: CG   and  CD  
REMARK    4  A    between atoms: CD   and  NE  
REMARK       I    between atoms: NE   and  CZ  
REMARK       I    between atoms: CZ   and  NH1 
REMARK       I    between atoms: CZ   and  NH2 
ROOT
ATOM      1  CA  ARG D 557     -26.217   2.705 -17.014  1.00 35.49     0.159 C 
ENDROOT
BRANCH   1   2
ATOM      2  CB  ARG D 557     -26.789   1.319 -17.183  1.00 35.49     0.034 C 
BRANCH   2   3
ATOM      3  CG  ARG D 557     -26.120   0.235 -16.454  1.00 35.49     0.027 C 
BRANCH   3   4
ATOM      4  CD  ARG D 557     -27.048  -0.865 -16.102  1.00 35.49     0.116 C 
BRANCH   4   5
ATOM      5  NE  ARG D 557     -26.356  -2.007 -15.566  1.00 35.49    -0.212 N 
ATOM      6  CZ  ARG D 557     -25.288  -1.970 -14.801  1.00 35.49     0.666 C 
ATOM      7  NH1 ARG D 557     -24.711  -0.837 -14.444  1.00 35.49    -0.235 N 
ATOM      8  NH2 ARG D 557     -24.805  -3.105 -14.388  1.00 35.49    -0.235 N 
ATOM      9  HH  ARG D 557     -25.014  -0.078 -14.702  1.00 35.49     0.174 HD
ATOM     10  HH  ARG D 557     -24.018  -0.874 -13.941  1.00 35.49     0.174 HD
ATOM     11  HH  ARG D 557     -25.202  -3.820 -14.629  1.00 35.49     0.174 HD
ATOM     12  HH  ARG D 557     -24.119  -3.121 -13.890  1.00 35.49     0.174 HD
ATOM     13  HE  ARG D 557     -26.617  -2.781 -15.806  1.00 35.49     0.178 HD
ENDBRANCH   4   5
ENDBRANCH   3   4
ENDBRANCH   2   3
ENDBRANCH   1   2
END_RES ARG D 557
BEGIN_RES GLU D 570
REMARK  3 active torsions:
REMARK  status: ('A' for Active; 'I' for Inactive)
REMARK    5  A    between atoms: CA   and  CB  
REMARK    6  A    between atoms: CB   and  CG  
REMARK    7  A    between atoms: CG   and  CD  
ROOT
ATOM     14  CA  GLU D 570     -18.033  -6.348 -13.375  1.00 32.92     0.160 C 
ENDROOT
BRANCH  14  15
ATOM     15  CB  GLU D 570     -19.500  -6.345 -13.794  1.00 32.92     0.043 C 
BRANCH  15  16
ATOM     16  CG  GLU D 570     -19.803  -6.070 -15.222  1.00 32.92     0.100 C 
BRANCH  16  17
ATOM     17  CD  GLU D 570     -21.111  -5.339 -15.416  1.00 32.92     0.185 C 
ATOM     18  OE1 GLU D 570     -21.504  -5.097 -16.574  1.00 32.92    -0.647 OA
ATOM     19  OE2 GLU D 570     -21.742  -4.989 -14.399  1.00 32.92    -0.647 OA
ENDBRANCH  16  17
ENDBRANCH  15  16
ENDBRANCH  14  15
END_RES GLU D 570
ENDMDL
MODEL 8
REMARK VINA RESULT:      -7.6      3.415      9.929
REMARK  17 active torsions:
REMARK  status: ('A' for Active; 'I' for Inactive)
REMARK    1  A    between atoms: C_2  and  C_3 
REMARK    2  A    between atoms: C_3  and  C_4 
REMARK    3  A    between atoms: C_4  and  C_5 
REMARK    4  A    between atoms: C_5  and  C_6 
REMARK    5  A    between atoms: C_7  and  C_8 
REMARK    6  A    between atoms: C_8  and  C_9 
REMARK    7  A    between atoms: C_10  and  C_11 
REMARK    8  A    between atoms: C_11  and  C_12 
REMARK    9  A    between atoms: C_13  and  C_14 
REMARK   10  A    between atoms: C_15  and  C_16 
REMARK   11  A    between atoms: C_16  and  C_17 
REMARK   12  A    between atoms: C_16  and  O_23 
REMARK   13  A    between atoms: C_17  and  C_18 
REMARK   14  A    between atoms: C_18  and  C_19 
REMARK   15  A    between atoms: C_19  and  C_20 
REMARK   16  A    between atoms: C_20  and  O_22 
REMARK   17  A    between atoms: O_23  and  O_24 
ROOT
HETATM    1  C   UNL     1     -22.577  -4.897 -12.351  1.00  0.00    -0.023 C 
HETATM    2  C   UNL     1     -21.584  -4.236 -11.735  1.00  0.00    -0.004 C 
ENDROOT
BRANCH   2   3
HETATM    3  C   UNL     1     -21.421  -4.251 -10.302  1.00  0.00    -0.002 C 
HETATM    4  C   UNL     1     -22.331  -4.772  -9.465  1.00  0.00     0.008 C 
BRANCH   4   5
HETATM    5  C   UNL     1     -22.167  -4.779  -7.967  1.00  0.00     0.183 C 
BRANCH   5   6
HETATM    6  C   UNL     1     -20.958  -3.921  -7.569  1.00  0.00     0.040 C 
BRANCH   6   7
HETATM    7  C   UNL     1     -19.903  -4.653  -6.732  1.00  0.00     0.013 C 
BRANCH   7   8
HETATM    8  C   UNL     1     -20.190  -4.663  -5.232  1.00  0.00     0.110 C 
BRANCH   8   9
HETATM    9  C   UNL     1     -20.947  -5.909  -4.825  1.00  0.00     0.139 C 
HETATM   10  O   UNL     1     -21.816  -5.963  -3.971  1.00  0.00    -0.650 OA
BRANCH   9  11
HETATM   11  O   UNL     1     -20.555  -7.001  -5.526  1.00  0.00    -0.776 OA
HETATM   12  H   UNL     1     -19.842  -7.509  -5.102  1.00  0.00     0.167 HD
ENDBRANCH   9  11
ENDBRANCH   8   9
ENDBRANCH   7   8
ENDBRANCH   6   7
ENDBRANCH   5   6
BRANCH   5  13
HETATM   13  O   UNL     1     -23.340  -4.220  -7.360  1.00  0.00    -0.234 OA
BRANCH  13  14
HETATM   14  O   UNL     1     -24.261  -3.903  -8.446  1.00  0.00    -0.250 OA
HETATM   15  H   UNL     1     -24.826  -3.301  -7.928  1.00  0.00     0.253 HD
ENDBRANCH  13  14
ENDBRANCH   5  13
ENDBRANCH   4   5
ENDBRANCH   2   3
BRANCH   1  16
HETATM   16  C   UNL     1     -22.782  -4.899 -13.837  1.00  0.00     0.054 C 
BRANCH  16  17
HETATM   17  C   UNL     1     -23.867  -5.859 -14.234  1.00  0.00    -0.027 C 
HETATM   18  C   UNL     1     -24.118  -6.224 -15.503  1.00  0.00    -0.027 C 
BRANCH  18  19
HETATM   19  C   UNL     1     -25.177  -7.208 -15.902  1.00  0.00     0.053 C 
BRANCH  19  20
HETATM   20  C   UNL     1     -26.549  -6.618 -15.749  1.00  0.00    -0.027 C 
HETATM   21  C   UNL     1     -26.887  -5.390 -16.162  1.00  0.00    -0.030 C 
BRANCH  21  22
HETATM   22  C   UNL     1     -28.266  -4.811 -16.018  1.00  0.00     0.027 C 
BRANCH  22  23
HETATM   23  C   UNL     1     -28.706  -4.114 -17.306  1.00  0.00     0.004 C 
BRANCH  23  24
HETATM   24  C   UNL     1     -29.066  -5.135 -18.384  1.00  0.00    -0.000 C 
BRANCH  24  25
HETATM   25  C   UNL     1     -30.170  -6.079 -17.912  1.00  0.00    -0.005 C 
HETATM   26  C   UNL     1     -29.813  -7.530 -18.195  1.00  0.00     0.005 C 
ENDBRANCH  24  25
ENDBRANCH  23  24
ENDBRANCH  22  23
ENDBRANCH  21  22
ENDBRANCH  19  20
ENDBRANCH  18  19
ENDBRANCH  16  17
ENDBRANCH   1  16
TORSDOF 17
BEGIN_RES ARG D 557
REMARK  4 active torsions:
REMARK  status: ('A' for Active; 'I' for Inactive)
REMARK    1  A    between atoms: CA   and  CB  
REMARK    2  A    between atoms: CB   and  CG  
REMARK    3  A    between atoms: CG   and  CD  
REMARK    4  A    between atoms: CD   and  NE  
REMARK       I    between atoms: NE   and  CZ  
REMARK       I    between atoms: CZ   and  NH1 
REMARK       I    between atoms: CZ   and  NH2 
ROOT
ATOM      1  CA  ARG D 557     -26.217   2.705 -17.014  1.00 35.49     0.159 C 
ENDROOT
BRANCH   1   2
ATOM      2  CB  ARG D 557     -26.789   1.319 -17.183  1.00 35.49     0.034 C 
BRANCH   2   3
ATOM      3  CG  ARG D 557     -25.833   0.205 -17.184  1.00 35.49     0.027 C 
BRANCH   3   4
ATOM      4  CD  ARG D 557     -24.723   0.413 -16.226  1.00 35.49     0.116 C 
BRANCH   4   5
ATOM      5  NE  ARG D 557     -24.872  -0.390 -15.041  1.00 35.49    -0.212 N 
ATOM      6  CZ  ARG D 557     -24.078  -1.371 -14.674  1.00 35.49     0.666 C 
ATOM      7  NH1 ARG D 557     -23.032  -1.743 -15.389  1.00 35.49    -0.235 N 
ATOM      8  NH2 ARG D 557     -24.352  -1.979 -13.556  1.00 35.49    -0.235 N 
ATOM      9  HH  ARG D 557     -22.832  -1.356 -16.127  1.00 35.49     0.174 HD
ATOM     10  HH  ARG D 557     -22.549  -2.388 -15.098  1.00 35.49     0.174 HD
ATOM     11  HH  ARG D 557     -25.029  -1.712 -13.111  1.00 35.49     0.174 HD
ATOM     12  HH  ARG D 557     -23.861  -2.614 -13.284  1.00 35.49     0.174 HD
ATOM     13  HE  ARG D 557     -25.561  -0.267 -14.559  1.00 35.49     0.178 HD
ENDBRANCH   4   5
ENDBRANCH   3   4
ENDBRANCH   2   3
ENDBRANCH   1   2
END_RES ARG D 557
BEGIN_RES GLU D 570
REMARK  3 active torsions:
REMARK  status: ('A' for Active; 'I' for Inactive)
REMARK    5  A    between atoms: CA   and  CB  
REMARK    6  A    between atoms: CB   and  CG  
REMARK    7  A    between atoms: CG   and  CD  
ROOT
ATOM     14  CA  GLU D 570     -18.033  -6.348 -13.375  1.00 32.92     0.160 C 
ENDROOT
BRANCH  14  15
ATOM     15  CB  GLU D 570     -19.500  -6.345 -13.794  1.00 32.92     0.043 C 
BRANCH  15  16
ATOM     16  CG  GLU D 570     -20.097  -7.642 -14.205  1.00 32.92     0.100 C 
BRANCH  16  17
ATOM     17  CD  GLU D 570     -20.714  -7.596 -15.583  1.00 32.92     0.185 C 
ATOM     18  OE1 GLU D 570     -20.640  -6.543 -16.245  1.00 32.92    -0.647 OA
ATOM     19  OE2 GLU D 570     -21.293  -8.620 -15.999  1.00 32.92    -0.647 OA
ENDBRANCH  16  17
ENDBRANCH  15  16
ENDBRANCH  14  15
END_RES GLU D 570
ENDMDL
MODEL 9
REMARK VINA RESULT:      -7.5      3.068      5.060
REMARK  17 active torsions:
REMARK  status: ('A' for Active; 'I' for Inactive)
REMARK    1  A    between atoms: C_2  and  C_3 
REMARK    2  A    between atoms: C_3  and  C_4 
REMARK    3  A    between atoms: C_4  and  C_5 
REMARK    4  A    between atoms: C_5  and  C_6 
REMARK    5  A    between atoms: C_7  and  C_8 
REMARK    6  A    between atoms: C_8  and  C_9 
REMARK    7  A    between atoms: C_10  and  C_11 
REMARK    8  A    between atoms: C_11  and  C_12 
REMARK    9  A    between atoms: C_13  and  C_14 
REMARK   10  A    between atoms: C_15  and  C_16 
REMARK   11  A    between atoms: C_16  and  C_17 
REMARK   12  A    between atoms: C_16  and  O_23 
REMARK   13  A    between atoms: C_17  and  C_18 
REMARK   14  A    between atoms: C_18  and  C_19 
REMARK   15  A    between atoms: C_19  and  C_20 
REMARK   16  A    between atoms: C_20  and  O_22 
REMARK   17  A    between atoms: O_23  and  O_24 
ROOT
HETATM    1  C   UNL     1     -22.509  -4.890 -12.490  1.00  0.00    -0.023 C 
HETATM    2  C   UNL     1     -23.109  -4.245 -13.503  1.00  0.00    -0.004 C 
ENDROOT
BRANCH   2   3
HETATM    3  C   UNL     1     -24.113  -4.869 -14.329  1.00  0.00    -0.002 C 
HETATM    4  C   UNL     1     -23.849  -5.887 -15.162  1.00  0.00     0.008 C 
BRANCH   4   5
HETATM    5  C   UNL     1     -24.895  -6.534 -16.033  1.00  0.00     0.183 C 
BRANCH   5   6
HETATM    6  C   UNL     1     -24.232  -7.163 -17.267  1.00  0.00     0.040 C 
BRANCH   6   7
HETATM    7  C   UNL     1     -24.947  -6.877 -18.592  1.00  0.00     0.013 C 
BRANCH   7   8
HETATM    8  C   UNL     1     -24.252  -7.465 -19.819  1.00  0.00     0.110 C 
BRANCH   8   9
HETATM    9  C   UNL     1     -25.256  -7.883 -20.871  1.00  0.00     0.139 C 
HETATM   10  O   UNL     1     -26.451  -7.642 -20.846  1.00  0.00    -0.650 OA
BRANCH   9  11
HETATM   11  O   UNL     1     -24.681  -8.575 -21.885  1.00  0.00    -0.776 OA
HETATM   12  H   UNL     1     -23.924  -8.122 -22.295  1.00  0.00     0.167 HD
ENDBRANCH   9  11
ENDBRANCH   8   9
ENDBRANCH   7   8
ENDBRANCH   6   7
ENDBRANCH   5   6
BRANCH   5  13
HETATM   13  O   UNL     1     -25.552  -7.570 -15.293  1.00  0.00    -0.234 OA
BRANCH  13  14
HETATM   14  O   UNL     1     -26.985  -7.390 -15.505  1.00  0.00    -0.250 OA
HETATM   15  H   UNL     1     -27.076  -6.610 -14.928  1.00  0.00     0.253 HD
ENDBRANCH  13  14
ENDBRANCH   5  13
ENDBRANCH   4   5
ENDBRANCH   2   3
BRANCH   1  16
HETATM   16  C   UNL     1     -21.457  -4.276 -11.615  1.00  0.00     0.054 C 
BRANCH  16  17
HETATM   17  C   UNL     1     -22.048  -3.762 -10.334  1.00  0.00    -0.027 C 
HETATM   18  C   UNL     1     -22.688  -4.533  -9.440  1.00  0.00    -0.027 C 
BRANCH  18  19
HETATM   19  C   UNL     1     -23.250  -4.030  -8.144  1.00  0.00     0.053 C 
BRANCH  19  20
HETATM   20  C   UNL     1     -22.526  -4.627  -6.972  1.00  0.00    -0.027 C 
HETATM   21  C   UNL     1     -21.194  -4.615  -6.829  1.00  0.00    -0.030 C 
BRANCH  21  22
HETATM   22  C   UNL     1     -20.477  -5.202  -5.647  1.00  0.00     0.027 C 
BRANCH  22  23
HETATM   23  C   UNL     1     -20.976  -6.617  -5.351  1.00  0.00     0.004 C 
BRANCH  23  24
HETATM   24  C   UNL     1     -21.983  -6.612  -4.201  1.00  0.00    -0.000 C 
BRANCH  24  25
HETATM   25  C   UNL     1     -21.366  -6.048  -2.922  1.00  0.00    -0.005 C 
HETATM   26  C   UNL     1     -22.177  -6.443  -1.699  1.00  0.00     0.005 C 
ENDBRANCH  24  25
ENDBRANCH  23  24
ENDBRANCH  22  23
ENDBRANCH  21  22
ENDBRANCH  19  20
ENDBRANCH  18  19
ENDBRANCH  16  17
ENDBRANCH   1  16
TORSDOF 17
BEGIN_RES ARG D 557
REMARK  4 active torsions:
REMARK  status: ('A' for Active; 'I' for Inactive)
REMARK    1  A    between atoms: CA   and  CB  
REMARK    2  A    between atoms: CB   and  CG  
REMARK    3  A    between atoms: CG   and  CD  
REMARK    4  A    between atoms: CD   and  NE  
REMARK       I    between atoms: NE   and  CZ  
REMARK       I    between atoms: CZ   and  NH1 
REMARK       I    between atoms: CZ   and  NH2 
ROOT
ATOM      1  CA  ARG D 557     -26.217   2.705 -17.014  1.00 35.49     0.159 C 
ENDROOT
BRANCH   1   2
ATOM      2  CB  ARG D 557     -26.789   1.319 -17.183  1.00 35.49     0.034 C 
BRANCH   2   3
ATOM      3  CG  ARG D 557     -28.230   1.227 -17.449  1.00 35.49     0.027 C 
BRANCH   3   4
ATOM      4  CD  ARG D 557     -28.918   0.307 -16.514  1.00 35.49     0.116 C 
BRANCH   4   5
ATOM      5  NE  ARG D 557     -29.307  -0.923 -17.152  1.00 35.49    -0.212 N 
ATOM      6  CZ  ARG D 557     -28.686  -2.076 -17.039  1.00 35.49     0.666 C 
ATOM      7  NH1 ARG D 557     -27.594  -2.226 -16.312  1.00 35.49    -0.235 N 
ATOM      8  NH2 ARG D 557     -29.192  -3.095 -17.671  1.00 35.49    -0.235 N 
ATOM      9  HH  ARG D 557     -27.245  -1.569 -15.885  1.00 35.49     0.174 HD
ATOM     10  HH  ARG D 557     -27.234  -3.002 -16.273  1.00 35.49     0.174 HD
ATOM     11  HH  ARG D 557     -29.902  -2.970 -18.127  1.00 35.49     0.174 HD
ATOM     12  HH  ARG D 557     -28.822  -3.856 -17.619  1.00 35.49     0.174 HD
ATOM     13  HE  ARG D 557     -29.959  -0.902 -17.697  1.00 35.49     0.178 HD
ENDBRANCH   4   5
ENDBRANCH   3   4
ENDBRANCH   2   3
ENDBRANCH   1   2
END_RES ARG D 557
BEGIN_RES GLU D 570
REMARK  3 active torsions:
REMARK  status: ('A' for Active; 'I' for Inactive)
REMARK    5  A    between atoms: CA   and  CB  
REMARK    6  A    between atoms: CB   and  CG  
REMARK    7  A    between atoms: CG   and  CD  
ROOT
ATOM     14  CA  GLU D 570     -18.033  -6.348 -13.375  1.00 32.92     0.160 C 
ENDROOT
BRANCH  14  15
ATOM     15  CB  GLU D 570     -19.500  -6.345 -13.794  1.00 32.92     0.043 C 
BRANCH  15  16
ATOM     16  CG  GLU D 570     -20.094  -7.639 -14.218  1.00 32.92     0.100 C 
BRANCH  16  17
ATOM     17  CD  GLU D 570     -20.659  -7.598 -15.618  1.00 32.92     0.185 C 
ATOM     18  OE1 GLU D 570     -21.170  -8.630 -16.095  1.00 32.92    -0.647 OA
ATOM     19  OE2 GLU D 570     -20.575  -6.527 -16.251  1.00 32.92    -0.647 OA
ENDBRANCH  16  17
ENDBRANCH  15  16
ENDBRANCH  14  15
END_RES GLU D 570
ENDMDL
