MODEL 1
REMARK VINA RESULT:     -10.8      0.000      0.000
REMARK  9 active torsions:
REMARK  status: ('A' for Active; 'I' for Inactive)
REMARK    1  A    between atoms: C_2  and  C_3 
REMARK    2  A    between atoms: C_3  and  C_4 
REMARK    3  A    between atoms: C_7  and  C_8 
REMARK    4  A    between atoms: C_14  and  C_15 
REMARK    5  A    between atoms: C_16  and  C_17 
REMARK       I    between atoms: C_17  and  N_19 
REMARK    6  A    between atoms: N_19  and  C_20 
REMARK    7  A    between atoms: C_20  and  C_22 
REMARK    8  A    between atoms: C_26  and  N_27 
REMARK    9  A    between atoms: N_27  and  S_28 
ROOT
HETATM    1  C   UNL     1     -21.108  -5.816  -6.793  1.00  0.00     0.241 C 
HETATM    2  O   UNL     1     -20.460  -6.360  -7.679  1.00  0.00    -0.269 OA
HETATM    3  N   UNL     1     -21.497  -4.499  -6.826  1.00  0.00    -0.349 N 
HETATM    4  H   UNL     1     -22.006  -4.098  -6.052  1.00  0.00     0.163 HD
ENDROOT
BRANCH   1   5
HETATM    5  C   UNL     1     -21.522  -6.546  -5.560  1.00  0.00     0.075 C 
HETATM    6  C   UNL     1     -20.918  -6.253  -4.392  1.00  0.00     0.019 C 
BRANCH   6   7
HETATM    7  C   UNL     1     -21.227  -6.861  -3.083  1.00  0.00    -0.013 A 
HETATM    8  C   UNL     1     -20.648  -8.066  -2.641  1.00  0.00     0.019 A 
HETATM    9  N   UNL     1     -20.921  -8.610  -1.419  1.00  0.00    -0.355 N 
HETATM   10  C   UNL     1     -21.780  -7.969  -0.581  1.00  0.00     0.117 A 
ATOM     11  HN  UNL     1     -20.487  -9.490  -1.137  1.00  0.00     0.166 HD
HETATM   12  C   UNL     1     -22.362  -6.755  -0.935  1.00  0.00     0.035 A 
HETATM   13  C   UNL     1     -22.077  -6.204  -2.183  1.00  0.00     0.015 A 
BRANCH   8  14
HETATM   14  C   UNL     1     -19.678  -8.876  -3.472  1.00  0.00     0.057 C 
BRANCH  14  15
HETATM   15  C   UNL     1     -18.473  -9.361  -2.663  1.00  0.00     0.002 C 
HETATM   16  C   UNL     1     -17.271  -9.616  -3.562  1.00  0.00     0.005 C 
ENDBRANCH  14  15
ENDBRANCH   8  14
BRANCH  10  17
HETATM   17  C   UNL     1     -22.136  -8.590   0.765  1.00  0.00     0.432 C 
HETATM   18  F   UNL     1     -23.243  -8.066   1.359  1.00  0.00    -0.165 F 
HETATM   19  F   UNL     1     -22.361  -9.935   0.677  1.00  0.00    -0.165 F 
HETATM   20  F   UNL     1     -21.126  -8.454   1.677  1.00  0.00    -0.165 F 
ENDBRANCH  10  17
ENDBRANCH   6   7
ENDBRANCH   1   5
BRANCH   3  21
HETATM   21  C   UNL     1     -21.134  -3.623  -7.937  1.00  0.00     0.114 C 
HETATM   22  C   UNL     1     -19.661  -3.812  -8.307  1.00  0.00     0.037 C 
BRANCH  21  23
HETATM   23  C   UNL     1     -22.099  -3.829  -9.098  1.00  0.00    -0.030 A 
HETATM   24  C   UNL     1     -21.608  -4.344 -10.311  1.00  0.00     0.053 A 
HETATM   25  C   UNL     1     -22.444  -4.489 -11.424  1.00  0.00     0.142 A 
HETATM   26  F   UNL     1     -21.925  -4.961 -12.567  1.00  0.00    -0.204 F 
HETATM   27  C   UNL     1     -23.775  -4.082 -11.372  1.00  0.00     0.099 A 
HETATM   28  C   UNL     1     -24.281  -3.627 -10.155  1.00  0.00     0.142 A 
HETATM   29  F   UNL     1     -25.565  -3.250 -10.066  1.00  0.00    -0.204 F 
HETATM   30  C   UNL     1     -23.459  -3.489  -9.032  1.00  0.00     0.053 A 
BRANCH  27  31
HETATM   31  N   UNL     1     -24.596  -4.078 -12.553  1.00  0.00    -0.180 NA
HETATM   32  H   UNL     1     -24.756  -5.011 -12.943  1.00  0.00     0.146 HD
BRANCH  31  33
HETATM   33  S   UNL     1     -24.162  -3.058 -13.825  1.00  0.00     0.210 S 
HETATM   34  C   UNL     1     -25.746  -2.459 -14.367  1.00  0.00     0.180 C 
HETATM   35  O   UNL     1     -23.382  -1.949 -13.316  1.00  0.00    -0.211 OA
HETATM   36  O   UNL     1     -23.648  -3.937 -14.857  1.00  0.00    -0.211 OA
ENDBRANCH  31  33
ENDBRANCH  27  31
ENDBRANCH  21  23
ENDBRANCH   3  21
TORSDOF 9
BEGIN_RES ARG D 557
REMARK  4 active torsions:
REMARK  status: ('A' for Active; 'I' for Inactive)
REMARK    1  A    between atoms: CA   and  CB  
REMARK    2  A    between atoms: CB   and  CG  
REMARK    3  A    between atoms: CG   and  CD  
REMARK    4  A    between atoms: CD   and  NE  
REMARK       I    between atoms: NE   and  CZ  
REMARK       I    between atoms: CZ   and  NH1 
REMARK       I    between atoms: CZ   and  NH2 
ROOT
ATOM      1  CA  ARG D 557     -26.217   2.705 -17.014  1.00 35.49     0.159 C 
ENDROOT
BRANCH   1   2
ATOM      2  CB  ARG D 557     -26.789   1.319 -17.183  1.00 35.49     0.034 C 
BRANCH   2   3
ATOM      3  CG  ARG D 557     -28.120   1.079 -16.612  1.00 35.49     0.027 C 
BRANCH   3   4
ATOM      4  CD  ARG D 557     -28.813  -0.060 -17.255  1.00 35.49     0.116 C 
BRANCH   4   5
ATOM      5  NE  ARG D 557     -28.238  -1.326 -16.880  1.00 35.49    -0.212 N 
ATOM      6  CZ  ARG D 557     -28.775  -2.506 -17.093  1.00 35.49     0.666 C 
ATOM      7  NH1 ARG D 557     -29.947  -2.657 -17.683  1.00 35.49    -0.235 N 
ATOM      8  NH2 ARG D 557     -28.102  -3.550 -16.705  1.00 35.49    -0.235 N 
ATOM      9  HH  ARG D 557     -30.406  -1.984 -17.948  1.00 35.49     0.174 HD
ATOM     10  HH  ARG D 557     -30.245  -3.452 -17.797  1.00 35.49     0.174 HD
ATOM     11  HH  ARG D 557     -27.345  -3.423 -16.334  1.00 35.49     0.174 HD
ATOM     12  HH  ARG D 557     -28.414  -4.329 -16.829  1.00 35.49     0.174 HD
ATOM     13  HE  ARG D 557     -27.517  -1.319 -16.430  1.00 35.49     0.178 HD
ENDBRANCH   4   5
ENDBRANCH   3   4
ENDBRANCH   2   3
ENDBRANCH   1   2
END_RES ARG D 557
BEGIN_RES GLU D 570
REMARK  3 active torsions:
REMARK  status: ('A' for Active; 'I' for Inactive)
REMARK    5  A    between atoms: CA   and  CB  
REMARK    6  A    between atoms: CB   and  CG  
REMARK    7  A    between atoms: CG   and  CD  
ROOT
ATOM     14  CA  GLU D 570     -18.033  -6.348 -13.375  1.00 32.92     0.160 C 
ENDROOT
BRANCH  14  15
ATOM     15  CB  GLU D 570     -19.500  -6.345 -13.794  1.00 32.92     0.043 C 
BRANCH  15  16
ATOM     16  CG  GLU D 570     -20.095  -7.640 -14.214  1.00 32.92     0.100 C 
BRANCH  16  17
ATOM     17  CD  GLU D 570     -20.689  -7.594 -15.602  1.00 32.92     0.185 C 
ATOM     18  OE1 GLU D 570     -20.862  -6.488 -16.149  1.00 32.92    -0.647 OA
ATOM     19  OE2 GLU D 570     -21.000  -8.674 -16.141  1.00 32.92    -0.647 OA
ENDBRANCH  16  17
ENDBRANCH  15  16
ENDBRANCH  14  15
END_RES GLU D 570
ENDMDL
MODEL 2
REMARK VINA RESULT:     -10.7      2.014      2.815
REMARK  9 active torsions:
REMARK  status: ('A' for Active; 'I' for Inactive)
REMARK    1  A    between atoms: C_2  and  C_3 
REMARK    2  A    between atoms: C_3  and  C_4 
REMARK    3  A    between atoms: C_7  and  C_8 
REMARK    4  A    between atoms: C_14  and  C_15 
REMARK    5  A    between atoms: C_16  and  C_17 
REMARK       I    between atoms: C_17  and  N_19 
REMARK    6  A    between atoms: N_19  and  C_20 
REMARK    7  A    between atoms: C_20  and  C_22 
REMARK    8  A    between atoms: C_26  and  N_27 
REMARK    9  A    between atoms: N_27  and  S_28 
ROOT
HETATM    1  C   UNL     1     -20.980  -6.756  -5.855  1.00  0.00     0.241 C 
HETATM    2  O   UNL     1     -20.000  -7.161  -6.469  1.00  0.00    -0.269 OA
HETATM    3  N   UNL     1     -21.456  -5.469  -5.934  1.00  0.00    -0.349 N 
HETATM    4  H   UNL     1     -22.252  -5.185  -5.383  1.00  0.00     0.163 HD
ENDROOT
BRANCH   1   5
HETATM    5  C   UNL     1     -21.749  -7.637  -4.930  1.00  0.00     0.075 C 
HETATM    6  C   UNL     1     -21.102  -8.617  -4.271  1.00  0.00     0.019 C 
BRANCH   6   7
HETATM    7  C   UNL     1     -21.707  -9.554  -3.305  1.00  0.00    -0.013 A 
HETATM    8  C   UNL     1     -21.706  -9.331  -1.915  1.00  0.00     0.019 A 
HETATM    9  N   UNL     1     -22.287 -10.191  -1.029  1.00  0.00    -0.355 N 
HETATM   10  C   UNL     1     -22.905 -11.310  -1.495  1.00  0.00     0.117 A 
ATOM     11  HN  UNL     1     -22.258  -9.998  -0.027  1.00  0.00     0.166 HD
HETATM   12  C   UNL     1     -22.979 -11.578  -2.859  1.00  0.00     0.035 A 
HETATM   13  C   UNL     1     -22.384 -10.695  -3.758  1.00  0.00     0.015 A 
BRANCH   8  14
HETATM   14  C   UNL     1     -21.056  -8.128  -1.267  1.00  0.00     0.057 C 
BRANCH  14  15
HETATM   15  C   UNL     1     -22.075  -7.070  -0.837  1.00  0.00     0.002 C 
HETATM   16  C   UNL     1     -22.181  -5.954  -1.868  1.00  0.00     0.005 C 
ENDBRANCH  14  15
ENDBRANCH   8  14
BRANCH  10  17
HETATM   17  C   UNL     1     -23.514 -12.307  -0.515  1.00  0.00     0.432 C 
HETATM   18  F   UNL     1     -24.441 -13.143  -1.057  1.00  0.00    -0.165 F 
HETATM   19  F   UNL     1     -22.575 -13.113   0.062  1.00  0.00    -0.165 F 
HETATM   20  F   UNL     1     -24.142 -11.684   0.528  1.00  0.00    -0.165 F 
ENDBRANCH  10  17
ENDBRANCH   6   7
ENDBRANCH   1   5
BRANCH   3  21
HETATM   21  C   UNL     1     -20.794  -4.459  -6.756  1.00  0.00     0.114 C 
HETATM   22  C   UNL     1     -19.274  -4.581  -6.630  1.00  0.00     0.037 C 
BRANCH  21  23
HETATM   23  C   UNL     1     -21.308  -4.535  -8.188  1.00  0.00    -0.030 A 
HETATM   24  C   UNL     1     -20.406  -4.335  -9.249  1.00  0.00     0.053 A 
HETATM   25  C   UNL     1     -20.846  -4.332 -10.578  1.00  0.00     0.142 A 
HETATM   26  F   UNL     1     -19.954  -4.111 -11.554  1.00  0.00    -0.204 F 
HETATM   27  C   UNL     1     -22.198  -4.480 -10.881  1.00  0.00     0.099 A 
HETATM   28  C   UNL     1     -23.085  -4.739  -9.837  1.00  0.00     0.142 A 
HETATM   29  F   UNL     1     -24.389  -4.910 -10.098  1.00  0.00    -0.204 F 
HETATM   30  C   UNL     1     -22.657  -4.757  -8.506  1.00  0.00     0.053 A 
BRANCH  27  31
HETATM   31  N   UNL     1     -22.678  -4.318 -12.227  1.00  0.00    -0.180 NA
HETATM   32  H   UNL     1     -21.986  -4.564 -12.941  1.00  0.00     0.146 HD
BRANCH  31  33
HETATM   33  S   UNL     1     -23.356  -2.836 -12.662  1.00  0.00     0.210 S 
HETATM   34  C   UNL     1     -23.049  -2.796 -14.413  1.00  0.00     0.180 C 
HETATM   35  O   UNL     1     -24.786  -2.868 -12.429  1.00  0.00    -0.211 OA
HETATM   36  O   UNL     1     -22.510  -1.836 -12.044  1.00  0.00    -0.211 OA
ENDBRANCH  31  33
ENDBRANCH  27  31
ENDBRANCH  21  23
ENDBRANCH   3  21
TORSDOF 9
BEGIN_RES ARG D 557
REMARK  4 active torsions:
REMARK  status: ('A' for Active; 'I' for Inactive)
REMARK    1  A    between atoms: CA   and  CB  
REMARK    2  A    between atoms: CB   and  CG  
REMARK    3  A    between atoms: CG   and  CD  
REMARK    4  A    between atoms: CD   and  NE  
REMARK       I    between atoms: NE   and  CZ  
REMARK       I    between atoms: CZ   and  NH1 
REMARK       I    between atoms: CZ   and  NH2 
ROOT
ATOM      1  CA  ARG D 557     -26.217   2.705 -17.014  1.00 35.49     0.159 C 
ENDROOT
BRANCH   1   2
ATOM      2  CB  ARG D 557     -26.789   1.319 -17.183  1.00 35.49     0.034 C 
BRANCH   2   3
ATOM      3  CG  ARG D 557     -28.228   1.227 -17.457  1.00 35.49     0.027 C 
BRANCH   3   4
ATOM      4  CD  ARG D 557     -28.927   0.331 -16.508  1.00 35.49     0.116 C 
BRANCH   4   5
ATOM      5  NE  ARG D 557     -29.321  -0.909 -17.122  1.00 35.49    -0.212 N 
ATOM      6  CZ  ARG D 557     -28.679  -2.052 -17.024  1.00 35.49     0.666 C 
ATOM      7  NH1 ARG D 557     -27.558  -2.179 -16.339  1.00 35.49    -0.235 N 
ATOM      8  NH2 ARG D 557     -29.192  -3.083 -17.631  1.00 35.49    -0.235 N 
ATOM      9  HH  ARG D 557     -27.203  -1.515 -15.930  1.00 35.49     0.174 HD
ATOM     10  HH  ARG D 557     -27.185  -2.950 -16.308  1.00 35.49     0.174 HD
ATOM     11  HH  ARG D 557     -29.921  -2.972 -18.060  1.00 35.49     0.174 HD
ATOM     12  HH  ARG D 557     -28.809  -3.838 -17.587  1.00 35.49     0.174 HD
ATOM     13  HE  ARG D 557     -29.993  -0.902 -17.642  1.00 35.49     0.178 HD
ENDBRANCH   4   5
ENDBRANCH   3   4
ENDBRANCH   2   3
ENDBRANCH   1   2
END_RES ARG D 557
BEGIN_RES GLU D 570
REMARK  3 active torsions:
REMARK  status: ('A' for Active; 'I' for Inactive)
REMARK    5  A    between atoms: CA   and  CB  
REMARK    6  A    between atoms: CB   and  CG  
REMARK    7  A    between atoms: CG   and  CD  
ROOT
ATOM     14  CA  GLU D 570     -18.033  -6.348 -13.375  1.00 32.92     0.160 C 
ENDROOT
BRANCH  14  15
ATOM     15  CB  GLU D 570     -19.500  -6.345 -13.794  1.00 32.92     0.043 C 
BRANCH  15  16
ATOM     16  CG  GLU D 570     -19.796  -6.273 -15.248  1.00 32.92     0.100 C 
BRANCH  16  17
ATOM     17  CD  GLU D 570     -21.212  -5.834 -15.540  1.00 32.92     0.185 C 
ATOM     18  OE1 GLU D 570     -22.123  -6.170 -14.760  1.00 32.92    -0.647 OA
ATOM     19  OE2 GLU D 570     -21.415  -5.160 -16.569  1.00 32.92    -0.647 OA
ENDBRANCH  16  17
ENDBRANCH  15  16
ENDBRANCH  14  15
END_RES GLU D 570
ENDMDL
MODEL 3
REMARK VINA RESULT:     -10.7      2.011      3.055
REMARK  9 active torsions:
REMARK  status: ('A' for Active; 'I' for Inactive)
REMARK    1  A    between atoms: C_2  and  C_3 
REMARK    2  A    between atoms: C_3  and  C_4 
REMARK    3  A    between atoms: C_7  and  C_8 
REMARK    4  A    between atoms: C_14  and  C_15 
REMARK    5  A    between atoms: C_16  and  C_17 
REMARK       I    between atoms: C_17  and  N_19 
REMARK    6  A    between atoms: N_19  and  C_20 
REMARK    7  A    between atoms: C_20  and  C_22 
REMARK    8  A    between atoms: C_26  and  N_27 
REMARK    9  A    between atoms: N_27  and  S_28 
ROOT
HETATM    1  C   UNL     1     -21.000  -6.892  -5.852  1.00  0.00     0.241 C 
HETATM    2  O   UNL     1     -20.039  -7.204  -6.544  1.00  0.00    -0.269 OA
HETATM    3  N   UNL     1     -21.474  -5.608  -5.732  1.00  0.00    -0.349 N 
HETATM    4  H   UNL     1     -22.254  -5.407  -5.124  1.00  0.00     0.163 HD
ENDROOT
BRANCH   1   5
HETATM    5  C   UNL     1     -21.746  -7.898  -5.042  1.00  0.00     0.075 C 
HETATM    6  C   UNL     1     -21.106  -8.542  -4.047  1.00  0.00     0.019 C 
BRANCH   6   7
HETATM    7  C   UNL     1     -21.703  -9.541  -3.140  1.00  0.00    -0.013 A 
HETATM    8  C   UNL     1     -21.761  -9.372  -1.743  1.00  0.00     0.019 A 
HETATM    9  N   UNL     1     -22.335 -10.290  -0.912  1.00  0.00    -0.355 N 
HETATM   10  C   UNL     1     -22.886 -11.416  -1.443  1.00  0.00     0.117 A 
ATOM     11  HN  UNL     1     -22.351 -10.135   0.096  1.00  0.00     0.166 HD
HETATM   12  C   UNL     1     -22.899 -11.634  -2.817  1.00  0.00     0.035 A 
HETATM   13  C   UNL     1     -22.312 -10.691  -3.660  1.00  0.00     0.015 A 
BRANCH   8  14
HETATM   14  C   UNL     1     -21.189  -8.169  -1.028  1.00  0.00     0.057 C 
BRANCH  14  15
HETATM   15  C   UNL     1     -22.234  -7.075  -0.789  1.00  0.00     0.002 C 
HETATM   16  C   UNL     1     -22.190  -6.021  -1.887  1.00  0.00     0.005 C 
ENDBRANCH  14  15
ENDBRANCH   8  14
BRANCH  10  17
HETATM   17  C   UNL     1     -23.485 -12.475  -0.524  1.00  0.00     0.432 C 
HETATM   18  F   UNL     1     -23.915 -12.007   0.680  1.00  0.00    -0.165 F 
HETATM   19  F   UNL     1     -24.559 -13.107  -1.085  1.00  0.00    -0.165 F 
HETATM   20  F   UNL     1     -22.593 -13.471  -0.237  1.00  0.00    -0.165 F 
ENDBRANCH  10  17
ENDBRANCH   6   7
ENDBRANCH   1   5
BRANCH   3  21
HETATM   21  C   UNL     1     -20.831  -4.490  -6.418  1.00  0.00     0.114 C 
HETATM   22  C   UNL     1     -19.310  -4.591  -6.295  1.00  0.00     0.037 C 
BRANCH  21  23
HETATM   23  C   UNL     1     -21.336  -4.401  -7.853  1.00  0.00    -0.030 A 
HETATM   24  C   UNL     1     -22.722  -4.371  -8.089  1.00  0.00     0.053 A 
HETATM   25  C   UNL     1     -23.231  -4.356  -9.393  1.00  0.00     0.142 A 
HETATM   26  F   UNL     1     -24.560  -4.353  -9.568  1.00  0.00    -0.204 F 
HETATM   27  C   UNL     1     -22.377  -4.418 -10.491  1.00  0.00     0.099 A 
HETATM   28  C   UNL     1     -21.002  -4.387 -10.262  1.00  0.00     0.142 A 
HETATM   29  F   UNL     1     -20.153  -4.421 -11.300  1.00  0.00    -0.204 F 
HETATM   30  C   UNL     1     -20.480  -4.390  -8.965  1.00  0.00     0.053 A 
BRANCH  27  31
HETATM   31  N   UNL     1     -22.894  -4.564 -11.825  1.00  0.00    -0.180 NA
HETATM   32  H   UNL     1     -22.282  -5.101 -12.445  1.00  0.00     0.146 HD
BRANCH  31  33
HETATM   33  S   UNL     1     -23.371  -3.175 -12.656  1.00  0.00     0.210 S 
HETATM   34  C   UNL     1     -22.802  -3.523 -14.304  1.00  0.00     0.180 C 
HETATM   35  O   UNL     1     -24.817  -3.082 -12.660  1.00  0.00    -0.211 OA
HETATM   36  O   UNL     1     -22.544  -2.111 -12.121  1.00  0.00    -0.211 OA
ENDBRANCH  31  33
ENDBRANCH  27  31
ENDBRANCH  21  23
ENDBRANCH   3  21
TORSDOF 9
BEGIN_RES ARG D 557
REMARK  4 active torsions:
REMARK  status: ('A' for Active; 'I' for Inactive)
REMARK    1  A    between atoms: CA   and  CB  
REMARK    2  A    between atoms: CB   and  CG  
REMARK    3  A    between atoms: CG   and  CD  
REMARK    4  A    between atoms: CD   and  NE  
REMARK       I    between atoms: NE   and  CZ  
REMARK       I    between atoms: CZ   and  NH1 
REMARK       I    between atoms: CZ   and  NH2 
ROOT
ATOM      1  CA  ARG D 557     -26.217   2.705 -17.014  1.00 35.49     0.159 C 
ENDROOT
BRANCH   1   2
ATOM      2  CB  ARG D 557     -26.789   1.319 -17.183  1.00 35.49     0.034 C 
BRANCH   2   3
ATOM      3  CG  ARG D 557     -28.219   1.155 -16.895  1.00 35.49     0.027 C 
BRANCH   3   4
ATOM      4  CD  ARG D 557     -28.578  -0.252 -16.605  1.00 35.49     0.116 C 
BRANCH   4   5
ATOM      5  NE  ARG D 557     -27.536  -0.942 -15.891  1.00 35.49    -0.212 N 
ATOM      6  CZ  ARG D 557     -27.288  -2.231 -15.951  1.00 35.49     0.666 C 
ATOM      7  NH1 ARG D 557     -28.006  -3.058 -16.687  1.00 35.49    -0.235 N 
ATOM      8  NH2 ARG D 557     -26.287  -2.683 -15.252  1.00 35.49    -0.235 N 
ATOM      9  HH  ARG D 557     -28.668  -2.783 -17.156  1.00 35.49     0.174 HD
ATOM     10  HH  ARG D 557     -27.797  -3.889 -16.689  1.00 35.49     0.174 HD
ATOM     11  HH  ARG D 557     -25.836  -2.125 -14.791  1.00 35.49     0.174 HD
ATOM     12  HH  ARG D 557     -26.094  -3.509 -15.268  1.00 35.49     0.174 HD
ATOM     13  HE  ARG D 557     -27.070  -0.497 -15.336  1.00 35.49     0.178 HD
ENDBRANCH   4   5
ENDBRANCH   3   4
ENDBRANCH   2   3
ENDBRANCH   1   2
END_RES ARG D 557
BEGIN_RES GLU D 570
REMARK  3 active torsions:
REMARK  status: ('A' for Active; 'I' for Inactive)
REMARK    5  A    between atoms: CA   and  CB  
REMARK    6  A    between atoms: CB   and  CG  
REMARK    7  A    between atoms: CG   and  CD  
ROOT
ATOM     14  CA  GLU D 570     -18.033  -6.348 -13.375  1.00 32.92     0.160 C 
ENDROOT
BRANCH  14  15
ATOM     15  CB  GLU D 570     -19.500  -6.345 -13.794  1.00 32.92     0.043 C 
BRANCH  15  16
ATOM     16  CG  GLU D 570     -20.089  -7.636 -14.235  1.00 32.92     0.100 C 
BRANCH  16  17
ATOM     17  CD  GLU D 570     -20.664  -7.575 -15.631  1.00 32.92     0.185 C 
ATOM     18  OE1 GLU D 570     -21.146  -8.608 -16.133  1.00 32.92    -0.647 OA
ATOM     19  OE2 GLU D 570     -20.618  -6.485 -16.235  1.00 32.92    -0.647 OA
ENDBRANCH  16  17
ENDBRANCH  15  16
ENDBRANCH  14  15
END_RES GLU D 570
ENDMDL
MODEL 4
REMARK VINA RESULT:      -9.6      3.742     10.245
REMARK  9 active torsions:
REMARK  status: ('A' for Active; 'I' for Inactive)
REMARK    1  A    between atoms: C_2  and  C_3 
REMARK    2  A    between atoms: C_3  and  C_4 
REMARK    3  A    between atoms: C_7  and  C_8 
REMARK    4  A    between atoms: C_14  and  C_15 
REMARK    5  A    between atoms: C_16  and  C_17 
REMARK       I    between atoms: C_17  and  N_19 
REMARK    6  A    between atoms: N_19  and  C_20 
REMARK    7  A    between atoms: C_20  and  C_22 
REMARK    8  A    between atoms: C_26  and  N_27 
REMARK    9  A    between atoms: N_27  and  S_28 
ROOT
HETATM    1  C   UNL     1     -21.726  -4.370 -10.295  1.00  0.00     0.241 C 
HETATM    2  O   UNL     1     -20.719  -3.800 -10.697  1.00  0.00    -0.269 OA
HETATM    3  N   UNL     1     -21.944  -4.703  -8.980  1.00  0.00    -0.349 N 
HETATM    4  H   UNL     1     -22.781  -5.199  -8.711  1.00  0.00     0.163 HD
ENDROOT
BRANCH   1   5
HETATM    5  C   UNL     1     -22.819  -4.785 -11.220  1.00  0.00     0.075 C 
HETATM    6  C   UNL     1     -22.643  -4.638 -12.548  1.00  0.00     0.019 C 
BRANCH   6   7
HETATM    7  C   UNL     1     -23.610  -5.021 -13.595  1.00  0.00    -0.013 A 
HETATM    8  C   UNL     1     -24.610  -4.153 -14.071  1.00  0.00     0.019 A 
HETATM    9  N   UNL     1     -25.487  -4.506 -15.055  1.00  0.00    -0.355 N 
HETATM   10  C   UNL     1     -25.396  -5.743 -15.616  1.00  0.00     0.117 A 
ATOM     11  HN  UNL     1     -26.204  -3.850 -15.368  1.00  0.00     0.166 HD
HETATM   12  C   UNL     1     -24.409  -6.642 -15.223  1.00  0.00     0.035 A 
HETATM   13  C   UNL     1     -23.517  -6.274 -14.218  1.00  0.00     0.015 A 
BRANCH   8  14
HETATM   14  C   UNL     1     -24.819  -2.753 -13.536  1.00  0.00     0.057 C 
BRANCH  14  15
HETATM   15  C   UNL     1     -24.528  -1.674 -14.582  1.00  0.00     0.002 C 
HETATM   16  C   UNL     1     -23.082  -1.739 -15.055  1.00  0.00     0.005 C 
ENDBRANCH  14  15
ENDBRANCH   8  14
BRANCH  10  17
HETATM   17  C   UNL     1     -26.400  -6.171 -16.680  1.00  0.00     0.432 C 
HETATM   18  F   UNL     1     -27.257  -7.155 -16.291  1.00  0.00    -0.165 F 
HETATM   19  F   UNL     1     -27.187  -5.137 -17.103  1.00  0.00    -0.165 F 
HETATM   20  F   UNL     1     -25.786  -6.639 -17.808  1.00  0.00    -0.165 F 
ENDBRANCH  10  17
ENDBRANCH   6   7
ENDBRANCH   1   5
BRANCH   3  21
HETATM   21  C   UNL     1     -20.954  -4.415  -7.945  1.00  0.00     0.114 C 
HETATM   22  C   UNL     1     -21.089  -2.969  -7.464  1.00  0.00     0.037 C 
BRANCH  21  23
HETATM   23  C   UNL     1     -21.048  -5.453  -6.833  1.00  0.00    -0.030 A 
HETATM   24  C   UNL     1     -19.982  -6.350  -6.643  1.00  0.00     0.053 A 
HETATM   25  C   UNL     1     -20.053  -7.360  -5.677  1.00  0.00     0.142 A 
HETATM   26  F   UNL     1     -19.022  -8.209  -5.551  1.00  0.00    -0.204 F 
HETATM   27  C   UNL     1     -21.203  -7.532  -4.910  1.00  0.00     0.099 A 
HETATM   28  C   UNL     1     -22.237  -6.608  -5.052  1.00  0.00     0.142 A 
HETATM   29  F   UNL     1     -23.348  -6.732  -4.311  1.00  0.00    -0.204 F 
HETATM   30  C   UNL     1     -22.174  -5.587  -6.005  1.00  0.00     0.053 A 
BRANCH  27  31
HETATM   31  N   UNL     1     -21.346  -8.662  -4.031  1.00  0.00    -0.180 NA
HETATM   32  H   UNL     1     -22.315  -8.971  -3.916  1.00  0.00     0.146 HD
BRANCH  31  33
HETATM   33  S   UNL     1     -20.650  -8.576  -2.497  1.00  0.00     0.210 S 
HETATM   34  C   UNL     1     -21.729  -9.624  -1.549  1.00  0.00     0.180 C 
HETATM   35  O   UNL     1     -19.325  -9.161  -2.529  1.00  0.00    -0.211 OA
HETATM   36  O   UNL     1     -20.866  -7.211  -2.059  1.00  0.00    -0.211 OA
ENDBRANCH  31  33
ENDBRANCH  27  31
ENDBRANCH  21  23
ENDBRANCH   3  21
TORSDOF 9
BEGIN_RES ARG D 557
REMARK  4 active torsions:
REMARK  status: ('A' for Active; 'I' for Inactive)
REMARK    1  A    between atoms: CA   and  CB  
REMARK    2  A    between atoms: CB   and  CG  
REMARK    3  A    between atoms: CG   and  CD  
REMARK    4  A    between atoms: CD   and  NE  
REMARK       I    between atoms: NE   and  CZ  
REMARK       I    between atoms: CZ   and  NH1 
REMARK       I    between atoms: CZ   and  NH2 
ROOT
ATOM      1  CA  ARG D 557     -26.217   2.705 -17.014  1.00 35.49     0.159 C 
ENDROOT
BRANCH   1   2
ATOM      2  CB  ARG D 557     -26.789   1.319 -17.183  1.00 35.49     0.034 C 
BRANCH   2   3
ATOM      3  CG  ARG D 557     -28.220   1.229 -17.498  1.00 35.49     0.027 C 
BRANCH   3   4
ATOM      4  CD  ARG D 557     -28.953   0.362 -16.547  1.00 35.49     0.116 C 
BRANCH   4   5
ATOM      5  NE  ARG D 557     -29.365  -0.878 -17.150  1.00 35.49    -0.212 N 
ATOM      6  CZ  ARG D 557     -28.740  -2.029 -17.042  1.00 35.49     0.666 C 
ATOM      7  NH1 ARG D 557     -27.621  -2.167 -16.354  1.00 35.49    -0.235 N 
ATOM      8  NH2 ARG D 557     -29.268  -3.058 -17.639  1.00 35.49    -0.235 N 
ATOM      9  HH  ARG D 557     -27.257  -1.505 -15.951  1.00 35.49     0.174 HD
ATOM     10  HH  ARG D 557     -27.260  -2.943 -16.316  1.00 35.49     0.174 HD
ATOM     11  HH  ARG D 557     -29.995  -2.941 -18.070  1.00 35.49     0.174 HD
ATOM     12  HH  ARG D 557     -28.896  -3.818 -17.589  1.00 35.49     0.174 HD
ATOM     13  HE  ARG D 557     -30.037  -0.865 -17.671  1.00 35.49     0.178 HD
ENDBRANCH   4   5
ENDBRANCH   3   4
ENDBRANCH   2   3
ENDBRANCH   1   2
END_RES ARG D 557
BEGIN_RES GLU D 570
REMARK  3 active torsions:
REMARK  status: ('A' for Active; 'I' for Inactive)
REMARK    5  A    between atoms: CA   and  CB  
REMARK    6  A    between atoms: CB   and  CG  
REMARK    7  A    between atoms: CG   and  CD  
ROOT
ATOM     14  CA  GLU D 570     -18.033  -6.348 -13.375  1.00 32.92     0.160 C 
ENDROOT
BRANCH  14  15
ATOM     15  CB  GLU D 570     -19.500  -6.345 -13.794  1.00 32.92     0.043 C 
BRANCH  15  16
ATOM     16  CG  GLU D 570     -20.089  -7.636 -14.233  1.00 32.92     0.100 C 
BRANCH  16  17
ATOM     17  CD  GLU D 570     -20.630  -7.588 -15.643  1.00 32.92     0.185 C 
ATOM     18  OE1 GLU D 570     -21.131  -8.618 -16.134  1.00 32.92    -0.647 OA
ATOM     19  OE2 GLU D 570     -20.537  -6.514 -16.269  1.00 32.92    -0.647 OA
ENDBRANCH  16  17
ENDBRANCH  15  16
ENDBRANCH  14  15
END_RES GLU D 570
ENDMDL
MODEL 5
REMARK VINA RESULT:      -9.6      8.340     12.954
REMARK  9 active torsions:
REMARK  status: ('A' for Active; 'I' for Inactive)
REMARK    1  A    between atoms: C_2  and  C_3 
REMARK    2  A    between atoms: C_3  and  C_4 
REMARK    3  A    between atoms: C_7  and  C_8 
REMARK    4  A    between atoms: C_14  and  C_15 
REMARK    5  A    between atoms: C_16  and  C_17 
REMARK       I    between atoms: C_17  and  N_19 
REMARK    6  A    between atoms: N_19  and  C_20 
REMARK    7  A    between atoms: C_20  and  C_22 
REMARK    8  A    between atoms: C_26  and  N_27 
REMARK    9  A    between atoms: N_27  and  S_28 
ROOT
HETATM    1  C   UNL     1     -34.255  -3.402 -15.348  1.00  0.00     0.241 C 
HETATM    2  O   UNL     1     -34.889  -2.989 -16.311  1.00  0.00    -0.269 OA
HETATM    3  N   UNL     1     -33.137  -4.194 -15.449  1.00  0.00    -0.349 N 
HETATM    4  H   UNL     1     -32.671  -4.528 -14.618  1.00  0.00     0.163 HD
ENDROOT
BRANCH   1   5
HETATM    5  C   UNL     1     -34.661  -3.094 -13.947  1.00  0.00     0.075 C 
HETATM    6  C   UNL     1     -35.015  -1.833 -13.631  1.00  0.00     0.019 C 
BRANCH   6   7
HETATM    7  C   UNL     1     -35.466  -1.369 -12.304  1.00  0.00    -0.013 A 
HETATM    8  C   UNL     1     -34.792  -1.687 -11.110  1.00  0.00     0.019 A 
HETATM    9  N   UNL     1     -35.201  -1.235  -9.889  1.00  0.00    -0.355 N 
HETATM   10  C   UNL     1     -36.300  -0.436  -9.809  1.00  0.00     0.117 A 
ATOM     11  HN  UNL     1     -34.690  -1.494  -9.045  1.00  0.00     0.166 HD
HETATM   12  C   UNL     1     -36.995  -0.049 -10.950  1.00  0.00     0.035 A 
HETATM   13  C   UNL     1     -36.570  -0.513 -12.194  1.00  0.00     0.015 A 
BRANCH   8  14
HETATM   14  C   UNL     1     -33.560  -2.563 -11.060  1.00  0.00     0.057 C 
BRANCH  14  15
HETATM   15  C   UNL     1     -33.861  -3.973 -10.544  1.00  0.00     0.002 C 
HETATM   16  C   UNL     1     -33.140  -5.028 -11.371  1.00  0.00     0.005 C 
ENDBRANCH  14  15
ENDBRANCH   8  14
BRANCH  10  17
HETATM   17  C   UNL     1     -36.800   0.035  -8.447  1.00  0.00     0.432 C 
HETATM   18  F   UNL     1     -37.643  -0.831  -7.820  1.00  0.00    -0.165 F 
HETATM   19  F   UNL     1     -35.781   0.267  -7.567  1.00  0.00    -0.165 F 
HETATM   20  F   UNL     1     -37.480   1.218  -8.530  1.00  0.00    -0.165 F 
ENDBRANCH  10  17
ENDBRANCH   6   7
ENDBRANCH   1   5
BRANCH   3  21
HETATM   21  C   UNL     1     -32.627  -4.634 -16.746  1.00  0.00     0.114 C 
HETATM   22  C   UNL     1     -32.531  -3.450 -17.711  1.00  0.00     0.037 C 
BRANCH  21  23
HETATM   23  C   UNL     1     -31.319  -5.393 -16.560  1.00  0.00    -0.030 A 
HETATM   24  C   UNL     1     -30.572  -5.190 -15.386  1.00  0.00     0.053 A 
HETATM   25  C   UNL     1     -29.334  -5.816 -15.201  1.00  0.00     0.142 A 
HETATM   26  F   UNL     1     -28.645  -5.570 -14.077  1.00  0.00    -0.204 F 
HETATM   27  C   UNL     1     -28.788  -6.621 -16.198  1.00  0.00     0.099 A 
HETATM   28  C   UNL     1     -29.552  -6.874 -17.337  1.00  0.00     0.142 A 
HETATM   29  F   UNL     1     -29.065  -7.665 -18.304  1.00  0.00    -0.204 F 
HETATM   30  C   UNL     1     -30.796  -6.264 -17.528  1.00  0.00     0.053 A 
BRANCH  27  31
HETATM   31  N   UNL     1     -27.450  -7.137 -16.085  1.00  0.00    -0.180 NA
HETATM   32  H   UNL     1     -27.211  -7.449 -15.139  1.00  0.00     0.146 HD
BRANCH  31  33
HETATM   33  S   UNL     1     -26.175  -6.187 -16.648  1.00  0.00     0.210 S 
HETATM   34  C   UNL     1     -24.777  -6.949 -15.858  1.00  0.00     0.180 C 
HETATM   35  O   UNL     1     -26.053  -6.338 -18.084  1.00  0.00    -0.211 OA
HETATM   36  O   UNL     1     -26.372  -4.888 -16.037  1.00  0.00    -0.211 OA
ENDBRANCH  31  33
ENDBRANCH  27  31
ENDBRANCH  21  23
ENDBRANCH   3  21
TORSDOF 9
BEGIN_RES ARG D 557
REMARK  4 active torsions:
REMARK  status: ('A' for Active; 'I' for Inactive)
REMARK    1  A    between atoms: CA   and  CB  
REMARK    2  A    between atoms: CB   and  CG  
REMARK    3  A    between atoms: CG   and  CD  
REMARK    4  A    between atoms: CD   and  NE  
REMARK       I    between atoms: NE   and  CZ  
REMARK       I    between atoms: CZ   and  NH1 
REMARK       I    between atoms: CZ   and  NH2 
ROOT
ATOM      1  CA  ARG D 557     -26.217   2.705 -17.014  1.00 35.49     0.159 C 
ENDROOT
BRANCH   1   2
ATOM      2  CB  ARG D 557     -26.789   1.319 -17.183  1.00 35.49     0.034 C 
BRANCH   2   3
ATOM      3  CG  ARG D 557     -28.228   1.227 -17.456  1.00 35.49     0.027 C 
BRANCH   3   4
ATOM      4  CD  ARG D 557     -28.918   0.290 -16.541  1.00 35.49     0.116 C 
BRANCH   4   5
ATOM      5  NE  ARG D 557     -29.161  -0.989 -17.155  1.00 35.49    -0.212 N 
ATOM      6  CZ  ARG D 557     -28.454  -2.080 -16.963  1.00 35.49     0.666 C 
ATOM      7  NH1 ARG D 557     -27.400  -2.111 -16.168  1.00 35.49    -0.235 N 
ATOM      8  NH2 ARG D 557     -28.831  -3.157 -17.588  1.00 35.49    -0.235 N 
ATOM      9  HH  ARG D 557     -27.135  -1.415 -15.746  1.00 35.49     0.174 HD
ATOM     10  HH  ARG D 557     -26.979  -2.853 -16.080  1.00 35.49     0.174 HD
ATOM     11  HH  ARG D 557     -29.520  -3.109 -18.089  1.00 35.49     0.174 HD
ATOM     12  HH  ARG D 557     -28.402  -3.882 -17.486  1.00 35.49     0.174 HD
ATOM     13  HE  ARG D 557     -29.777  -1.041 -17.739  1.00 35.49     0.178 HD
ENDBRANCH   4   5
ENDBRANCH   3   4
ENDBRANCH   2   3
ENDBRANCH   1   2
END_RES ARG D 557
BEGIN_RES GLU D 570
REMARK  3 active torsions:
REMARK  status: ('A' for Active; 'I' for Inactive)
REMARK    5  A    between atoms: CA   and  CB  
REMARK    6  A    between atoms: CB   and  CG  
REMARK    7  A    between atoms: CG   and  CD  
ROOT
ATOM     14  CA  GLU D 570     -18.033  -6.348 -13.375  1.00 32.92     0.160 C 
ENDROOT
BRANCH  14  15
ATOM     15  CB  GLU D 570     -19.500  -6.345 -13.794  1.00 32.92     0.043 C 
BRANCH  15  16
ATOM     16  CG  GLU D 570     -20.446  -5.550 -12.969  1.00 32.92     0.100 C 
BRANCH  16  17
ATOM     17  CD  GLU D 570     -21.711  -5.185 -13.710  1.00 32.92     0.185 C 
ATOM     18  OE1 GLU D 570     -22.768  -5.036 -13.067  1.00 32.92    -0.647 OA
ATOM     19  OE2 GLU D 570     -21.649  -5.064 -14.950  1.00 32.92    -0.647 OA
ENDBRANCH  16  17
ENDBRANCH  15  16
ENDBRANCH  14  15
END_RES GLU D 570
ENDMDL
MODEL 6
REMARK VINA RESULT:      -9.6      3.866     10.608
REMARK  9 active torsions:
REMARK  status: ('A' for Active; 'I' for Inactive)
REMARK    1  A    between atoms: C_2  and  C_3 
REMARK    2  A    between atoms: C_3  and  C_4 
REMARK    3  A    between atoms: C_7  and  C_8 
REMARK    4  A    between atoms: C_14  and  C_15 
REMARK    5  A    between atoms: C_16  and  C_17 
REMARK       I    between atoms: C_17  and  N_19 
REMARK    6  A    between atoms: N_19  and  C_20 
REMARK    7  A    between atoms: C_20  and  C_22 
REMARK    8  A    between atoms: C_26  and  N_27 
REMARK    9  A    between atoms: N_27  and  S_28 
ROOT
HETATM    1  C   UNL     1     -22.725  -4.618 -13.291  1.00  0.00     0.241 C 
HETATM    2  O   UNL     1     -21.882  -4.216 -14.083  1.00  0.00    -0.269 OA
HETATM    3  N   UNL     1     -22.586  -4.557 -11.925  1.00  0.00    -0.349 N 
HETATM    4  H   UNL     1     -23.303  -4.930 -11.322  1.00  0.00     0.163 HD
ENDROOT
BRANCH   1   5
HETATM    5  C   UNL     1     -23.999  -5.245 -13.748  1.00  0.00     0.075 C 
HETATM    6  C   UNL     1     -24.588  -4.786 -14.869  1.00  0.00     0.019 C 
BRANCH   6   7
HETATM    7  C   UNL     1     -25.830  -5.311 -15.469  1.00  0.00    -0.013 A 
HETATM    8  C   UNL     1     -25.899  -6.551 -16.132  1.00  0.00     0.019 A 
HETATM    9  N   UNL     1     -27.056  -7.040 -16.665  1.00  0.00    -0.355 N 
HETATM   10  C   UNL     1     -28.201  -6.313 -16.549  1.00  0.00     0.117 A 
ATOM     11  HN  UNL     1     -27.063  -7.940 -17.145  1.00  0.00     0.166 HD
HETATM   12  C   UNL     1     -28.219  -5.096 -15.875  1.00  0.00     0.035 A 
HETATM   13  C   UNL     1     -27.033  -4.604 -15.332  1.00  0.00     0.015 A 
BRANCH   8  14
HETATM   14  C   UNL     1     -24.702  -7.455 -16.328  1.00  0.00     0.057 C 
BRANCH  14  15
HETATM   15  C   UNL     1     -23.806  -7.004 -17.485  1.00  0.00     0.002 C 
HETATM   16  C   UNL     1     -24.546  -7.070 -18.814  1.00  0.00     0.005 C 
ENDBRANCH  14  15
ENDBRANCH   8  14
BRANCH  10  17
HETATM   17  C   UNL     1     -29.491  -6.822 -17.184  1.00  0.00     0.432 C 
HETATM   18  F   UNL     1     -29.645  -8.174 -17.155  1.00  0.00    -0.165 F 
HETATM   19  F   UNL     1     -30.607  -6.307 -16.585  1.00  0.00    -0.165 F 
HETATM   20  F   UNL     1     -29.593  -6.465 -18.500  1.00  0.00    -0.165 F 
ENDBRANCH  10  17
ENDBRANCH   6   7
ENDBRANCH   1   5
BRANCH   3  21
HETATM   21  C   UNL     1     -21.378  -4.018 -11.304  1.00  0.00     0.114 C 
HETATM   22  C   UNL     1     -21.272  -2.513 -11.560  1.00  0.00     0.037 C 
BRANCH  21  23
HETATM   23  C   UNL     1     -21.334  -4.404  -9.831  1.00  0.00    -0.030 A 
HETATM   24  C   UNL     1     -22.497  -4.261  -9.053  1.00  0.00     0.053 A 
HETATM   25  C   UNL     1     -22.485  -4.541  -7.682  1.00  0.00     0.142 A 
HETATM   26  F   UNL     1     -23.612  -4.365  -6.975  1.00  0.00    -0.204 F 
HETATM   27  C   UNL     1     -21.308  -4.925  -7.043  1.00  0.00     0.099 A 
HETATM   28  C   UNL     1     -20.169  -5.126  -7.822  1.00  0.00     0.142 A 
HETATM   29  F   UNL     1     -19.026  -5.519  -7.241  1.00  0.00    -0.204 F 
HETATM   30  C   UNL     1     -20.170  -4.861  -9.195  1.00  0.00     0.053 A 
BRANCH  27  31
HETATM   31  N   UNL     1     -21.251  -5.060  -5.612  1.00  0.00    -0.180 NA
HETATM   32  H   UNL     1     -20.309  -4.943  -5.228  1.00  0.00     0.146 HD
BRANCH  31  33
HETATM   33  S   UNL     1     -21.922  -6.439  -4.910  1.00  0.00     0.210 S 
HETATM   34  C   UNL     1     -21.273  -6.359  -3.257  1.00  0.00     0.180 C 
HETATM   35  O   UNL     1     -23.365  -6.308  -4.862  1.00  0.00    -0.211 OA
HETATM   36  O   UNL     1     -21.284  -7.554  -5.580  1.00  0.00    -0.211 OA
ENDBRANCH  31  33
ENDBRANCH  27  31
ENDBRANCH  21  23
ENDBRANCH   3  21
TORSDOF 9
BEGIN_RES ARG D 557
REMARK  4 active torsions:
REMARK  status: ('A' for Active; 'I' for Inactive)
REMARK    1  A    between atoms: CA   and  CB  
REMARK    2  A    between atoms: CB   and  CG  
REMARK    3  A    between atoms: CG   and  CD  
REMARK    4  A    between atoms: CD   and  NE  
REMARK       I    between atoms: NE   and  CZ  
REMARK       I    between atoms: CZ   and  NH1 
REMARK       I    between atoms: CZ   and  NH2 
ROOT
ATOM      1  CA  ARG D 557     -26.217   2.705 -17.014  1.00 35.49     0.159 C 
ENDROOT
BRANCH   1   2
ATOM      2  CB  ARG D 557     -26.789   1.319 -17.183  1.00 35.49     0.034 C 
BRANCH   2   3
ATOM      3  CG  ARG D 557     -25.968   0.202 -16.701  1.00 35.49     0.027 C 
BRANCH   3   4
ATOM      4  CD  ARG D 557     -26.728  -0.722 -15.828  1.00 35.49     0.116 C 
BRANCH   4   5
ATOM      5  NE  ARG D 557     -27.593  -1.591 -16.582  1.00 35.49    -0.212 N 
ATOM      6  CZ  ARG D 557     -28.849  -1.351 -16.885  1.00 35.49     0.666 C 
ATOM      7  NH1 ARG D 557     -29.473  -0.253 -16.502  1.00 35.49    -0.235 N 
ATOM      8  NH2 ARG D 557     -29.476  -2.243 -17.595  1.00 35.49    -0.235 N 
ATOM      9  HH  ARG D 557     -29.079   0.349 -16.036  1.00 35.49     0.174 HD
ATOM     10  HH  ARG D 557     -30.292  -0.149 -16.731  1.00 35.49     0.174 HD
ATOM     11  HH  ARG D 557     -29.045  -2.939 -17.835  1.00 35.49     0.174 HD
ATOM     12  HH  ARG D 557     -30.286  -2.121 -17.814  1.00 35.49     0.174 HD
ATOM     13  HE  ARG D 557     -27.293  -2.355 -16.807  1.00 35.49     0.178 HD
ENDBRANCH   4   5
ENDBRANCH   3   4
ENDBRANCH   2   3
ENDBRANCH   1   2
END_RES ARG D 557
BEGIN_RES GLU D 570
REMARK  3 active torsions:
REMARK  status: ('A' for Active; 'I' for Inactive)
REMARK    5  A    between atoms: CA   and  CB  
REMARK    6  A    between atoms: CB   and  CG  
REMARK    7  A    between atoms: CG   and  CD  
ROOT
ATOM     14  CA  GLU D 570     -18.033  -6.348 -13.375  1.00 32.92     0.160 C 
ENDROOT
BRANCH  14  15
ATOM     15  CB  GLU D 570     -19.500  -6.345 -13.794  1.00 32.92     0.043 C 
BRANCH  15  16
ATOM     16  CG  GLU D 570     -20.083  -7.632 -14.255  1.00 32.92     0.100 C 
BRANCH  16  17
ATOM     17  CD  GLU D 570     -20.549  -7.587 -15.691  1.00 32.92     0.185 C 
ATOM     18  OE1 GLU D 570     -20.600  -6.488 -16.277  1.00 32.92    -0.647 OA
ATOM     19  OE2 GLU D 570     -20.883  -8.660 -16.231  1.00 32.92    -0.647 OA
ENDBRANCH  16  17
ENDBRANCH  15  16
ENDBRANCH  14  15
END_RES GLU D 570
ENDMDL
MODEL 7
REMARK VINA RESULT:      -9.5      3.980     10.750
REMARK  9 active torsions:
REMARK  status: ('A' for Active; 'I' for Inactive)
REMARK    1  A    between atoms: C_2  and  C_3 
REMARK    2  A    between atoms: C_3  and  C_4 
REMARK    3  A    between atoms: C_7  and  C_8 
REMARK    4  A    between atoms: C_14  and  C_15 
REMARK    5  A    between atoms: C_16  and  C_17 
REMARK       I    between atoms: C_17  and  N_19 
REMARK    6  A    between atoms: N_19  and  C_20 
REMARK    7  A    between atoms: C_20  and  C_22 
REMARK    8  A    between atoms: C_26  and  N_27 
REMARK    9  A    between atoms: N_27  and  S_28 
ROOT
HETATM    1  C   UNL     1     -22.801  -4.607 -13.248  1.00  0.00     0.241 C 
HETATM    2  O   UNL     1     -21.954  -4.221 -14.044  1.00  0.00    -0.269 OA
HETATM    3  N   UNL     1     -22.641  -4.580 -11.884  1.00  0.00    -0.349 N 
HETATM    4  H   UNL     1     -23.364  -4.938 -11.278  1.00  0.00     0.163 HD
ENDROOT
BRANCH   1   5
HETATM    5  C   UNL     1     -24.104  -5.175 -13.700  1.00  0.00     0.075 C 
HETATM    6  C   UNL     1     -24.587  -4.825 -14.907  1.00  0.00     0.019 C 
BRANCH   6   7
HETATM    7  C   UNL     1     -25.842  -5.314 -15.511  1.00  0.00    -0.013 A 
HETATM    8  C   UNL     1     -25.933  -6.533 -16.209  1.00  0.00     0.019 A 
HETATM    9  N   UNL     1     -27.102  -6.990 -16.746  1.00  0.00    -0.355 N 
HETATM   10  C   UNL     1     -28.236  -6.251 -16.600  1.00  0.00     0.117 A 
ATOM     11  HN  UNL     1     -27.126  -7.876 -17.252  1.00  0.00     0.166 HD
HETATM   12  C   UNL     1     -28.230  -5.054 -15.890  1.00  0.00     0.035 A 
HETATM   13  C   UNL     1     -27.033  -4.594 -15.344  1.00  0.00     0.015 A 
BRANCH   8  14
HETATM   14  C   UNL     1     -24.752  -7.448 -16.441  1.00  0.00     0.057 C 
BRANCH  14  15
HETATM   15  C   UNL     1     -23.824  -6.942 -17.549  1.00  0.00     0.002 C 
HETATM   16  C   UNL     1     -24.421  -7.192 -18.926  1.00  0.00     0.005 C 
ENDBRANCH  14  15
ENDBRANCH   8  14
BRANCH  10  17
HETATM   17  C   UNL     1     -29.538  -6.722 -17.237  1.00  0.00     0.432 C 
HETATM   18  F   UNL     1     -29.733  -8.069 -17.203  1.00  0.00    -0.165 F 
HETATM   19  F   UNL     1     -30.640  -6.171 -16.646  1.00  0.00    -0.165 F 
HETATM   20  F   UNL     1     -29.623  -6.369 -18.555  1.00  0.00    -0.165 F 
ENDBRANCH  10  17
ENDBRANCH   6   7
ENDBRANCH   1   5
BRANCH   3  21
HETATM   21  C   UNL     1     -21.405  -4.101 -11.270  1.00  0.00     0.114 C 
HETATM   22  C   UNL     1     -21.232  -2.601 -11.519  1.00  0.00     0.037 C 
BRANCH  21  23
HETATM   23  C   UNL     1     -21.368  -4.496  -9.799  1.00  0.00    -0.030 A 
HETATM   24  C   UNL     1     -22.512  -4.288  -9.007  1.00  0.00     0.053 A 
HETATM   25  C   UNL     1     -22.503  -4.575  -7.637  1.00  0.00     0.142 A 
HETATM   26  F   UNL     1     -23.609  -4.336  -6.918  1.00  0.00    -0.204 F 
HETATM   27  C   UNL     1     -21.343  -5.031  -7.014  1.00  0.00     0.099 A 
HETATM   28  C   UNL     1     -20.227  -5.296  -7.805  1.00  0.00     0.142 A 
HETATM   29  F   UNL     1     -19.103  -5.758  -7.238  1.00  0.00    -0.204 F 
HETATM   30  C   UNL     1     -20.227  -5.024  -9.177  1.00  0.00     0.053 A 
BRANCH  27  31
HETATM   31  N   UNL     1     -21.279  -5.176  -5.584  1.00  0.00    -0.180 NA
HETATM   32  H   UNL     1     -20.330  -5.098  -5.207  1.00  0.00     0.146 HD
BRANCH  31  33
HETATM   33  S   UNL     1     -21.997  -6.532  -4.883  1.00  0.00     0.210 S 
HETATM   34  C   UNL     1     -21.352  -6.471  -3.228  1.00  0.00     0.180 C 
HETATM   35  O   UNL     1     -23.435  -6.354  -4.841  1.00  0.00    -0.211 OA
HETATM   36  O   UNL     1     -21.393  -7.668  -5.549  1.00  0.00    -0.211 OA
ENDBRANCH  31  33
ENDBRANCH  27  31
ENDBRANCH  21  23
ENDBRANCH   3  21
TORSDOF 9
BEGIN_RES ARG D 557
REMARK  4 active torsions:
REMARK  status: ('A' for Active; 'I' for Inactive)
REMARK    1  A    between atoms: CA   and  CB  
REMARK    2  A    between atoms: CB   and  CG  
REMARK    3  A    between atoms: CG   and  CD  
REMARK    4  A    between atoms: CD   and  NE  
REMARK       I    between atoms: NE   and  CZ  
REMARK       I    between atoms: CZ   and  NH1 
REMARK       I    between atoms: CZ   and  NH2 
ROOT
ATOM      1  CA  ARG D 557     -26.217   2.705 -17.014  1.00 35.49     0.159 C 
ENDROOT
BRANCH   1   2
ATOM      2  CB  ARG D 557     -26.789   1.319 -17.183  1.00 35.49     0.034 C 
BRANCH   2   3
ATOM      3  CG  ARG D 557     -26.959   0.521 -15.963  1.00 35.49     0.027 C 
BRANCH   3   4
ATOM      4  CD  ARG D 557     -26.568  -0.894 -16.155  1.00 35.49     0.116 C 
BRANCH   4   5
ATOM      5  NE  ARG D 557     -25.725  -1.374 -15.091  1.00 35.49    -0.212 N 
ATOM      6  CZ  ARG D 557     -24.476  -1.023 -14.884  1.00 35.49     0.666 C 
ATOM      7  NH1 ARG D 557     -23.838  -0.175 -15.668  1.00 35.49    -0.235 N 
ATOM      8  NH2 ARG D 557     -23.870  -1.542 -13.855  1.00 35.49    -0.235 N 
ATOM      9  HH  ARG D 557     -24.218   0.181 -16.349  1.00 35.49     0.174 HD
ATOM     10  HH  ARG D 557     -23.024   0.019 -15.482  1.00 35.49     0.174 HD
ATOM     11  HH  ARG D 557     -24.309  -2.082 -13.362  1.00 35.49     0.174 HD
ATOM     12  HH  ARG D 557     -23.064  -1.337 -13.687  1.00 35.49     0.174 HD
ATOM     13  HE  ARG D 557     -26.033  -1.980 -14.580  1.00 35.49     0.178 HD
ENDBRANCH   4   5
ENDBRANCH   3   4
ENDBRANCH   2   3
ENDBRANCH   1   2
END_RES ARG D 557
BEGIN_RES GLU D 570
REMARK  3 active torsions:
REMARK  status: ('A' for Active; 'I' for Inactive)
REMARK    5  A    between atoms: CA   and  CB  
REMARK    6  A    between atoms: CB   and  CG  
REMARK    7  A    between atoms: CG   and  CD  
ROOT
ATOM     14  CA  GLU D 570     -18.033  -6.348 -13.375  1.00 32.92     0.160 C 
ENDROOT
BRANCH  14  15
ATOM     15  CB  GLU D 570     -19.500  -6.345 -13.794  1.00 32.92     0.043 C 
BRANCH  15  16
ATOM     16  CG  GLU D 570     -20.094  -7.640 -14.215  1.00 32.92     0.100 C 
BRANCH  16  17
ATOM     17  CD  GLU D 570     -20.666  -7.600 -15.613  1.00 32.92     0.185 C 
ATOM     18  OE1 GLU D 570     -20.597  -6.540 -16.264  1.00 32.92    -0.647 OA
ATOM     19  OE2 GLU D 570     -21.204  -8.634 -16.054  1.00 32.92    -0.647 OA
ENDBRANCH  16  17
ENDBRANCH  15  16
ENDBRANCH  14  15
END_RES GLU D 570
ENDMDL
MODEL 8
REMARK VINA RESULT:      -9.3      8.271     13.303
REMARK  9 active torsions:
REMARK  status: ('A' for Active; 'I' for Inactive)
REMARK    1  A    between atoms: C_2  and  C_3 
REMARK    2  A    between atoms: C_3  and  C_4 
REMARK    3  A    between atoms: C_7  and  C_8 
REMARK    4  A    between atoms: C_14  and  C_15 
REMARK    5  A    between atoms: C_16  and  C_17 
REMARK       I    between atoms: C_17  and  N_19 
REMARK    6  A    between atoms: N_19  and  C_20 
REMARK    7  A    between atoms: C_20  and  C_22 
REMARK    8  A    between atoms: C_26  and  N_27 
REMARK    9  A    between atoms: N_27  and  S_28 
ROOT
HETATM    1  C   UNL     1     -32.186  -3.966 -16.978  1.00  0.00     0.241 C 
HETATM    2  O   UNL     1     -32.669  -3.090 -17.685  1.00  0.00    -0.269 OA
HETATM    3  N   UNL     1     -32.890  -4.649 -16.016  1.00  0.00    -0.349 N 
HETATM    4  H   UNL     1     -32.431  -5.342 -15.443  1.00  0.00     0.163 HD
ENDROOT
BRANCH   1   5
HETATM    5  C   UNL     1     -30.753  -4.364 -17.085  1.00  0.00     0.075 C 
HETATM    6  C   UNL     1     -30.177  -5.017 -16.058  1.00  0.00     0.019 C 
BRANCH   6   7
HETATM    7  C   UNL     1     -28.783  -5.502 -16.015  1.00  0.00    -0.013 A 
HETATM    8  C   UNL     1     -28.413  -6.807 -16.391  1.00  0.00     0.019 A 
HETATM    9  N   UNL     1     -27.119  -7.242 -16.370  1.00  0.00    -0.355 N 
HETATM   10  C   UNL     1     -26.135  -6.385 -15.981  1.00  0.00     0.117 A 
ATOM     11  HN  UNL     1     -26.891  -8.198 -16.643  1.00  0.00     0.166 HD
HETATM   12  C   UNL     1     -26.421  -5.069 -15.631  1.00  0.00     0.035 A 
HETATM   13  C   UNL     1     -27.745  -4.632 -15.656  1.00  0.00     0.015 A 
BRANCH   8  14
HETATM   14  C   UNL     1     -29.405  -7.855 -16.843  1.00  0.00     0.057 C 
BRANCH  14  15
HETATM   15  C   UNL     1     -29.749  -7.737 -18.331  1.00  0.00     0.002 C 
HETATM   16  C   UNL     1     -31.252  -7.625 -18.543  1.00  0.00     0.005 C 
ENDBRANCH  14  15
ENDBRANCH   8  14
BRANCH  10  17
HETATM   17  C   UNL     1     -24.692  -6.871 -15.903  1.00  0.00     0.432 C 
HETATM   18  F   UNL     1     -24.517  -8.185 -16.210  1.00  0.00    -0.165 F 
HETATM   19  F   UNL     1     -23.862  -6.178 -16.738  1.00  0.00    -0.165 F 
HETATM   20  F   UNL     1     -24.161  -6.708 -14.654  1.00  0.00    -0.165 F 
ENDBRANCH  10  17
ENDBRANCH   6   7
ENDBRANCH   1   5
BRANCH   3  21
HETATM   21  C   UNL     1     -34.294  -4.352 -15.742  1.00  0.00     0.114 C 
HETATM   22  C   UNL     1     -35.079  -5.646 -15.516  1.00  0.00     0.037 C 
BRANCH  21  23
HETATM   23  C   UNL     1     -34.400  -3.352 -14.598  1.00  0.00    -0.030 A 
HETATM   24  C   UNL     1     -33.972  -3.734 -13.314  1.00  0.00     0.053 A 
HETATM   25  C   UNL     1     -34.111  -2.871 -12.221  1.00  0.00     0.142 A 
HETATM   26  F   UNL     1     -33.712  -3.290 -11.010  1.00  0.00    -0.204 F 
HETATM   27  C   UNL     1     -34.721  -1.627 -12.368  1.00  0.00     0.099 A 
HETATM   28  C   UNL     1     -35.092  -1.221 -13.649  1.00  0.00     0.142 A 
HETATM   29  F   UNL     1     -35.659  -0.019 -13.828  1.00  0.00    -0.204 F 
HETATM   30  C   UNL     1     -34.948  -2.069 -14.752  1.00  0.00     0.053 A 
BRANCH  27  31
HETATM   31  N   UNL     1     -35.012  -0.804 -11.225  1.00  0.00    -0.180 NA
HETATM   32  H   UNL     1     -34.240  -0.747 -10.555  1.00  0.00     0.146 HD
BRANCH  31  33
HETATM   33  S   UNL     1     -36.423  -1.113 -10.354  1.00  0.00     0.210 S 
HETATM   34  C   UNL     1     -37.614  -0.123 -11.228  1.00  0.00     0.180 C 
HETATM   35  O   UNL     1     -36.779  -2.512 -10.484  1.00  0.00    -0.211 OA
HETATM   36  O   UNL     1     -36.210  -0.502  -9.058  1.00  0.00    -0.211 OA
ENDBRANCH  31  33
ENDBRANCH  27  31
ENDBRANCH  21  23
ENDBRANCH   3  21
TORSDOF 9
BEGIN_RES ARG D 557
REMARK  4 active torsions:
REMARK  status: ('A' for Active; 'I' for Inactive)
REMARK    1  A    between atoms: CA   and  CB  
REMARK    2  A    between atoms: CB   and  CG  
REMARK    3  A    between atoms: CG   and  CD  
REMARK    4  A    between atoms: CD   and  NE  
REMARK       I    between atoms: NE   and  CZ  
REMARK       I    between atoms: CZ   and  NH1 
REMARK       I    between atoms: CZ   and  NH2 
ROOT
ATOM      1  CA  ARG D 557     -26.217   2.705 -17.014  1.00 35.49     0.159 C 
ENDROOT
BRANCH   1   2
ATOM      2  CB  ARG D 557     -26.789   1.319 -17.183  1.00 35.49     0.034 C 
BRANCH   2   3
ATOM      3  CG  ARG D 557     -25.836   0.203 -17.153  1.00 35.49     0.027 C 
BRANCH   3   4
ATOM      4  CD  ARG D 557     -24.776   0.393 -16.137  1.00 35.49     0.116 C 
BRANCH   4   5
ATOM      5  NE  ARG D 557     -24.952  -0.473 -15.001  1.00 35.49    -0.212 N 
ATOM      6  CZ  ARG D 557     -24.148  -1.452 -14.649  1.00 35.49     0.666 C 
ATOM      7  NH1 ARG D 557     -23.064  -1.760 -15.336  1.00 35.49    -0.235 N 
ATOM      8  NH2 ARG D 557     -24.452  -2.121 -13.576  1.00 35.49    -0.235 N 
ATOM      9  HH  ARG D 557     -22.844  -1.332 -16.044  1.00 35.49     0.174 HD
ATOM     10  HH  ARG D 557     -22.576  -2.407 -15.057  1.00 35.49     0.174 HD
ATOM     11  HH  ARG D 557     -25.155  -1.895 -13.148  1.00 35.49     0.174 HD
ATOM     12  HH  ARG D 557     -23.956  -2.757 -13.315  1.00 35.49     0.174 HD
ATOM     13  HE  ARG D 557     -25.664  -0.392 -14.543  1.00 35.49     0.178 HD
ENDBRANCH   4   5
ENDBRANCH   3   4
ENDBRANCH   2   3
ENDBRANCH   1   2
END_RES ARG D 557
BEGIN_RES GLU D 570
REMARK  3 active torsions:
REMARK  status: ('A' for Active; 'I' for Inactive)
REMARK    5  A    between atoms: CA   and  CB  
REMARK    6  A    between atoms: CB   and  CG  
REMARK    7  A    between atoms: CG   and  CD  
ROOT
ATOM     14  CA  GLU D 570     -18.033  -6.348 -13.375  1.00 32.92     0.160 C 
ENDROOT
BRANCH  14  15
ATOM     15  CB  GLU D 570     -19.500  -6.345 -13.794  1.00 32.92     0.043 C 
BRANCH  15  16
ATOM     16  CG  GLU D 570     -20.440  -5.523 -12.989  1.00 32.92     0.100 C 
BRANCH  16  17
ATOM     17  CD  GLU D 570     -21.524  -4.881 -13.824  1.00 32.92     0.185 C 
ATOM     18  OE1 GLU D 570     -22.416  -4.222 -13.254  1.00 32.92    -0.647 OA
ATOM     19  OE2 GLU D 570     -21.490  -5.052 -15.058  1.00 32.92    -0.647 OA
ENDBRANCH  16  17
ENDBRANCH  15  16
ENDBRANCH  14  15
END_RES GLU D 570
ENDMDL
MODEL 9
REMARK VINA RESULT:      -9.2      4.036      5.590
REMARK  9 active torsions:
REMARK  status: ('A' for Active; 'I' for Inactive)
REMARK    1  A    between atoms: C_2  and  C_3 
REMARK    2  A    between atoms: C_3  and  C_4 
REMARK    3  A    between atoms: C_7  and  C_8 
REMARK    4  A    between atoms: C_14  and  C_15 
REMARK    5  A    between atoms: C_16  and  C_17 
REMARK       I    between atoms: C_17  and  N_19 
REMARK    6  A    between atoms: N_19  and  C_20 
REMARK    7  A    between atoms: C_20  and  C_22 
REMARK    8  A    between atoms: C_26  and  N_27 
REMARK    9  A    between atoms: N_27  and  S_28 
ROOT
HETATM    1  C   UNL     1     -20.098  -8.380  -5.205  1.00  0.00     0.241 C 
HETATM    2  O   UNL     1     -20.928  -8.583  -4.327  1.00  0.00    -0.269 OA
HETATM    3  N   UNL     1     -20.029  -7.223  -5.943  1.00  0.00    -0.349 N 
HETATM    4  H   UNL     1     -19.339  -7.124  -6.673  1.00  0.00     0.163 HD
ENDROOT
BRANCH   1   5
HETATM    5  C   UNL     1     -19.078  -9.403  -5.574  1.00  0.00     0.075 C 
HETATM    6  C   UNL     1     -17.908  -9.433  -4.906  1.00  0.00     0.019 C 
BRANCH   6   7
HETATM    7  C   UNL     1     -16.810 -10.392  -5.129  1.00  0.00    -0.013 A 
HETATM    8  C   UNL     1     -15.894 -10.759  -4.124  1.00  0.00     0.019 A 
HETATM    9  N   UNL     1     -14.894 -11.664  -4.332  1.00  0.00    -0.355 N 
HETATM   10  C   UNL     1     -14.771 -12.252  -5.553  1.00  0.00     0.117 A 
ATOM     11  HN  UNL     1     -14.245 -11.898  -3.579  1.00  0.00     0.166 HD
HETATM   12  C   UNL     1     -15.661 -11.968  -6.584  1.00  0.00     0.035 A 
HETATM   13  C   UNL     1     -16.681 -11.043  -6.364  1.00  0.00     0.015 A 
BRANCH   8  14
HETATM   14  C   UNL     1     -15.921 -10.182  -2.726  1.00  0.00     0.057 C 
BRANCH  14  15
HETATM   15  C   UNL     1     -16.727 -11.044  -1.750  1.00  0.00     0.002 C 
HETATM   16  C   UNL     1     -15.814 -11.766  -0.769  1.00  0.00     0.005 C 
ENDBRANCH  14  15
ENDBRANCH   8  14
BRANCH  10  17
HETATM   17  C   UNL     1     -13.628 -13.226  -5.815  1.00  0.00     0.432 C 
HETATM   18  F   UNL     1     -12.683 -12.774  -6.686  1.00  0.00    -0.165 F 
HETATM   19  F   UNL     1     -12.954 -13.562  -4.675  1.00  0.00    -0.165 F 
HETATM   20  F   UNL     1     -14.071 -14.412  -6.333  1.00  0.00    -0.165 F 
ENDBRANCH  10  17
ENDBRANCH   6   7
ENDBRANCH   1   5
BRANCH   3  21
HETATM   21  C   UNL     1     -20.983  -6.134  -5.746  1.00  0.00     0.114 C 
HETATM   22  C   UNL     1     -20.562  -5.263  -4.561  1.00  0.00     0.037 C 
BRANCH  21  23
HETATM   23  C   UNL     1     -21.169  -5.366  -7.048  1.00  0.00    -0.030 A 
HETATM   24  C   UNL     1     -22.326  -4.584  -7.221  1.00  0.00     0.053 A 
HETATM   25  C   UNL     1     -22.570  -3.914  -8.424  1.00  0.00     0.142 A 
HETATM   26  F   UNL     1     -23.700  -3.201  -8.551  1.00  0.00    -0.204 F 
HETATM   27  C   UNL     1     -21.696  -4.042  -9.501  1.00  0.00     0.099 A 
HETATM   28  C   UNL     1     -20.519  -4.766  -9.315  1.00  0.00     0.142 A 
HETATM   29  F   UNL     1     -19.645  -4.889 -10.324  1.00  0.00    -0.204 F 
HETATM   30  C   UNL     1     -20.257  -5.432  -8.113  1.00  0.00     0.053 A 
BRANCH  27  31
HETATM   31  N   UNL     1     -22.019  -3.489 -10.789  1.00  0.00    -0.180 NA
HETATM   32  H   UNL     1     -22.075  -2.467 -10.793  1.00  0.00     0.146 HD
BRANCH  31  33
HETATM   33  S   UNL     1     -23.379  -4.079 -11.595  1.00  0.00     0.210 S 
HETATM   34  C   UNL     1     -22.759  -4.291 -13.247  1.00  0.00     0.180 C 
HETATM   35  O   UNL     1     -23.743  -5.373 -11.053  1.00  0.00    -0.211 OA
HETATM   36  O   UNL     1     -24.317  -2.975 -11.615  1.00  0.00    -0.211 OA
ENDBRANCH  31  33
ENDBRANCH  27  31
ENDBRANCH  21  23
ENDBRANCH   3  21
TORSDOF 9
BEGIN_RES ARG D 557
REMARK  4 active torsions:
REMARK  status: ('A' for Active; 'I' for Inactive)
REMARK    1  A    between atoms: CA   and  CB  
REMARK    2  A    between atoms: CB   and  CG  
REMARK    3  A    between atoms: CG   and  CD  
REMARK    4  A    between atoms: CD   and  NE  
REMARK       I    between atoms: NE   and  CZ  
REMARK       I    between atoms: CZ   and  NH1 
REMARK       I    between atoms: CZ   and  NH2 
ROOT
ATOM      1  CA  ARG D 557     -26.217   2.705 -17.014  1.00 35.49     0.159 C 
ENDROOT
BRANCH   1   2
ATOM      2  CB  ARG D 557     -26.789   1.319 -17.183  1.00 35.49     0.034 C 
BRANCH   2   3
ATOM      3  CG  ARG D 557     -28.232   1.226 -17.436  1.00 35.49     0.027 C 
BRANCH   3   4
ATOM      4  CD  ARG D 557     -28.911   0.304 -16.497  1.00 35.49     0.116 C 
BRANCH   4   5
ATOM      5  NE  ARG D 557     -29.314  -0.921 -17.137  1.00 35.49    -0.212 N 
ATOM      6  CZ  ARG D 557     -28.699  -2.078 -17.038  1.00 35.49     0.666 C 
ATOM      7  NH1 ARG D 557     -27.599  -2.238 -16.326  1.00 35.49    -0.235 N 
ATOM      8  NH2 ARG D 557     -29.219  -3.090 -17.670  1.00 35.49    -0.235 N 
ATOM      9  HH  ARG D 557     -27.241  -1.586 -15.900  1.00 35.49     0.174 HD
ATOM     10  HH  ARG D 557     -27.243  -3.017 -16.296  1.00 35.49     0.174 HD
ATOM     11  HH  ARG D 557     -29.934  -2.959 -18.116  1.00 35.49     0.174 HD
ATOM     12  HH  ARG D 557     -28.852  -3.853 -17.627  1.00 35.49     0.174 HD
ATOM     13  HE  ARG D 557     -29.973  -0.893 -17.674  1.00 35.49     0.178 HD
ENDBRANCH   4   5
ENDBRANCH   3   4
ENDBRANCH   2   3
ENDBRANCH   1   2
END_RES ARG D 557
BEGIN_RES GLU D 570
REMARK  3 active torsions:
REMARK  status: ('A' for Active; 'I' for Inactive)
REMARK    5  A    between atoms: CA   and  CB  
REMARK    6  A    between atoms: CB   and  CG  
REMARK    7  A    between atoms: CG   and  CD  
ROOT
ATOM     14  CA  GLU D 570     -18.033  -6.348 -13.375  1.00 32.92     0.160 C 
ENDROOT
BRANCH  14  15
ATOM     15  CB  GLU D 570     -19.500  -6.345 -13.794  1.00 32.92     0.043 C 
BRANCH  15  16
ATOM     16  CG  GLU D 570     -19.802  -6.089 -15.226  1.00 32.92     0.100 C 
BRANCH  16  17
ATOM     17  CD  GLU D 570     -20.623  -7.188 -15.860  1.00 32.92     0.185 C 
ATOM     18  OE1 GLU D 570     -21.251  -6.946 -16.909  1.00 32.92    -0.647 OA
ATOM     19  OE2 GLU D 570     -20.651  -8.298 -15.293  1.00 32.92    -0.647 OA
ENDBRANCH  16  17
ENDBRANCH  15  16
ENDBRANCH  14  15
END_RES GLU D 570
ENDMDL
