MODEL 1
REMARK VINA RESULT:     -10.0      0.000      0.000
REMARK  4 active torsions:
REMARK  status: ('A' for Active; 'I' for Inactive)
REMARK       I    between atoms: C_2  and  N_3 
REMARK       I    between atoms: C_2  and  N_15 
REMARK    1  A    between atoms: N_3  and  C_4 
REMARK    2  A    between atoms: C_7  and  C_8 
REMARK    3  A    between atoms: N_18  and  C_19 
REMARK    4  A    between atoms: C_25  and  C_26 
ROOT
HETATM    1  O   UNL     1     -20.353  -4.733  -5.220  1.00  0.00    -0.247 OA
HETATM    2  C   UNL     1     -21.159  -5.655  -5.322  1.00  0.00     0.324 C 
HETATM    3  N   UNL     1     -21.954  -5.865  -6.424  1.00  0.00    -0.295 N 
HETATM    4  N   UNL     1     -21.371  -6.556  -4.303  1.00  0.00    -0.331 N 
HETATM    5  C   UNL     1     -20.936  -6.237  -2.930  1.00  0.00     0.147 C 
HETATM    6  C   UNL     1     -20.202  -7.412  -2.247  1.00  0.00     0.144 C 
HETATM    7  N   UNL     1     -21.044  -8.619  -2.408  1.00  0.00    -0.363 N 
HETATM    8  C   UNL     1     -21.194  -8.976  -3.825  1.00  0.00     0.144 C 
HETATM    9  C   UNL     1     -22.027  -7.859  -4.484  1.00  0.00     0.147 C 
HETATM   10  H   UNL     1     -22.917  -6.077  -6.213  1.00  0.00     0.172 HD
ENDROOT
BRANCH   3  11
HETATM   11  C   UNL     1     -21.819  -5.126  -7.595  1.00  0.00     0.108 A 
HETATM   12  C   UNL     1     -22.858  -4.345  -8.083  1.00  0.00     0.049 A 
HETATM   13  C   UNL     1     -22.669  -3.659  -9.277  1.00  0.00     0.021 A 
HETATM   14  C   UNL     1     -21.458  -3.791  -9.960  1.00  0.00     0.063 A 
HETATM   15  C   UNL     1     -20.471  -4.570  -9.372  1.00  0.00     0.106 A 
HETATM   16  N   UNL     1     -20.612  -5.208  -8.187  1.00  0.00    -0.351 N 
ATOM     17  HN  UNL     1     -19.841  -5.725  -7.764  1.00  0.00     0.166 HD
BRANCH  14  18
HETATM   18  C   UNL     1     -21.204  -3.146 -11.283  1.00  0.00     0.418 C 
HETATM   19  F   UNL     1     -21.236  -4.016 -12.331  1.00  0.00    -0.166 F 
HETATM   20  F   UNL     1     -22.117  -2.179 -11.576  1.00  0.00    -0.166 F 
HETATM   21  F   UNL     1     -19.986  -2.537 -11.340  1.00  0.00    -0.166 F 
ENDBRANCH  14  18
ENDBRANCH   3  11
BRANCH   7  22
HETATM   22  C   UNL     1     -21.032  -9.597  -1.440  1.00  0.00     0.118 A 
HETATM   23  N   UNL     1     -20.172 -10.633  -1.641  1.00  0.00    -0.352 N 
HETATM   24  C   UNL     1     -20.055 -11.598  -0.701  1.00  0.00     0.089 A 
ATOM     25  HN  UNL     1     -19.619 -10.681  -2.496  1.00  0.00     0.166 HD
HETATM   26  C   UNL     1     -20.760 -11.604   0.479  1.00  0.00     0.018 A 
HETATM   27  C   UNL     1     -21.622 -10.545   0.698  1.00  0.00     0.021 A 
HETATM   28  C   UNL     1     -21.760  -9.509  -0.253  1.00  0.00     0.091 A 
BRANCH  28  29
HETATM   29  C   UNL     1     -22.657  -8.378   0.162  1.00  0.00     0.421 C 
HETATM   30  F   UNL     1     -22.927  -7.413  -0.756  1.00  0.00    -0.166 F 
HETATM   31  F   UNL     1     -23.879  -8.831   0.566  1.00  0.00    -0.166 F 
HETATM   32  F   UNL     1     -22.156  -7.694   1.233  1.00  0.00    -0.166 F 
ENDBRANCH  28  29
ENDBRANCH   7  22
TORSDOF 4
BEGIN_RES ARG D 557
REMARK  4 active torsions:
REMARK  status: ('A' for Active; 'I' for Inactive)
REMARK    1  A    between atoms: CA   and  CB  
REMARK    2  A    between atoms: CB   and  CG  
REMARK    3  A    between atoms: CG   and  CD  
REMARK    4  A    between atoms: CD   and  NE  
REMARK       I    between atoms: NE   and  CZ  
REMARK       I    between atoms: CZ   and  NH1 
REMARK       I    between atoms: CZ   and  NH2 
ROOT
ATOM      1  CA  ARG D 557     -26.217   2.705 -17.014  1.00 35.49     0.159 C 
ENDROOT
BRANCH   1   2
ATOM      2  CB  ARG D 557     -26.789   1.319 -17.183  1.00 35.49     0.034 C 
BRANCH   2   3
ATOM      3  CG  ARG D 557     -25.836   0.203 -17.156  1.00 35.49     0.027 C 
BRANCH   3   4
ATOM      4  CD  ARG D 557     -24.778   0.389 -16.137  1.00 35.49     0.116 C 
BRANCH   4   5
ATOM      5  NE  ARG D 557     -24.950  -0.491 -15.011  1.00 35.49    -0.212 N 
ATOM      6  CZ  ARG D 557     -24.134  -1.461 -14.662  1.00 35.49     0.666 C 
ATOM      7  NH1 ARG D 557     -23.040  -1.746 -15.343  1.00 35.49    -0.235 N 
ATOM      8  NH2 ARG D 557     -24.436  -2.146 -13.597  1.00 35.49    -0.235 N 
ATOM      9  HH  ARG D 557     -22.821  -1.307 -16.046  1.00 35.49     0.174 HD
ATOM     10  HH  ARG D 557     -22.545  -2.389 -15.067  1.00 35.49     0.174 HD
ATOM     11  HH  ARG D 557     -25.145  -1.934 -13.173  1.00 35.49     0.174 HD
ATOM     12  HH  ARG D 557     -23.932  -2.777 -13.339  1.00 35.49     0.174 HD
ATOM     13  HE  ARG D 557     -25.667  -0.425 -14.558  1.00 35.49     0.178 HD
ENDBRANCH   4   5
ENDBRANCH   3   4
ENDBRANCH   2   3
ENDBRANCH   1   2
END_RES ARG D 557
BEGIN_RES GLU D 570
REMARK  3 active torsions:
REMARK  status: ('A' for Active; 'I' for Inactive)
REMARK    5  A    between atoms: CA   and  CB  
REMARK    6  A    between atoms: CB   and  CG  
REMARK    7  A    between atoms: CG   and  CD  
ROOT
ATOM     14  CA  GLU D 570     -18.033  -6.348 -13.375  1.00 32.92     0.160 C 
ENDROOT
BRANCH  14  15
ATOM     15  CB  GLU D 570     -19.500  -6.345 -13.794  1.00 32.92     0.043 C 
BRANCH  15  16
ATOM     16  CG  GLU D 570     -19.824  -5.826 -15.148  1.00 32.92     0.100 C 
BRANCH  16  17
ATOM     17  CD  GLU D 570     -21.307  -5.640 -15.368  1.00 32.92     0.185 C 
ATOM     18  OE1 GLU D 570     -22.066  -6.619 -15.236  1.00 32.92    -0.647 OA
ATOM     19  OE2 GLU D 570     -21.712  -4.506 -15.693  1.00 32.92    -0.647 OA
ENDBRANCH  16  17
ENDBRANCH  15  16
ENDBRANCH  14  15
END_RES GLU D 570
ENDMDL
MODEL 2
REMARK VINA RESULT:      -9.6      1.575      2.110
REMARK  4 active torsions:
REMARK  status: ('A' for Active; 'I' for Inactive)
REMARK       I    between atoms: C_2  and  N_3 
REMARK       I    between atoms: C_2  and  N_15 
REMARK    1  A    between atoms: N_3  and  C_4 
REMARK    2  A    between atoms: C_7  and  C_8 
REMARK    3  A    between atoms: N_18  and  C_19 
REMARK    4  A    between atoms: C_25  and  C_26 
ROOT
HETATM    1  O   UNL     1     -20.342  -4.717  -5.248  1.00  0.00    -0.247 OA
HETATM    2  C   UNL     1     -21.148  -5.640  -5.345  1.00  0.00     0.324 C 
HETATM    3  N   UNL     1     -21.948  -5.852  -6.442  1.00  0.00    -0.295 N 
HETATM    4  N   UNL     1     -21.353  -6.541  -4.324  1.00  0.00    -0.331 N 
HETATM    5  C   UNL     1     -20.910  -6.219  -2.954  1.00  0.00     0.147 C 
HETATM    6  C   UNL     1     -20.171  -7.393  -2.273  1.00  0.00     0.144 C 
HETATM    7  N   UNL     1     -21.012  -8.601  -2.428  1.00  0.00    -0.363 N 
HETATM    8  C   UNL     1     -21.170  -8.960  -3.844  1.00  0.00     0.144 C 
HETATM    9  C   UNL     1     -22.008  -7.845  -4.499  1.00  0.00     0.147 C 
HETATM   10  H   UNL     1     -22.910  -6.065  -6.225  1.00  0.00     0.172 HD
ENDROOT
BRANCH   3  11
HETATM   11  C   UNL     1     -21.821  -5.114  -7.614  1.00  0.00     0.108 A 
HETATM   12  C   UNL     1     -22.864  -4.336  -8.098  1.00  0.00     0.049 A 
HETATM   13  C   UNL     1     -22.683  -3.651  -9.294  1.00  0.00     0.021 A 
HETATM   14  C   UNL     1     -21.475  -3.782  -9.983  1.00  0.00     0.063 A 
HETATM   15  C   UNL     1     -20.484  -4.557  -9.399  1.00  0.00     0.106 A 
HETATM   16  N   UNL     1     -20.616  -5.194  -8.213  1.00  0.00    -0.351 N 
ATOM     17  HN  UNL     1     -19.843  -5.709  -7.793  1.00  0.00     0.166 HD
BRANCH  14  18
HETATM   18  C   UNL     1     -21.229  -3.137 -11.307  1.00  0.00     0.418 C 
HETATM   19  F   UNL     1     -20.052  -2.455 -11.373  1.00  0.00    -0.166 F 
HETATM   20  F   UNL     1     -21.193  -4.038 -12.328  1.00  0.00    -0.166 F 
HETATM   21  F   UNL     1     -22.199  -2.240 -11.638  1.00  0.00    -0.166 F 
ENDBRANCH  14  18
ENDBRANCH   3  11
BRANCH   7  22
HETATM   22  C   UNL     1     -20.994  -9.579  -1.459  1.00  0.00     0.118 A 
HETATM   23  N   UNL     1     -20.140 -10.618  -1.668  1.00  0.00    -0.352 N 
HETATM   24  C   UNL     1     -20.017 -11.582  -0.729  1.00  0.00     0.089 A 
ATOM     25  HN  UNL     1     -19.596 -10.669  -2.529  1.00  0.00     0.166 HD
HETATM   26  C   UNL     1     -20.709 -11.584   0.459  1.00  0.00     0.018 A 
HETATM   27  C   UNL     1     -21.564 -10.521   0.686  1.00  0.00     0.021 A 
HETATM   28  C   UNL     1     -21.708  -9.486  -0.265  1.00  0.00     0.091 A 
BRANCH  28  29
HETATM   29  C   UNL     1     -22.596  -8.350   0.159  1.00  0.00     0.421 C 
HETATM   30  F   UNL     1     -23.810  -8.657   0.688  1.00  0.00    -0.166 F 
HETATM   31  F   UNL     1     -21.990  -7.567   1.099  1.00  0.00    -0.166 F 
HETATM   32  F   UNL     1     -22.881  -7.509  -0.878  1.00  0.00    -0.166 F 
ENDBRANCH  28  29
ENDBRANCH   7  22
TORSDOF 4
BEGIN_RES ARG D 557
REMARK  4 active torsions:
REMARK  status: ('A' for Active; 'I' for Inactive)
REMARK    1  A    between atoms: CA   and  CB  
REMARK    2  A    between atoms: CB   and  CG  
REMARK    3  A    between atoms: CG   and  CD  
REMARK    4  A    between atoms: CD   and  NE  
REMARK       I    between atoms: NE   and  CZ  
REMARK       I    between atoms: CZ   and  NH1 
REMARK       I    between atoms: CZ   and  NH2 
ROOT
ATOM      1  CA  ARG D 557     -26.217   2.705 -17.014  1.00 35.49     0.159 C 
ENDROOT
BRANCH   1   2
ATOM      2  CB  ARG D 557     -26.789   1.319 -17.183  1.00 35.49     0.034 C 
BRANCH   2   3
ATOM      3  CG  ARG D 557     -28.236   1.225 -17.408  1.00 35.49     0.027 C 
BRANCH   3   4
ATOM      4  CD  ARG D 557     -28.893   0.281 -16.474  1.00 35.49     0.116 C 
BRANCH   4   5
ATOM      5  NE  ARG D 557     -29.274  -0.946 -17.122  1.00 35.49    -0.212 N 
ATOM      6  CZ  ARG D 557     -28.641  -2.094 -17.025  1.00 35.49     0.666 C 
ATOM      7  NH1 ARG D 557     -27.542  -2.240 -16.308  1.00 35.49    -0.235 N 
ATOM      8  NH2 ARG D 557     -29.141  -3.111 -17.664  1.00 35.49    -0.235 N 
ATOM      9  HH  ARG D 557     -27.196  -1.584 -15.877  1.00 35.49     0.174 HD
ATOM     10  HH  ARG D 557     -27.174  -3.013 -16.279  1.00 35.49     0.174 HD
ATOM     11  HH  ARG D 557     -29.856  -2.989 -18.113  1.00 35.49     0.174 HD
ATOM     12  HH  ARG D 557     -28.763  -3.869 -17.623  1.00 35.49     0.174 HD
ATOM     13  HE  ARG D 557     -29.930  -0.926 -17.662  1.00 35.49     0.178 HD
ENDBRANCH   4   5
ENDBRANCH   3   4
ENDBRANCH   2   3
ENDBRANCH   1   2
END_RES ARG D 557
BEGIN_RES GLU D 570
REMARK  3 active torsions:
REMARK  status: ('A' for Active; 'I' for Inactive)
REMARK    5  A    between atoms: CA   and  CB  
REMARK    6  A    between atoms: CB   and  CG  
REMARK    7  A    between atoms: CG   and  CD  
ROOT
ATOM     14  CA  GLU D 570     -18.033  -6.348 -13.375  1.00 32.92     0.160 C 
ENDROOT
BRANCH  14  15
ATOM     15  CB  GLU D 570     -19.500  -6.345 -13.794  1.00 32.92     0.043 C 
BRANCH  15  16
ATOM     16  CG  GLU D 570     -19.804  -6.065 -15.221  1.00 32.92     0.100 C 
BRANCH  16  17
ATOM     17  CD  GLU D 570     -21.267  -5.779 -15.467  1.00 32.92     0.185 C 
ATOM     18  OE1 GLU D 570     -21.583  -4.774 -16.133  1.00 32.92    -0.647 OA
ATOM     19  OE2 GLU D 570     -22.106  -6.559 -14.975  1.00 32.92    -0.647 OA
ENDBRANCH  16  17
ENDBRANCH  15  16
ENDBRANCH  14  15
END_RES GLU D 570
ENDMDL
MODEL 3
REMARK VINA RESULT:      -9.0      2.190      9.023
REMARK  4 active torsions:
REMARK  status: ('A' for Active; 'I' for Inactive)
REMARK       I    between atoms: C_2  and  N_3 
REMARK       I    between atoms: C_2  and  N_15 
REMARK    1  A    between atoms: N_3  and  C_4 
REMARK    2  A    between atoms: C_7  and  C_8 
REMARK    3  A    between atoms: N_18  and  C_19 
REMARK    4  A    between atoms: C_25  and  C_26 
ROOT
HETATM    1  O   UNL     1     -20.440  -4.856  -3.916  1.00  0.00    -0.247 OA
HETATM    2  C   UNL     1     -20.995  -5.672  -4.648  1.00  0.00     0.324 C 
HETATM    3  N   UNL     1     -21.384  -6.928  -4.247  1.00  0.00    -0.295 N 
HETATM    4  N   UNL     1     -21.249  -5.409  -5.975  1.00  0.00    -0.331 N 
HETATM    5  C   UNL     1     -20.535  -4.317  -6.663  1.00  0.00     0.147 C 
HETATM    6  C   UNL     1     -21.473  -3.431  -7.513  1.00  0.00     0.144 C 
HETATM    7  N   UNL     1     -22.283  -4.329  -8.367  1.00  0.00    -0.363 N 
HETATM    8  C   UNL     1     -23.141  -5.203  -7.555  1.00  0.00     0.144 C 
HETATM    9  C   UNL     1     -22.209  -6.165  -6.792  1.00  0.00     0.147 C 
HETATM   10  H   UNL     1     -21.157  -7.666  -4.896  1.00  0.00     0.172 HD
ENDROOT
BRANCH   3  11
HETATM   11  C   UNL     1     -21.307  -7.347  -2.922  1.00  0.00     0.108 A 
HETATM   12  C   UNL     1     -20.454  -8.371  -2.534  1.00  0.00     0.049 A 
HETATM   13  C   UNL     1     -20.451  -8.765  -1.201  1.00  0.00     0.021 A 
HETATM   14  C   UNL     1     -21.317  -8.140  -0.300  1.00  0.00     0.063 A 
HETATM   15  C   UNL     1     -22.106  -7.105  -0.780  1.00  0.00     0.106 A 
HETATM   16  N   UNL     1     -22.092  -6.670  -2.061  1.00  0.00    -0.351 N 
ATOM     17  HN  UNL     1     -22.648  -5.869  -2.360  1.00  0.00     0.166 HD
BRANCH  14  18
HETATM   18  C   UNL     1     -21.425  -8.554   1.131  1.00  0.00     0.418 C 
HETATM   19  F   UNL     1     -21.440  -9.904   1.310  1.00  0.00    -0.166 F 
HETATM   20  F   UNL     1     -20.393  -8.090   1.889  1.00  0.00    -0.166 F 
HETATM   21  F   UNL     1     -22.560  -8.087   1.723  1.00  0.00    -0.166 F 
ENDBRANCH  14  18
ENDBRANCH   3  11
BRANCH   7  22
HETATM   22  C   UNL     1     -22.696  -3.906  -9.610  1.00  0.00     0.118 A 
HETATM   23  N   UNL     1     -24.007  -3.557  -9.722  1.00  0.00    -0.352 N 
HETATM   24  C   UNL     1     -24.472  -3.067 -10.892  1.00  0.00     0.089 A 
ATOM     25  HN  UNL     1     -24.636  -3.664  -8.926  1.00  0.00     0.166 HD
HETATM   26  C   UNL     1     -23.690  -2.886 -12.009  1.00  0.00     0.018 A 
HETATM   27  C   UNL     1     -22.354  -3.221 -11.897  1.00  0.00     0.021 A 
HETATM   28  C   UNL     1     -21.827  -3.721 -10.685  1.00  0.00     0.091 A 
BRANCH  28  29
HETATM   29  C   UNL     1     -20.342  -3.949 -10.681  1.00  0.00     0.421 C 
HETATM   30  F   UNL     1     -19.888  -5.164 -10.277  1.00  0.00    -0.166 F 
HETATM   31  F   UNL     1     -19.805  -3.768 -11.923  1.00  0.00    -0.166 F 
HETATM   32  F   UNL     1     -19.689  -3.060  -9.876  1.00  0.00    -0.166 F 
ENDBRANCH  28  29
ENDBRANCH   7  22
TORSDOF 4
BEGIN_RES ARG D 557
REMARK  4 active torsions:
REMARK  status: ('A' for Active; 'I' for Inactive)
REMARK    1  A    between atoms: CA   and  CB  
REMARK    2  A    between atoms: CB   and  CG  
REMARK    3  A    between atoms: CG   and  CD  
REMARK    4  A    between atoms: CD   and  NE  
REMARK       I    between atoms: NE   and  CZ  
REMARK       I    between atoms: CZ   and  NH1 
REMARK       I    between atoms: CZ   and  NH2 
ROOT
ATOM      1  CA  ARG D 557     -26.217   2.705 -17.014  1.00 35.49     0.159 C 
ENDROOT
BRANCH   1   2
ATOM      2  CB  ARG D 557     -26.789   1.319 -17.183  1.00 35.49     0.034 C 
BRANCH   2   3
ATOM      3  CG  ARG D 557     -28.235   1.225 -17.420  1.00 35.49     0.027 C 
BRANCH   3   4
ATOM      4  CD  ARG D 557     -28.900   0.289 -16.485  1.00 35.49     0.116 C 
BRANCH   4   5
ATOM      5  NE  ARG D 557     -29.297  -0.933 -17.132  1.00 35.49    -0.212 N 
ATOM      6  CZ  ARG D 557     -28.676  -2.088 -17.039  1.00 35.49     0.666 C 
ATOM      7  NH1 ARG D 557     -27.576  -2.247 -16.327  1.00 35.49    -0.235 N 
ATOM      8  NH2 ARG D 557     -29.190  -3.099 -17.678  1.00 35.49    -0.235 N 
ATOM      9  HH  ARG D 557     -27.221  -1.596 -15.896  1.00 35.49     0.174 HD
ATOM     10  HH  ARG D 557     -27.216  -3.024 -16.301  1.00 35.49     0.174 HD
ATOM     11  HH  ARG D 557     -29.905  -2.969 -18.124  1.00 35.49     0.174 HD
ATOM     12  HH  ARG D 557     -28.819  -3.861 -17.639  1.00 35.49     0.174 HD
ATOM     13  HE  ARG D 557     -29.955  -0.905 -17.670  1.00 35.49     0.178 HD
ENDBRANCH   4   5
ENDBRANCH   3   4
ENDBRANCH   2   3
ENDBRANCH   1   2
END_RES ARG D 557
BEGIN_RES GLU D 570
REMARK  3 active torsions:
REMARK  status: ('A' for Active; 'I' for Inactive)
REMARK    5  A    between atoms: CA   and  CB  
REMARK    6  A    between atoms: CB   and  CG  
REMARK    7  A    between atoms: CG   and  CD  
ROOT
ATOM     14  CA  GLU D 570     -18.033  -6.348 -13.375  1.00 32.92     0.160 C 
ENDROOT
BRANCH  14  15
ATOM     15  CB  GLU D 570     -19.500  -6.345 -13.794  1.00 32.92     0.043 C 
BRANCH  15  16
ATOM     16  CG  GLU D 570     -19.810  -5.970 -15.198  1.00 32.92     0.100 C 
BRANCH  16  17
ATOM     17  CD  GLU D 570     -21.224  -5.466 -15.374  1.00 32.92     0.185 C 
ATOM     18  OE1 GLU D 570     -22.035  -5.598 -14.438  1.00 32.92    -0.647 OA
ATOM     19  OE2 GLU D 570     -21.528  -4.948 -16.467  1.00 32.92    -0.647 OA
ENDBRANCH  16  17
ENDBRANCH  15  16
ENDBRANCH  14  15
END_RES GLU D 570
ENDMDL
MODEL 4
REMARK VINA RESULT:      -8.8      5.871     11.321
REMARK  4 active torsions:
REMARK  status: ('A' for Active; 'I' for Inactive)
REMARK       I    between atoms: C_2  and  N_3 
REMARK       I    between atoms: C_2  and  N_15 
REMARK    1  A    between atoms: N_3  and  C_4 
REMARK    2  A    between atoms: C_7  and  C_8 
REMARK    3  A    between atoms: N_18  and  C_19 
REMARK    4  A    between atoms: C_25  and  C_26 
ROOT
HETATM    1  O   UNL     1     -24.446  -3.244 -12.202  1.00  0.00    -0.247 OA
HETATM    2  C   UNL     1     -23.915  -4.103 -12.902  1.00  0.00     0.324 C 
HETATM    3  N   UNL     1     -22.752  -4.757 -12.571  1.00  0.00    -0.295 N 
HETATM    4  N   UNL     1     -24.430  -4.468 -14.126  1.00  0.00    -0.331 N 
HETATM    5  C   UNL     1     -25.398  -3.592 -14.813  1.00  0.00     0.147 C 
HETATM    6  C   UNL     1     -26.608  -4.366 -15.380  1.00  0.00     0.144 C 
HETATM    7  N   UNL     1     -26.082  -5.508 -16.162  1.00  0.00    -0.363 N 
HETATM    8  C   UNL     1     -25.341  -6.443 -15.304  1.00  0.00     0.144 C 
HETATM    9  C   UNL     1     -24.072  -5.708 -14.830  1.00  0.00     0.147 C 
HETATM   10  H   UNL     1     -22.087  -4.839 -13.325  1.00  0.00     0.172 HD
ENDROOT
BRANCH   3  11
HETATM   11  C   UNL     1     -22.133  -4.602 -11.335  1.00  0.00     0.108 A 
HETATM   12  C   UNL     1     -20.789  -4.275 -11.233  1.00  0.00     0.049 A 
HETATM   13  C   UNL     1     -20.224  -4.170  -9.967  1.00  0.00     0.021 A 
HETATM   14  C   UNL     1     -21.013  -4.419  -8.841  1.00  0.00     0.063 A 
HETATM   15  C   UNL     1     -22.354  -4.708  -9.049  1.00  0.00     0.106 A 
HETATM   16  N   UNL     1     -22.939  -4.767 -10.268  1.00  0.00    -0.351 N 
ATOM     17  HN  UNL     1     -23.941  -4.929 -10.372  1.00  0.00     0.166 HD
BRANCH  14  18
HETATM   18  C   UNL     1     -20.465  -4.398  -7.453  1.00  0.00     0.418 C 
HETATM   19  F   UNL     1     -19.113  -4.241  -7.401  1.00  0.00    -0.166 F 
HETATM   20  F   UNL     1     -20.985  -3.389  -6.701  1.00  0.00    -0.166 F 
HETATM   21  F   UNL     1     -20.733  -5.546  -6.769  1.00  0.00    -0.166 F 
ENDBRANCH  14  18
ENDBRANCH   3  11
BRANCH   7  22
HETATM   22  C   UNL     1     -26.777  -5.969 -17.257  1.00  0.00     0.118 A 
HETATM   23  N   UNL     1     -26.040  -6.239 -18.369  1.00  0.00    -0.352 N 
HETATM   24  C   UNL     1     -26.642  -6.759 -19.461  1.00  0.00     0.089 A 
ATOM     25  HN  UNL     1     -25.038  -6.050 -18.377  1.00  0.00     0.166 HD
HETATM   26  C   UNL     1     -27.985  -7.048 -19.528  1.00  0.00     0.018 A 
HETATM   27  C   UNL     1     -28.736  -6.794 -18.396  1.00  0.00     0.021 A 
HETATM   28  C   UNL     1     -28.140  -6.265 -17.230  1.00  0.00     0.091 A 
BRANCH  28  29
HETATM   29  C   UNL     1     -29.059  -6.132 -16.048  1.00  0.00     0.421 C 
HETATM   30  F   UNL     1     -29.252  -4.889 -15.532  1.00  0.00    -0.166 F 
HETATM   31  F   UNL     1     -30.311  -6.592 -16.335  1.00  0.00    -0.166 F 
HETATM   32  F   UNL     1     -28.637  -6.878 -14.985  1.00  0.00    -0.166 F 
ENDBRANCH  28  29
ENDBRANCH   7  22
TORSDOF 4
BEGIN_RES ARG D 557
REMARK  4 active torsions:
REMARK  status: ('A' for Active; 'I' for Inactive)
REMARK    1  A    between atoms: CA   and  CB  
REMARK    2  A    between atoms: CB   and  CG  
REMARK    3  A    between atoms: CG   and  CD  
REMARK    4  A    between atoms: CD   and  NE  
REMARK       I    between atoms: NE   and  CZ  
REMARK       I    between atoms: CZ   and  NH1 
REMARK       I    between atoms: CZ   and  NH2 
ROOT
ATOM      1  CA  ARG D 557     -26.217   2.705 -17.014  1.00 35.49     0.159 C 
ENDROOT
BRANCH   1   2
ATOM      2  CB  ARG D 557     -26.789   1.319 -17.183  1.00 35.49     0.034 C 
BRANCH   2   3
ATOM      3  CG  ARG D 557     -28.219   1.229 -17.504  1.00 35.49     0.027 C 
BRANCH   3   4
ATOM      4  CD  ARG D 557     -28.977   0.458 -16.492  1.00 35.49     0.116 C 
BRANCH   4   5
ATOM      5  NE  ARG D 557     -29.616  -0.700 -17.059  1.00 35.49    -0.212 N 
ATOM      6  CZ  ARG D 557     -29.084  -1.898 -17.160  1.00 35.49     0.666 C 
ATOM      7  NH1 ARG D 557     -27.859  -2.167 -16.749  1.00 35.49    -0.235 N 
ATOM      8  NH2 ARG D 557     -29.818  -2.837 -17.683  1.00 35.49    -0.235 N 
ATOM      9  HH  ARG D 557     -27.360  -1.565 -16.400  1.00 35.49     0.174 HD
ATOM     10  HH  ARG D 557     -27.567  -2.968 -16.838  1.00 35.49     0.174 HD
ATOM     11  HH  ARG D 557     -30.608  -2.636 -17.933  1.00 35.49     0.174 HD
ATOM     12  HH  ARG D 557     -29.511  -3.624 -17.761  1.00 35.49     0.174 HD
ATOM     13  HE  ARG D 557     -30.381  -0.600 -17.415  1.00 35.49     0.178 HD
ENDBRANCH   4   5
ENDBRANCH   3   4
ENDBRANCH   2   3
ENDBRANCH   1   2
END_RES ARG D 557
BEGIN_RES GLU D 570
REMARK  3 active torsions:
REMARK  status: ('A' for Active; 'I' for Inactive)
REMARK    5  A    between atoms: CA   and  CB  
REMARK    6  A    between atoms: CB   and  CG  
REMARK    7  A    between atoms: CG   and  CD  
ROOT
ATOM     14  CA  GLU D 570     -18.033  -6.348 -13.375  1.00 32.92     0.160 C 
ENDROOT
BRANCH  14  15
ATOM     15  CB  GLU D 570     -19.500  -6.345 -13.794  1.00 32.92     0.043 C 
BRANCH  15  16
ATOM     16  CG  GLU D 570     -20.091  -7.638 -14.226  1.00 32.92     0.100 C 
BRANCH  16  17
ATOM     17  CD  GLU D 570     -20.699  -7.576 -15.608  1.00 32.92     0.185 C 
ATOM     18  OE1 GLU D 570     -21.128  -8.624 -16.128  1.00 32.92    -0.647 OA
ATOM     19  OE2 GLU D 570     -20.732  -6.470 -16.182  1.00 32.92    -0.647 OA
ENDBRANCH  16  17
ENDBRANCH  15  16
ENDBRANCH  14  15
END_RES GLU D 570
ENDMDL
MODEL 5
REMARK VINA RESULT:      -8.7      5.844     11.397
REMARK  4 active torsions:
REMARK  status: ('A' for Active; 'I' for Inactive)
REMARK       I    between atoms: C_2  and  N_3 
REMARK       I    between atoms: C_2  and  N_15 
REMARK    1  A    between atoms: N_3  and  C_4 
REMARK    2  A    between atoms: C_7  and  C_8 
REMARK    3  A    between atoms: N_18  and  C_19 
REMARK    4  A    between atoms: C_25  and  C_26 
ROOT
HETATM    1  O   UNL     1     -24.953  -3.197 -12.443  1.00  0.00    -0.247 OA
HETATM    2  C   UNL     1     -24.392  -4.052 -13.124  1.00  0.00     0.324 C 
HETATM    3  N   UNL     1     -23.223  -4.679 -12.764  1.00  0.00    -0.295 N 
HETATM    4  N   UNL     1     -24.876  -4.440 -14.353  1.00  0.00    -0.331 N 
HETATM    5  C   UNL     1     -25.848  -3.590 -15.067  1.00  0.00     0.147 C 
HETATM    6  C   UNL     1     -27.031  -4.394 -15.650  1.00  0.00     0.144 C 
HETATM    7  N   UNL     1     -26.467  -5.532 -16.410  1.00  0.00    -0.363 N 
HETATM    8  C   UNL     1     -25.724  -6.444 -15.528  1.00  0.00     0.144 C 
HETATM    9  C   UNL     1     -24.479  -5.679 -15.037  1.00  0.00     0.147 C 
HETATM   10  H   UNL     1     -22.542  -4.755 -13.505  1.00  0.00     0.172 HD
ENDROOT
BRANCH   3  11
HETATM   11  C   UNL     1     -22.631  -4.500 -11.518  1.00  0.00     0.108 A 
HETATM   12  C   UNL     1     -21.293  -4.153 -11.394  1.00  0.00     0.049 A 
HETATM   13  C   UNL     1     -20.755  -4.024 -10.118  1.00  0.00     0.021 A 
HETATM   14  C   UNL     1     -21.563  -4.268  -9.006  1.00  0.00     0.063 A 
HETATM   15  C   UNL     1     -22.896  -4.578  -9.236  1.00  0.00     0.106 A 
HETATM   16  N   UNL     1     -23.456  -4.661 -10.465  1.00  0.00    -0.351 N 
ATOM     17  HN  UNL     1     -24.453  -4.837 -10.587  1.00  0.00     0.166 HD
BRANCH  14  18
HETATM   18  C   UNL     1     -21.043  -4.222  -7.607  1.00  0.00     0.418 C 
HETATM   19  F   UNL     1     -21.493  -5.241  -6.822  1.00  0.00    -0.166 F 
HETATM   20  F   UNL     1     -19.684  -4.283  -7.552  1.00  0.00    -0.166 F 
HETATM   21  F   UNL     1     -21.390  -3.073  -6.960  1.00  0.00    -0.166 F 
ENDBRANCH  14  18
ENDBRANCH   3  11
BRANCH   7  22
HETATM   22  C   UNL     1     -27.132  -6.018 -17.512  1.00  0.00     0.118 A 
HETATM   23  N   UNL     1     -26.365  -6.308 -18.599  1.00  0.00    -0.352 N 
HETATM   24  C   UNL     1     -26.937  -6.853 -19.696  1.00  0.00     0.089 A 
ATOM     25  HN  UNL     1     -25.364  -6.116 -18.585  1.00  0.00     0.166 HD
HETATM   26  C   UNL     1     -28.276  -7.148 -19.793  1.00  0.00     0.018 A 
HETATM   27  C   UNL     1     -29.058  -6.874 -18.686  1.00  0.00     0.021 A 
HETATM   28  C   UNL     1     -28.494  -6.319 -17.515  1.00  0.00     0.091 A 
BRANCH  28  29
HETATM   29  C   UNL     1     -29.444  -6.165 -16.361  1.00  0.00     0.421 C 
HETATM   30  F   UNL     1     -29.038  -6.607 -15.141  1.00  0.00    -0.166 F 
HETATM   31  F   UNL     1     -29.785  -4.858 -16.166  1.00  0.00    -0.166 F 
HETATM   32  F   UNL     1     -30.625  -6.815 -16.580  1.00  0.00    -0.166 F 
ENDBRANCH  28  29
ENDBRANCH   7  22
TORSDOF 4
BEGIN_RES ARG D 557
REMARK  4 active torsions:
REMARK  status: ('A' for Active; 'I' for Inactive)
REMARK    1  A    between atoms: CA   and  CB  
REMARK    2  A    between atoms: CB   and  CG  
REMARK    3  A    between atoms: CG   and  CD  
REMARK    4  A    between atoms: CD   and  NE  
REMARK       I    between atoms: NE   and  CZ  
REMARK       I    between atoms: CZ   and  NH1 
REMARK       I    between atoms: CZ   and  NH2 
ROOT
ATOM      1  CA  ARG D 557     -26.217   2.705 -17.014  1.00 35.49     0.159 C 
ENDROOT
BRANCH   1   2
ATOM      2  CB  ARG D 557     -26.789   1.319 -17.183  1.00 35.49     0.034 C 
BRANCH   2   3
ATOM      3  CG  ARG D 557     -25.840   0.200 -17.119  1.00 35.49     0.027 C 
BRANCH   3   4
ATOM      4  CD  ARG D 557     -24.529   0.604 -16.563  1.00 35.49     0.116 C 
BRANCH   4   5
ATOM      5  NE  ARG D 557     -24.296   0.040 -15.259  1.00 35.49    -0.212 N 
ATOM      6  CZ  ARG D 557     -23.437  -0.914 -14.978  1.00 35.49     0.666 C 
ATOM      7  NH1 ARG D 557     -22.681  -1.483 -15.899  1.00 35.49    -0.235 N 
ATOM      8  NH2 ARG D 557     -23.342  -1.289 -13.735  1.00 35.49    -0.235 N 
ATOM      9  HH  ARG D 557     -22.726  -1.250 -16.723  1.00 35.49     0.174 HD
ATOM     10  HH  ARG D 557     -22.137  -2.098 -15.656  1.00 35.49     0.174 HD
ATOM     11  HH  ARG D 557     -23.837  -0.899 -13.161  1.00 35.49     0.174 HD
ATOM     12  HH  ARG D 557     -22.796  -1.899 -13.514  1.00 35.49     0.174 HD
ATOM     13  HE  ARG D 557     -24.792   0.297 -14.618  1.00 35.49     0.178 HD
ENDBRANCH   4   5
ENDBRANCH   3   4
ENDBRANCH   2   3
ENDBRANCH   1   2
END_RES ARG D 557
BEGIN_RES GLU D 570
REMARK  3 active torsions:
REMARK  status: ('A' for Active; 'I' for Inactive)
REMARK    5  A    between atoms: CA   and  CB  
REMARK    6  A    between atoms: CB   and  CG  
REMARK    7  A    between atoms: CG   and  CD  
ROOT
ATOM     14  CA  GLU D 570     -18.033  -6.348 -13.375  1.00 32.92     0.160 C 
ENDROOT
BRANCH  14  15
ATOM     15  CB  GLU D 570     -19.500  -6.345 -13.794  1.00 32.92     0.043 C 
BRANCH  15  16
ATOM     16  CG  GLU D 570     -19.806  -6.641 -15.217  1.00 32.92     0.100 C 
BRANCH  16  17
ATOM     17  CD  GLU D 570     -20.712  -5.612 -15.852  1.00 32.92     0.185 C 
ATOM     18  OE1 GLU D 570     -20.872  -5.626 -17.088  1.00 32.92    -0.647 OA
ATOM     19  OE2 GLU D 570     -21.256  -4.773 -15.107  1.00 32.92    -0.647 OA
ENDBRANCH  16  17
ENDBRANCH  15  16
ENDBRANCH  14  15
END_RES GLU D 570
ENDMDL
MODEL 6
REMARK VINA RESULT:      -8.2      2.607      3.429
REMARK  4 active torsions:
REMARK  status: ('A' for Active; 'I' for Inactive)
REMARK       I    between atoms: C_2  and  N_3 
REMARK       I    between atoms: C_2  and  N_15 
REMARK    1  A    between atoms: N_3  and  C_4 
REMARK    2  A    between atoms: C_7  and  C_8 
REMARK    3  A    between atoms: N_18  and  C_19 
REMARK    4  A    between atoms: C_25  and  C_26 
ROOT
HETATM    1  O   UNL     1     -21.198  -9.505  -5.865  1.00  0.00    -0.247 OA
HETATM    2  C   UNL     1     -21.097  -8.975  -4.761  1.00  0.00     0.324 C 
HETATM    3  N   UNL     1     -20.983  -7.619  -4.564  1.00  0.00    -0.295 N 
HETATM    4  N   UNL     1     -21.050  -9.712  -3.599  1.00  0.00    -0.331 N 
HETATM    5  C   UNL     1     -20.733 -11.152  -3.648  1.00  0.00     0.147 C 
HETATM    6  C   UNL     1     -21.679 -12.002  -2.772  1.00  0.00     0.144 C 
HETATM    7  N   UNL     1     -21.723 -11.383  -1.428  1.00  0.00    -0.363 N 
HETATM    8  C   UNL     1     -22.295 -10.030  -1.485  1.00  0.00     0.144 C 
HETATM    9  C   UNL     1     -21.294  -9.152  -2.262  1.00  0.00     0.147 C 
HETATM   10  H   UNL     1     -20.276  -7.349  -3.897  1.00  0.00     0.172 HD
ENDROOT
BRANCH   3  11
HETATM   11  C   UNL     1     -21.110  -6.700  -5.600  1.00  0.00     0.108 A 
HETATM   12  C   UNL     1     -22.210  -5.860  -5.695  1.00  0.00     0.049 A 
HETATM   13  C   UNL     1     -22.292  -4.989  -6.775  1.00  0.00     0.021 A 
HETATM   14  C   UNL     1     -21.283  -4.999  -7.742  1.00  0.00     0.063 A 
HETATM   15  C   UNL     1     -20.209  -5.854  -7.539  1.00  0.00     0.106 A 
HETATM   16  N   UNL     1     -20.082  -6.675  -6.472  1.00  0.00    -0.351 N 
ATOM     17  HN  UNL     1     -19.248  -7.247  -6.334  1.00  0.00     0.166 HD
BRANCH  14  18
HETATM   18  C   UNL     1     -21.334  -4.147  -8.967  1.00  0.00     0.418 C 
HETATM   19  F   UNL     1     -20.114  -3.683  -9.360  1.00  0.00    -0.166 F 
HETATM   20  F   UNL     1     -21.844  -4.809 -10.043  1.00  0.00    -0.166 F 
HETATM   21  F   UNL     1     -22.117  -3.045  -8.803  1.00  0.00    -0.166 F 
ENDBRANCH  14  18
ENDBRANCH   3  11
BRANCH   7  22
HETATM   22  C   UNL     1     -21.906 -12.170  -0.315  1.00  0.00     0.118 A 
HETATM   23  N   UNL     1     -23.190 -12.321   0.111  1.00  0.00    -0.352 N 
HETATM   24  C   UNL     1     -23.457 -13.134   1.157  1.00  0.00     0.089 A 
ATOM     25  HN  UNL     1     -23.947 -11.823  -0.357  1.00  0.00     0.166 HD
HETATM   26  C   UNL     1     -22.496 -13.844   1.838  1.00  0.00     0.018 A 
HETATM   27  C   UNL     1     -21.192 -13.710   1.399  1.00  0.00     0.021 A 
HETATM   28  C   UNL     1     -20.875 -12.882   0.299  1.00  0.00     0.091 A 
BRANCH  28  29
HETATM   29  C   UNL     1     -19.434 -12.910  -0.126  1.00  0.00     0.421 C 
HETATM   30  F   UNL     1     -18.780 -11.723  -0.230  1.00  0.00    -0.166 F 
HETATM   31  F   UNL     1     -18.676 -13.656   0.729  1.00  0.00    -0.166 F 
HETATM   32  F   UNL     1     -19.272 -13.493  -1.350  1.00  0.00    -0.166 F 
ENDBRANCH  28  29
ENDBRANCH   7  22
TORSDOF 4
BEGIN_RES ARG D 557
REMARK  4 active torsions:
REMARK  status: ('A' for Active; 'I' for Inactive)
REMARK    1  A    between atoms: CA   and  CB  
REMARK    2  A    between atoms: CB   and  CG  
REMARK    3  A    between atoms: CG   and  CD  
REMARK    4  A    between atoms: CD   and  NE  
REMARK       I    between atoms: NE   and  CZ  
REMARK       I    between atoms: CZ   and  NH1 
REMARK       I    between atoms: CZ   and  NH2 
ROOT
ATOM      1  CA  ARG D 557     -26.217   2.705 -17.014  1.00 35.49     0.159 C 
ENDROOT
BRANCH   1   2
ATOM      2  CB  ARG D 557     -26.789   1.319 -17.183  1.00 35.49     0.034 C 
BRANCH   2   3
ATOM      3  CG  ARG D 557     -25.835   0.203 -17.160  1.00 35.49     0.027 C 
BRANCH   3   4
ATOM      4  CD  ARG D 557     -24.770   0.392 -16.149  1.00 35.49     0.116 C 
BRANCH   4   5
ATOM      5  NE  ARG D 557     -24.949  -0.463 -15.006  1.00 35.49    -0.212 N 
ATOM      6  CZ  ARG D 557     -24.154  -1.447 -14.650  1.00 35.49     0.666 C 
ATOM      7  NH1 ARG D 557     -23.077  -1.773 -15.340  1.00 35.49    -0.235 N 
ATOM      8  NH2 ARG D 557     -24.460  -2.105 -13.570  1.00 35.49    -0.235 N 
ATOM      9  HH  ARG D 557     -22.856  -1.352 -16.053  1.00 35.49     0.174 HD
ATOM     10  HH  ARG D 557     -22.595  -2.423 -15.059  1.00 35.49     0.174 HD
ATOM     11  HH  ARG D 557     -25.158  -1.868 -13.140  1.00 35.49     0.174 HD
ATOM     12  HH  ARG D 557     -23.969  -2.744 -13.307  1.00 35.49     0.174 HD
ATOM     13  HE  ARG D 557     -25.658  -0.370 -14.545  1.00 35.49     0.178 HD
ENDBRANCH   4   5
ENDBRANCH   3   4
ENDBRANCH   2   3
ENDBRANCH   1   2
END_RES ARG D 557
BEGIN_RES GLU D 570
REMARK  3 active torsions:
REMARK  status: ('A' for Active; 'I' for Inactive)
REMARK    5  A    between atoms: CA   and  CB  
REMARK    6  A    between atoms: CB   and  CG  
REMARK    7  A    between atoms: CG   and  CD  
ROOT
ATOM     14  CA  GLU D 570     -18.033  -6.348 -13.375  1.00 32.92     0.160 C 
ENDROOT
BRANCH  14  15
ATOM     15  CB  GLU D 570     -19.500  -6.345 -13.794  1.00 32.92     0.043 C 
BRANCH  15  16
ATOM     16  CG  GLU D 570     -20.448  -5.558 -12.963  1.00 32.92     0.100 C 
BRANCH  16  17
ATOM     17  CD  GLU D 570     -21.709  -5.182 -13.705  1.00 32.92     0.185 C 
ATOM     18  OE1 GLU D 570     -22.078  -5.884 -14.666  1.00 32.92    -0.647 OA
ATOM     19  OE2 GLU D 570     -22.326  -4.164 -13.331  1.00 32.92    -0.647 OA
ENDBRANCH  16  17
ENDBRANCH  15  16
ENDBRANCH  14  15
END_RES GLU D 570
ENDMDL
MODEL 7
REMARK VINA RESULT:      -8.2      2.789      3.805
REMARK  4 active torsions:
REMARK  status: ('A' for Active; 'I' for Inactive)
REMARK       I    between atoms: C_2  and  N_3 
REMARK       I    between atoms: C_2  and  N_15 
REMARK    1  A    between atoms: N_3  and  C_4 
REMARK    2  A    between atoms: C_7  and  C_8 
REMARK    3  A    between atoms: N_18  and  C_19 
REMARK    4  A    between atoms: C_25  and  C_26 
ROOT
HETATM    1  O   UNL     1     -20.676  -7.193  -2.475  1.00  0.00    -0.247 OA
HETATM    2  C   UNL     1     -21.140  -8.206  -2.995  1.00  0.00     0.324 C 
HETATM    3  N   UNL     1     -21.557  -8.279  -4.302  1.00  0.00    -0.295 N 
HETATM    4  N   UNL     1     -21.323  -9.372  -2.286  1.00  0.00    -0.331 N 
HETATM    5  C   UNL     1     -21.335  -9.347  -0.811  1.00  0.00     0.147 C 
HETATM    6  C   UNL     1     -20.483 -10.474  -0.187  1.00  0.00     0.144 C 
HETATM    7  N   UNL     1     -20.885 -11.746  -0.828  1.00  0.00    -0.363 N 
HETATM    8  C   UNL     1     -20.587 -11.733  -2.267  1.00  0.00     0.144 C 
HETATM    9  C   UNL     1     -21.521 -10.688  -2.909  1.00  0.00     0.147 C 
HETATM   10  H   UNL     1     -22.442  -8.744  -4.436  1.00  0.00     0.172 HD
ENDROOT
BRANCH   3  11
HETATM   11  C   UNL     1     -21.364  -7.241  -5.208  1.00  0.00     0.108 A 
HETATM   12  C   UNL     1     -22.344  -6.286  -5.437  1.00  0.00     0.049 A 
HETATM   13  C   UNL     1     -22.100  -5.296  -6.382  1.00  0.00     0.021 A 
HETATM   14  C   UNL     1     -20.894  -5.302  -7.086  1.00  0.00     0.063 A 
HETATM   15  C   UNL     1     -19.966  -6.280  -6.760  1.00  0.00     0.106 A 
HETATM   16  N   UNL     1     -20.159  -7.225  -5.811  1.00  0.00    -0.351 N 
ATOM     17  HN  UNL     1     -19.428  -7.892  -5.564  1.00  0.00     0.166 HD
BRANCH  14  18
HETATM   18  C   UNL     1     -20.586  -4.317  -8.165  1.00  0.00     0.418 C 
HETATM   19  F   UNL     1     -19.395  -3.677  -7.998  1.00  0.00    -0.166 F 
HETATM   20  F   UNL     1     -20.528  -4.894  -9.397  1.00  0.00    -0.166 F 
HETATM   21  F   UNL     1     -21.527  -3.336  -8.259  1.00  0.00    -0.166 F 
ENDBRANCH  14  18
ENDBRANCH   3  11
BRANCH   7  22
HETATM   22  C   UNL     1     -20.827 -12.922  -0.116  1.00  0.00     0.118 A 
HETATM   23  N   UNL     1     -19.605 -13.518  -0.034  1.00  0.00    -0.352 N 
HETATM   24  C   UNL     1     -19.455 -14.639   0.705  1.00  0.00     0.089 A 
ATOM     25  HN  UNL     1     -18.807 -13.119  -0.527  1.00  0.00     0.166 HD
HETATM   26  C   UNL     1     -20.478 -15.236   1.405  1.00  0.00     0.018 A 
HETATM   27  C   UNL     1     -21.717 -14.626   1.341  1.00  0.00     0.021 A 
HETATM   28  C   UNL     1     -21.910 -13.443   0.592  1.00  0.00     0.091 A 
BRANCH  28  29
HETATM   29  C   UNL     1     -23.282 -12.841   0.693  1.00  0.00     0.421 C 
HETATM   30  F   UNL     1     -23.392 -11.490   0.586  1.00  0.00    -0.166 F 
HETATM   31  F   UNL     1     -24.118 -13.339  -0.264  1.00  0.00    -0.166 F 
HETATM   32  F   UNL     1     -23.884 -13.135   1.883  1.00  0.00    -0.166 F 
ENDBRANCH  28  29
ENDBRANCH   7  22
TORSDOF 4
BEGIN_RES ARG D 557
REMARK  4 active torsions:
REMARK  status: ('A' for Active; 'I' for Inactive)
REMARK    1  A    between atoms: CA   and  CB  
REMARK    2  A    between atoms: CB   and  CG  
REMARK    3  A    between atoms: CG   and  CD  
REMARK    4  A    between atoms: CD   and  NE  
REMARK       I    between atoms: NE   and  CZ  
REMARK       I    between atoms: CZ   and  NH1 
REMARK       I    between atoms: CZ   and  NH2 
ROOT
ATOM      1  CA  ARG D 557     -26.217   2.705 -17.014  1.00 35.49     0.159 C 
ENDROOT
BRANCH   1   2
ATOM      2  CB  ARG D 557     -26.789   1.319 -17.183  1.00 35.49     0.034 C 
BRANCH   2   3
ATOM      3  CG  ARG D 557     -28.238   1.224 -17.399  1.00 35.49     0.027 C 
BRANCH   3   4
ATOM      4  CD  ARG D 557     -28.886   0.275 -16.466  1.00 35.49     0.116 C 
BRANCH   4   5
ATOM      5  NE  ARG D 557     -29.269  -0.950 -17.117  1.00 35.49    -0.212 N 
ATOM      6  CZ  ARG D 557     -28.638  -2.100 -17.023  1.00 35.49     0.666 C 
ATOM      7  NH1 ARG D 557     -27.541  -2.250 -16.305  1.00 35.49    -0.235 N 
ATOM      8  NH2 ARG D 557     -29.140  -3.114 -17.666  1.00 35.49    -0.235 N 
ATOM      9  HH  ARG D 557     -27.194  -1.596 -15.872  1.00 35.49     0.174 HD
ATOM     10  HH  ARG D 557     -27.174  -3.024 -16.278  1.00 35.49     0.174 HD
ATOM     11  HH  ARG D 557     -29.854  -2.989 -18.116  1.00 35.49     0.174 HD
ATOM     12  HH  ARG D 557     -28.763  -3.873 -17.626  1.00 35.49     0.174 HD
ATOM     13  HE  ARG D 557     -29.924  -0.927 -17.658  1.00 35.49     0.178 HD
ENDBRANCH   4   5
ENDBRANCH   3   4
ENDBRANCH   2   3
ENDBRANCH   1   2
END_RES ARG D 557
BEGIN_RES GLU D 570
REMARK  3 active torsions:
REMARK  status: ('A' for Active; 'I' for Inactive)
REMARK    5  A    between atoms: CA   and  CB  
REMARK    6  A    between atoms: CB   and  CG  
REMARK    7  A    between atoms: CG   and  CD  
ROOT
ATOM     14  CA  GLU D 570     -18.033  -6.348 -13.375  1.00 32.92     0.160 C 
ENDROOT
BRANCH  14  15
ATOM     15  CB  GLU D 570     -19.500  -6.345 -13.794  1.00 32.92     0.043 C 
BRANCH  15  16
ATOM     16  CG  GLU D 570     -20.446  -5.548 -12.970  1.00 32.92     0.100 C 
BRANCH  16  17
ATOM     17  CD  GLU D 570     -21.704  -5.171 -13.716  1.00 32.92     0.185 C 
ATOM     18  OE1 GLU D 570     -21.642  -4.971 -14.945  1.00 32.92    -0.647 OA
ATOM     19  OE2 GLU D 570     -22.760  -5.058 -13.063  1.00 32.92    -0.647 OA
ENDBRANCH  16  17
ENDBRANCH  15  16
ENDBRANCH  14  15
END_RES GLU D 570
ENDMDL
MODEL 8
REMARK VINA RESULT:      -8.1      1.995      8.623
REMARK  4 active torsions:
REMARK  status: ('A' for Active; 'I' for Inactive)
REMARK       I    between atoms: C_2  and  N_3 
REMARK       I    between atoms: C_2  and  N_15 
REMARK    1  A    between atoms: N_3  and  C_4 
REMARK    2  A    between atoms: C_7  and  C_8 
REMARK    3  A    between atoms: N_18  and  C_19 
REMARK    4  A    between atoms: C_25  and  C_26 
ROOT
HETATM    1  O   UNL     1     -21.125  -5.720  -3.443  1.00  0.00    -0.247 OA
HETATM    2  C   UNL     1     -20.916  -6.412  -4.437  1.00  0.00     0.324 C 
HETATM    3  N   UNL     1     -20.733  -7.773  -4.404  1.00  0.00    -0.295 N 
HETATM    4  N   UNL     1     -20.806  -5.866  -5.696  1.00  0.00    -0.331 N 
HETATM    5  C   UNL     1     -20.551  -4.422  -5.857  1.00  0.00     0.147 C 
HETATM    6  C   UNL     1     -21.458  -3.770  -6.925  1.00  0.00     0.144 C 
HETATM    7  N   UNL     1     -21.370  -4.595  -8.151  1.00  0.00    -0.363 N 
HETATM    8  C   UNL     1     -21.891  -5.950  -7.917  1.00  0.00     0.144 C 
HETATM    9  C   UNL     1     -20.921  -6.642  -6.940  1.00  0.00     0.147 C 
HETATM   10  H   UNL     1     -19.965  -8.108  -4.966  1.00  0.00     0.172 HD
ENDROOT
BRANCH   3  11
HETATM   11  C   UNL     1     -20.905  -8.523  -3.245  1.00  0.00     0.108 A 
HETATM   12  C   UNL     1     -21.671  -9.680  -3.236  1.00  0.00     0.049 A 
HETATM   13  C   UNL     1     -21.831 -10.363  -2.035  1.00  0.00     0.021 A 
HETATM   14  C   UNL     1     -21.241  -9.857  -0.875  1.00  0.00     0.063 A 
HETATM   15  C   UNL     1     -20.468  -8.711  -0.995  1.00  0.00     0.106 A 
HETATM   16  N   UNL     1     -20.256  -8.056  -2.160  1.00  0.00    -0.351 N 
ATOM     17  HN  UNL     1     -19.635  -7.248  -2.214  1.00  0.00     0.166 HD
BRANCH  14  18
HETATM   18  C   UNL     1     -21.425 -10.490   0.465  1.00  0.00     0.418 C 
HETATM   19  F   UNL     1     -20.626 -11.574   0.671  1.00  0.00    -0.166 F 
HETATM   20  F   UNL     1     -21.160  -9.633   1.489  1.00  0.00    -0.166 F 
HETATM   21  F   UNL     1     -22.702 -10.924   0.664  1.00  0.00    -0.166 F 
ENDBRANCH  14  18
ENDBRANCH   3  11
BRANCH   7  22
HETATM   22  C   UNL     1     -21.496  -4.004  -9.387  1.00  0.00     0.118 A 
HETATM   23  N   UNL     1     -20.347  -3.849 -10.100  1.00  0.00    -0.352 N 
HETATM   24  C   UNL     1     -20.400  -3.339 -11.350  1.00  0.00     0.089 A 
ATOM     25  HN  UNL     1     -19.451  -4.116  -9.693  1.00  0.00     0.166 HD
HETATM   26  C   UNL     1     -21.566  -2.959 -11.973  1.00  0.00     0.018 A 
HETATM   27  C   UNL     1     -22.738  -3.132 -11.262  1.00  0.00     0.021 A 
HETATM   28  C   UNL     1     -22.726  -3.677  -9.958  1.00  0.00     0.091 A 
BRANCH  28  29
HETATM   29  C   UNL     1     -24.080  -3.896  -9.345  1.00  0.00     0.421 C 
HETATM   30  F   UNL     1     -24.173  -3.887  -7.990  1.00  0.00    -0.166 F 
HETATM   31  F   UNL     1     -24.976  -2.956  -9.766  1.00  0.00    -0.166 F 
HETATM   32  F   UNL     1     -24.621  -5.095  -9.713  1.00  0.00    -0.166 F 
ENDBRANCH  28  29
ENDBRANCH   7  22
TORSDOF 4
BEGIN_RES ARG D 557
REMARK  4 active torsions:
REMARK  status: ('A' for Active; 'I' for Inactive)
REMARK    1  A    between atoms: CA   and  CB  
REMARK    2  A    between atoms: CB   and  CG  
REMARK    3  A    between atoms: CG   and  CD  
REMARK    4  A    between atoms: CD   and  NE  
REMARK       I    between atoms: NE   and  CZ  
REMARK       I    between atoms: CZ   and  NH1 
REMARK       I    between atoms: CZ   and  NH2 
ROOT
ATOM      1  CA  ARG D 557     -26.217   2.705 -17.014  1.00 35.49     0.159 C 
ENDROOT
BRANCH   1   2
ATOM      2  CB  ARG D 557     -26.789   1.319 -17.183  1.00 35.49     0.034 C 
BRANCH   2   3
ATOM      3  CG  ARG D 557     -25.943   0.198 -16.754  1.00 35.49     0.027 C 
BRANCH   3   4
ATOM      4  CD  ARG D 557     -26.727  -0.896 -16.137  1.00 35.49     0.116 C 
BRANCH   4   5
ATOM      5  NE  ARG D 557     -26.046  -1.485 -15.014  1.00 35.49    -0.212 N 
ATOM      6  CZ  ARG D 557     -26.050  -2.760 -14.696  1.00 35.49     0.666 C 
ATOM      7  NH1 ARG D 557     -26.717  -3.662 -15.392  1.00 35.49    -0.235 N 
ATOM      8  NH2 ARG D 557     -25.357  -3.122 -13.655  1.00 35.49    -0.235 N 
ATOM      9  HH  ARG D 557     -27.178  -3.447 -16.082  1.00 35.49     0.174 HD
ATOM     10  HH  ARG D 557     -26.681  -4.480 -15.139  1.00 35.49     0.174 HD
ATOM     11  HH  ARG D 557     -24.931  -2.518 -13.230  1.00 35.49     0.174 HD
ATOM     12  HH  ARG D 557     -25.333  -3.936 -13.421  1.00 35.49     0.174 HD
ATOM     13  HE  ARG D 557     -25.650  -0.966 -14.470  1.00 35.49     0.178 HD
ENDBRANCH   4   5
ENDBRANCH   3   4
ENDBRANCH   2   3
ENDBRANCH   1   2
END_RES ARG D 557
BEGIN_RES GLU D 570
REMARK  3 active torsions:
REMARK  status: ('A' for Active; 'I' for Inactive)
REMARK    5  A    between atoms: CA   and  CB  
REMARK    6  A    between atoms: CB   and  CG  
REMARK    7  A    between atoms: CG   and  CD  
ROOT
ATOM     14  CA  GLU D 570     -18.033  -6.348 -13.375  1.00 32.92     0.160 C 
ENDROOT
BRANCH  14  15
ATOM     15  CB  GLU D 570     -19.500  -6.345 -13.794  1.00 32.92     0.043 C 
BRANCH  15  16
ATOM     16  CG  GLU D 570     -19.805  -6.633 -15.219  1.00 32.92     0.100 C 
BRANCH  16  17
ATOM     17  CD  GLU D 570     -20.792  -5.659 -15.819  1.00 32.92     0.185 C 
ATOM     18  OE1 GLU D 570     -20.818  -5.508 -17.056  1.00 32.92    -0.647 OA
ATOM     19  OE2 GLU D 570     -21.536  -5.027 -15.043  1.00 32.92    -0.647 OA
ENDBRANCH  16  17
ENDBRANCH  15  16
ENDBRANCH  14  15
END_RES GLU D 570
ENDMDL
MODEL 9
REMARK VINA RESULT:      -7.6     14.716     15.937
REMARK  4 active torsions:
REMARK  status: ('A' for Active; 'I' for Inactive)
REMARK       I    between atoms: C_2  and  N_3 
REMARK       I    between atoms: C_2  and  N_15 
REMARK    1  A    between atoms: N_3  and  C_4 
REMARK    2  A    between atoms: C_7  and  C_8 
REMARK    3  A    between atoms: N_18  and  C_19 
REMARK    4  A    between atoms: C_25  and  C_26 
ROOT
HETATM    1  O   UNL     1     -21.484  10.944   1.114  1.00  0.00    -0.247 OA
HETATM    2  C   UNL     1     -21.233   9.960   1.806  1.00  0.00     0.324 C 
HETATM    3  N   UNL     1     -22.073   8.881   1.945  1.00  0.00    -0.295 N 
HETATM    4  N   UNL     1     -20.079   9.866   2.551  1.00  0.00    -0.331 N 
HETATM    5  C   UNL     1     -19.293  11.078   2.853  1.00  0.00     0.147 C 
HETATM    6  C   UNL     1     -17.778  10.879   2.629  1.00  0.00     0.144 C 
HETATM    7  N   UNL     1     -17.379   9.641   3.337  1.00  0.00    -0.363 N 
HETATM    8  C   UNL     1     -18.053   8.465   2.769  1.00  0.00     0.144 C 
HETATM    9  C   UNL     1     -19.553   8.606   3.094  1.00  0.00     0.147 C 
HETATM   10  H   UNL     1     -22.183   8.553   2.892  1.00  0.00     0.172 HD
ENDROOT
BRANCH   3  11
HETATM   11  C   UNL     1     -23.238   8.739   1.198  1.00  0.00     0.108 A 
HETATM   12  C   UNL     1     -23.263   7.995   0.027  1.00  0.00     0.049 A 
HETATM   13  C   UNL     1     -24.452   7.923  -0.690  1.00  0.00     0.021 A 
HETATM   14  C   UNL     1     -25.574   8.616  -0.229  1.00  0.00     0.063 A 
HETATM   15  C   UNL     1     -25.455   9.305   0.969  1.00  0.00     0.106 A 
HETATM   16  N   UNL     1     -24.324   9.350   1.711  1.00  0.00    -0.351 N 
ATOM     17  HN  UNL     1     -24.296   9.823   2.614  1.00  0.00     0.166 HD
BRANCH  14  18
HETATM   18  C   UNL     1     -26.865   8.648  -0.978  1.00  0.00     0.418 C 
HETATM   19  F   UNL     1     -27.943   8.293  -0.225  1.00  0.00    -0.166 F 
HETATM   20  F   UNL     1     -27.150   9.884  -1.475  1.00  0.00    -0.166 F 
HETATM   21  F   UNL     1     -26.866   7.808  -2.051  1.00  0.00    -0.166 F 
ENDBRANCH  14  18
ENDBRANCH   3  11
BRANCH   7  22
HETATM   22  C   UNL     1     -16.115   9.531   3.868  1.00  0.00     0.118 A 
HETATM   23  N   UNL     1     -16.015   9.665   5.219  1.00  0.00    -0.352 N 
HETATM   24  C   UNL     1     -14.816   9.501   5.821  1.00  0.00     0.089 A 
ATOM     25  HN  UNL     1     -16.841   9.887   5.774  1.00  0.00     0.166 HD
HETATM   26  C   UNL     1     -13.658   9.195   5.147  1.00  0.00     0.018 A 
HETATM   27  C   UNL     1     -13.756   9.038   3.777  1.00  0.00     0.021 A 
HETATM   28  C   UNL     1     -14.994   9.186   3.113  1.00  0.00     0.091 A 
BRANCH  28  29
HETATM   29  C   UNL     1     -14.967   8.892   1.640  1.00  0.00     0.421 C 
HETATM   30  F   UNL     1     -15.540   9.796   0.801  1.00  0.00    -0.166 F 
HETATM   31  F   UNL     1     -13.689   8.749   1.182  1.00  0.00    -0.166 F 
HETATM   32  F   UNL     1     -15.588   7.713   1.341  1.00  0.00    -0.166 F 
ENDBRANCH  28  29
ENDBRANCH   7  22
TORSDOF 4
BEGIN_RES ARG D 557
REMARK  4 active torsions:
REMARK  status: ('A' for Active; 'I' for Inactive)
REMARK    1  A    between atoms: CA   and  CB  
REMARK    2  A    between atoms: CB   and  CG  
REMARK    3  A    between atoms: CG   and  CD  
REMARK    4  A    between atoms: CD   and  NE  
REMARK       I    between atoms: NE   and  CZ  
REMARK       I    between atoms: CZ   and  NH1 
REMARK       I    between atoms: CZ   and  NH2 
ROOT
ATOM      1  CA  ARG D 557     -26.217   2.705 -17.014  1.00 35.49     0.159 C 
ENDROOT
BRANCH   1   2
ATOM      2  CB  ARG D 557     -26.789   1.319 -17.183  1.00 35.49     0.034 C 
BRANCH   2   3
ATOM      3  CG  ARG D 557     -25.837   0.202 -17.142  1.00 35.49     0.027 C 
BRANCH   3   4
ATOM      4  CD  ARG D 557     -24.754   0.419 -16.156  1.00 35.49     0.116 C 
BRANCH   4   5
ATOM      5  NE  ARG D 557     -24.890  -0.434 -15.005  1.00 35.49    -0.212 N 
ATOM      6  CZ  ARG D 557     -24.068  -1.401 -14.664  1.00 35.49     0.666 C 
ATOM      7  NH1 ARG D 557     -23.002  -1.710 -15.378  1.00 35.49    -0.235 N 
ATOM      8  NH2 ARG D 557     -24.336  -2.060 -13.574  1.00 35.49    -0.235 N 
ATOM      9  HH  ARG D 557     -22.805  -1.288 -16.098  1.00 35.49     0.174 HD
ATOM     10  HH  ARG D 557     -22.500  -2.349 -15.105  1.00 35.49     0.174 HD
ATOM     11  HH  ARG D 557     -25.027  -1.834 -13.129  1.00 35.49     0.174 HD
ATOM     12  HH  ARG D 557     -23.826  -2.689 -13.320  1.00 35.49     0.174 HD
ATOM     13  HE  ARG D 557     -25.590  -0.353 -14.528  1.00 35.49     0.178 HD
ENDBRANCH   4   5
ENDBRANCH   3   4
ENDBRANCH   2   3
ENDBRANCH   1   2
END_RES ARG D 557
BEGIN_RES GLU D 570
REMARK  3 active torsions:
REMARK  status: ('A' for Active; 'I' for Inactive)
REMARK    5  A    between atoms: CA   and  CB  
REMARK    6  A    between atoms: CB   and  CG  
REMARK    7  A    between atoms: CG   and  CD  
ROOT
ATOM     14  CA  GLU D 570     -18.033  -6.348 -13.375  1.00 32.92     0.160 C 
ENDROOT
BRANCH  14  15
ATOM     15  CB  GLU D 570     -19.500  -6.345 -13.794  1.00 32.92     0.043 C 
BRANCH  15  16
ATOM     16  CG  GLU D 570     -20.444  -5.542 -12.975  1.00 32.92     0.100 C 
BRANCH  16  17
ATOM     17  CD  GLU D 570     -21.721  -5.203 -13.709  1.00 32.92     0.185 C 
ATOM     18  OE1 GLU D 570     -22.165  -6.005 -14.553  1.00 32.92    -0.647 OA
ATOM     19  OE2 GLU D 570     -22.273  -4.116 -13.449  1.00 32.92    -0.647 OA
ENDBRANCH  16  17
ENDBRANCH  15  16
ENDBRANCH  14  15
END_RES GLU D 570
ENDMDL
