MODEL 1
REMARK VINA RESULT:     -11.4      0.000      0.000
REMARK  6 active torsions:
REMARK  status: ('A' for Active; 'I' for Inactive)
REMARK    1  A    between atoms: C_2  and  O_4 
REMARK    2  A    between atoms: C_2  and  C_5 
REMARK    3  A    between atoms: C_10  and  C_11 
REMARK    4  A    between atoms: C_17  and  C_18 
REMARK    5  A    between atoms: C_19  and  C_20 
REMARK    6  A    between atoms: C_23  and  C_24 
ROOT
HETATM    1  C   UNL     1     -21.570  -7.795  -3.480  1.00  0.00    -0.023 C 
HETATM    2  C   UNL     1     -20.367  -8.325  -4.014  1.00  0.00     0.014 C 
HETATM    3  C   UNL     1     -19.743  -7.816  -5.149  1.00  0.00     0.033 C 
HETATM    4  C   UNL     1     -20.426  -6.866  -5.893  1.00  0.00     0.060 A 
HETATM    5  N   UNL     1     -20.026  -6.272  -7.044  1.00  0.00    -0.341 N 
ATOM      6  HN  UNL     1     -19.122  -6.383  -7.505  1.00  0.00     0.167 HD
HETATM    7  C   UNL     1     -21.027  -5.526  -7.449  1.00  0.00     0.106 A 
HETATM    8  N   UNL     1     -22.067  -5.592  -6.540  1.00  0.00    -0.341 N 
HETATM    9  C   UNL     1     -21.674  -6.420  -5.495  1.00  0.00     0.061 A 
HETATM   10  C   UNL     1     -22.246  -6.819  -4.262  1.00  0.00     0.044 C 
HETATM   11  H   UNL     1     -22.970  -5.155  -6.634  1.00  0.00     0.167 HD
ENDROOT
BRANCH   7  12
HETATM   12  C   UNL     1     -21.052  -4.740  -8.636  1.00  0.00     0.049 C 
HETATM   13  C   UNL     1     -22.238  -4.726  -9.284  1.00  0.00     0.015 C 
BRANCH  13  14
HETATM   14  C   UNL     1     -22.639  -4.090 -10.536  1.00  0.00    -0.036 A 
HETATM   15  C   UNL     1     -21.738  -4.181 -11.610  1.00  0.00     0.012 A 
HETATM   16  C   UNL     1     -22.035  -3.627 -12.855  1.00  0.00     0.017 A 
HETATM   17  C   UNL     1     -23.257  -2.979 -13.062  1.00  0.00     0.048 A 
HETATM   18  C   UNL     1     -24.187  -2.944 -12.007  1.00  0.00     0.017 A 
HETATM   19  C   UNL     1     -23.883  -3.498 -10.754  1.00  0.00     0.012 A 
BRANCH  17  20
HETATM   20  C   UNL     1     -23.568  -2.320 -14.383  1.00  0.00     0.417 C 
HETATM   21  F   UNL     1     -24.634  -2.870 -15.030  1.00  0.00    -0.166 F 
HETATM   22  F   UNL     1     -23.850  -0.994 -14.260  1.00  0.00    -0.166 F 
HETATM   23  F   UNL     1     -22.525  -2.403 -15.256  1.00  0.00    -0.166 F 
ENDBRANCH  17  20
ENDBRANCH  13  14
ENDBRANCH   7  12
BRANCH   1  24
HETATM   24  C   UNL     1     -21.927  -8.173  -2.057  1.00  0.00    -0.017 A 
HETATM   25  C   UNL     1     -22.325  -9.430  -1.525  1.00  0.00    -0.014 A 
HETATM   26  C   UNL     1     -22.795  -9.461  -0.170  1.00  0.00     0.011 A 
HETATM   27  C   UNL     1     -22.801  -8.353   0.675  1.00  0.00     0.001 A 
HETATM   28  C   UNL     1     -22.316  -7.160   0.204  1.00  0.00     0.001 A 
HETATM   29  C   UNL     1     -21.917  -7.078  -1.128  1.00  0.00     0.013 A 
BRANCH  25  30
HETATM   30  C   UNL     1     -22.307 -10.802  -2.226  1.00  0.00     0.078 C 
HETATM   31  C   UNL     1     -23.249 -11.771  -1.489  1.00  0.00     0.051 C 
HETATM   32  C   UNL     1     -20.881 -11.393  -2.283  1.00  0.00     0.051 C 
BRANCH  30  33
HETATM   33  O   UNL     1     -22.716 -10.745  -3.589  1.00  0.00    -0.386 OA
HETATM   34  H   UNL     1     -22.747 -11.651  -3.935  1.00  0.00     0.211 HD
ENDBRANCH  30  33
ENDBRANCH  25  30
ENDBRANCH   1  24
TORSDOF 6
BEGIN_RES ARG D 557
REMARK  4 active torsions:
REMARK  status: ('A' for Active; 'I' for Inactive)
REMARK    1  A    between atoms: CA   and  CB  
REMARK    2  A    between atoms: CB   and  CG  
REMARK    3  A    between atoms: CG   and  CD  
REMARK    4  A    between atoms: CD   and  NE  
REMARK       I    between atoms: NE   and  CZ  
REMARK       I    between atoms: CZ   and  NH1 
REMARK       I    between atoms: CZ   and  NH2 
ROOT
ATOM      1  CA  ARG D 557     -26.217   2.705 -17.014  1.00 35.49     0.159 C 
ENDROOT
BRANCH   1   2
ATOM      2  CB  ARG D 557     -26.789   1.319 -17.183  1.00 35.49     0.034 C 
BRANCH   2   3
ATOM      3  CG  ARG D 557     -28.228   1.227 -17.459  1.00 35.49     0.027 C 
BRANCH   3   4
ATOM      4  CD  ARG D 557     -28.928   0.331 -16.511  1.00 35.49     0.116 C 
BRANCH   4   5
ATOM      5  NE  ARG D 557     -29.303  -0.918 -17.121  1.00 35.49    -0.212 N 
ATOM      6  CZ  ARG D 557     -28.646  -2.051 -17.017  1.00 35.49     0.666 C 
ATOM      7  NH1 ARG D 557     -27.525  -2.160 -16.328  1.00 35.49    -0.235 N 
ATOM      8  NH2 ARG D 557     -29.143  -3.091 -17.620  1.00 35.49    -0.235 N 
ATOM      9  HH  ARG D 557     -27.181  -1.489 -15.921  1.00 35.49     0.174 HD
ATOM     10  HH  ARG D 557     -27.141  -2.926 -16.293  1.00 35.49     0.174 HD
ATOM     11  HH  ARG D 557     -29.872  -2.993 -18.052  1.00 35.49     0.174 HD
ATOM     12  HH  ARG D 557     -28.750  -3.841 -17.573  1.00 35.49     0.174 HD
ATOM     13  HE  ARG D 557     -29.974  -0.921 -17.643  1.00 35.49     0.178 HD
ENDBRANCH   4   5
ENDBRANCH   3   4
ENDBRANCH   2   3
ENDBRANCH   1   2
END_RES ARG D 557
BEGIN_RES GLU D 570
REMARK  3 active torsions:
REMARK  status: ('A' for Active; 'I' for Inactive)
REMARK    5  A    between atoms: CA   and  CB  
REMARK    6  A    between atoms: CB   and  CG  
REMARK    7  A    between atoms: CG   and  CD  
ROOT
ATOM     14  CA  GLU D 570     -18.033  -6.348 -13.375  1.00 32.92     0.160 C 
ENDROOT
BRANCH  14  15
ATOM     15  CB  GLU D 570     -19.500  -6.345 -13.794  1.00 32.92     0.043 C 
BRANCH  15  16
ATOM     16  CG  GLU D 570     -19.798  -6.189 -15.241  1.00 32.92     0.100 C 
BRANCH  16  17
ATOM     17  CD  GLU D 570     -21.261  -5.932 -15.517  1.00 32.92     0.185 C 
ATOM     18  OE1 GLU D 570     -22.119  -6.561 -14.868  1.00 32.92    -0.647 OA
ATOM     19  OE2 GLU D 570     -21.553  -5.105 -16.403  1.00 32.92    -0.647 OA
ENDBRANCH  16  17
ENDBRANCH  15  16
ENDBRANCH  14  15
END_RES GLU D 570
ENDMDL
MODEL 2
REMARK VINA RESULT:     -10.7      5.079     10.099
REMARK  6 active torsions:
REMARK  status: ('A' for Active; 'I' for Inactive)
REMARK    1  A    between atoms: C_2  and  O_4 
REMARK    2  A    between atoms: C_2  and  C_5 
REMARK    3  A    between atoms: C_10  and  C_11 
REMARK    4  A    between atoms: C_17  and  C_18 
REMARK    5  A    between atoms: C_19  and  C_20 
REMARK    6  A    between atoms: C_23  and  C_24 
ROOT
HETATM    1  C   UNL     1     -22.913  -4.609 -12.042  1.00  0.00    -0.023 C 
HETATM    2  C   UNL     1     -21.602  -4.069 -12.076  1.00  0.00     0.014 C 
HETATM    3  C   UNL     1     -20.733  -4.096 -10.988  1.00  0.00     0.033 C 
HETATM    4  C   UNL     1     -21.240  -4.506  -9.764  1.00  0.00     0.060 A 
HETATM    5  N   UNL     1     -20.587  -4.569  -8.578  1.00  0.00    -0.341 N 
ATOM      6  HN  UNL     1     -19.596  -4.390  -8.417  1.00  0.00     0.167 HD
HETATM    7  C   UNL     1     -21.480  -4.906  -7.676  1.00  0.00     0.106 A 
HETATM    8  N   UNL     1     -22.709  -5.111  -8.276  1.00  0.00    -0.341 N 
HETATM    9  C   UNL     1     -22.560  -4.904  -9.644  1.00  0.00     0.061 A 
HETATM   10  C   UNL     1     -23.404  -5.025 -10.774  1.00  0.00     0.044 C 
HETATM   11  H   UNL     1     -23.573  -5.330  -7.808  1.00  0.00     0.167 HD
ENDROOT
BRANCH   7  12
HETATM   12  C   UNL     1     -21.236  -5.065  -6.282  1.00  0.00     0.049 C 
HETATM   13  C   UNL     1     -21.660  -6.237  -5.761  1.00  0.00     0.015 C 
BRANCH  13  14
HETATM   14  C   UNL     1     -21.636  -6.742  -4.390  1.00  0.00    -0.036 A 
HETATM   15  C   UNL     1     -21.605  -8.138  -4.231  1.00  0.00     0.012 A 
HETATM   16  C   UNL     1     -21.558  -8.722  -2.965  1.00  0.00     0.017 A 
HETATM   17  C   UNL     1     -21.522  -7.918  -1.821  1.00  0.00     0.048 A 
HETATM   18  C   UNL     1     -21.486  -6.521  -1.982  1.00  0.00     0.017 A 
HETATM   19  C   UNL     1     -21.539  -5.937  -3.256  1.00  0.00     0.012 A 
BRANCH  17  20
HETATM   20  C   UNL     1     -21.534  -8.534  -0.444  1.00  0.00     0.417 C 
HETATM   21  F   UNL     1     -20.511  -9.409  -0.228  1.00  0.00    -0.166 F 
HETATM   22  F   UNL     1     -21.449  -7.608   0.551  1.00  0.00    -0.166 F 
HETATM   23  F   UNL     1     -22.676  -9.238  -0.206  1.00  0.00    -0.166 F 
ENDBRANCH  17  20
ENDBRANCH  13  14
ENDBRANCH   7  12
BRANCH   1  24
HETATM   24  C   UNL     1     -23.596  -4.865 -13.369  1.00  0.00    -0.017 A 
HETATM   25  C   UNL     1     -24.375  -3.987 -14.172  1.00  0.00    -0.014 A 
HETATM   26  C   UNL     1     -25.070  -4.551 -15.293  1.00  0.00     0.011 A 
HETATM   27  C   UNL     1     -24.957  -5.882 -15.688  1.00  0.00     0.001 A 
HETATM   28  C   UNL     1     -24.122  -6.712 -14.982  1.00  0.00     0.001 A 
HETATM   29  C   UNL     1     -23.486  -6.214 -13.848  1.00  0.00     0.013 A 
BRANCH  25  30
HETATM   30  C   UNL     1     -24.566  -2.468 -14.001  1.00  0.00     0.078 C 
HETATM   31  C   UNL     1     -25.928  -2.050 -14.582  1.00  0.00     0.051 C 
HETATM   32  C   UNL     1     -23.433  -1.671 -14.685  1.00  0.00     0.051 C 
BRANCH  30  33
HETATM   33  O   UNL     1     -24.520  -2.043 -12.642  1.00  0.00    -0.386 OA
HETATM   34  H   UNL     1     -24.931  -1.166 -12.584  1.00  0.00     0.211 HD
ENDBRANCH  30  33
ENDBRANCH  25  30
ENDBRANCH   1  24
TORSDOF 6
BEGIN_RES ARG D 557
REMARK  4 active torsions:
REMARK  status: ('A' for Active; 'I' for Inactive)
REMARK    1  A    between atoms: CA   and  CB  
REMARK    2  A    between atoms: CB   and  CG  
REMARK    3  A    between atoms: CG   and  CD  
REMARK    4  A    between atoms: CD   and  NE  
REMARK       I    between atoms: NE   and  CZ  
REMARK       I    between atoms: CZ   and  NH1 
REMARK       I    between atoms: CZ   and  NH2 
ROOT
ATOM      1  CA  ARG D 557     -26.217   2.705 -17.014  1.00 35.49     0.159 C 
ENDROOT
BRANCH   1   2
ATOM      2  CB  ARG D 557     -26.789   1.319 -17.183  1.00 35.49     0.034 C 
BRANCH   2   3
ATOM      3  CG  ARG D 557     -28.118   1.078 -16.609  1.00 35.49     0.027 C 
BRANCH   3   4
ATOM      4  CD  ARG D 557     -28.852   0.003 -17.314  1.00 35.49     0.116 C 
BRANCH   4   5
ATOM      5  NE  ARG D 557     -28.313  -1.300 -17.025  1.00 35.49    -0.212 N 
ATOM      6  CZ  ARG D 557     -28.957  -2.440 -17.141  1.00 35.49     0.666 C 
ATOM      7  NH1 ARG D 557     -30.215  -2.507 -17.536  1.00 35.49    -0.235 N 
ATOM      8  NH2 ARG D 557     -28.305  -3.530 -16.856  1.00 35.49    -0.235 N 
ATOM      9  HH  ARG D 557     -30.663  -1.803 -17.731  1.00 35.49     0.174 HD
ATOM     10  HH  ARG D 557     -30.583  -3.279 -17.596  1.00 35.49     0.174 HD
ATOM     11  HH  ARG D 557     -27.491  -3.457 -16.611  1.00 35.49     0.174 HD
ATOM     12  HH  ARG D 557     -28.686  -4.285 -16.923  1.00 35.49     0.174 HD
ATOM     13  HE  ARG D 557     -27.531  -1.345 -16.695  1.00 35.49     0.178 HD
ENDBRANCH   4   5
ENDBRANCH   3   4
ENDBRANCH   2   3
ENDBRANCH   1   2
END_RES ARG D 557
BEGIN_RES GLU D 570
REMARK  3 active torsions:
REMARK  status: ('A' for Active; 'I' for Inactive)
REMARK    5  A    between atoms: CA   and  CB  
REMARK    6  A    between atoms: CB   and  CG  
REMARK    7  A    between atoms: CG   and  CD  
ROOT
ATOM     14  CA  GLU D 570     -18.033  -6.348 -13.375  1.00 32.92     0.160 C 
ENDROOT
BRANCH  14  15
ATOM     15  CB  GLU D 570     -19.500  -6.345 -13.794  1.00 32.92     0.043 C 
BRANCH  15  16
ATOM     16  CG  GLU D 570     -20.087  -7.634 -14.242  1.00 32.92     0.100 C 
BRANCH  16  17
ATOM     17  CD  GLU D 570     -20.565  -7.598 -15.675  1.00 32.92     0.185 C 
ATOM     18  OE1 GLU D 570     -20.825  -8.670 -16.254  1.00 32.92    -0.647 OA
ATOM     19  OE2 GLU D 570     -20.665  -6.486 -16.230  1.00 32.92    -0.647 OA
ENDBRANCH  16  17
ENDBRANCH  15  16
ENDBRANCH  14  15
END_RES GLU D 570
ENDMDL
MODEL 3
REMARK VINA RESULT:     -10.6      1.258      1.966
REMARK  6 active torsions:
REMARK  status: ('A' for Active; 'I' for Inactive)
REMARK    1  A    between atoms: C_2  and  O_4 
REMARK    2  A    between atoms: C_2  and  C_5 
REMARK    3  A    between atoms: C_10  and  C_11 
REMARK    4  A    between atoms: C_17  and  C_18 
REMARK    5  A    between atoms: C_19  and  C_20 
REMARK    6  A    between atoms: C_23  and  C_24 
ROOT
HETATM    1  C   UNL     1     -21.143  -8.356  -2.828  1.00  0.00    -0.023 C 
HETATM    2  C   UNL     1     -21.129  -7.018  -2.354  1.00  0.00     0.014 C 
HETATM    3  C   UNL     1     -21.257  -5.910  -3.185  1.00  0.00     0.033 C 
HETATM    4  C   UNL     1     -21.215  -6.118  -4.555  1.00  0.00     0.060 A 
HETATM    5  N   UNL     1     -21.280  -5.185  -5.536  1.00  0.00    -0.341 N 
ATOM      6  HN  UNL     1     -21.442  -4.185  -5.417  1.00  0.00     0.167 HD
HETATM    7  C   UNL     1     -21.094  -5.820  -6.671  1.00  0.00     0.106 A 
HETATM    8  N   UNL     1     -20.953  -7.176  -6.439  1.00  0.00    -0.341 N 
HETATM    9  C   UNL     1     -21.080  -7.395  -5.072  1.00  0.00     0.061 A 
HETATM   10  C   UNL     1     -21.103  -8.539  -4.237  1.00  0.00     0.044 C 
HETATM   11  H   UNL     1     -20.752  -7.881  -7.129  1.00  0.00     0.167 HD
ENDROOT
BRANCH   7  12
HETATM   12  C   UNL     1     -21.059  -5.222  -7.962  1.00  0.00     0.049 C 
HETATM   13  C   UNL     1     -22.271  -4.966  -8.503  1.00  0.00     0.015 C 
BRANCH  13  14
HETATM   14  C   UNL     1     -22.645  -4.415  -9.803  1.00  0.00    -0.036 A 
HETATM   15  C   UNL     1     -21.666  -4.451 -10.810  1.00  0.00     0.012 A 
HETATM   16  C   UNL     1     -21.928  -3.971 -12.093  1.00  0.00     0.017 A 
HETATM   17  C   UNL     1     -23.190  -3.457 -12.407  1.00  0.00     0.048 A 
HETATM   18  C   UNL     1     -24.192  -3.482 -11.419  1.00  0.00     0.017 A 
HETATM   19  C   UNL     1     -23.923  -3.960 -10.127  1.00  0.00     0.012 A 
BRANCH  17  20
HETATM   20  C   UNL     1     -23.472  -2.877 -13.771  1.00  0.00     0.417 C 
HETATM   21  F   UNL     1     -24.086  -1.661 -13.731  1.00  0.00    -0.166 F 
HETATM   22  F   UNL     1     -22.345  -2.702 -14.514  1.00  0.00    -0.166 F 
HETATM   23  F   UNL     1     -24.290  -3.678 -14.510  1.00  0.00    -0.166 F 
ENDBRANCH  17  20
ENDBRANCH  13  14
ENDBRANCH   7  12
BRANCH   1  24
HETATM   24  C   UNL     1     -21.385  -9.453  -1.812  1.00  0.00    -0.017 A 
HETATM   25  C   UNL     1     -20.640 -10.639  -1.563  1.00  0.00    -0.014 A 
HETATM   26  C   UNL     1     -21.208 -11.605  -0.668  1.00  0.00     0.011 A 
HETATM   27  C   UNL     1     -22.396 -11.411   0.033  1.00  0.00     0.001 A 
HETATM   28  C   UNL     1     -23.066 -10.223  -0.118  1.00  0.00     0.001 A 
HETATM   29  C   UNL     1     -22.579  -9.292  -1.031  1.00  0.00     0.013 A 
BRANCH  25  30
HETATM   30  C   UNL     1     -19.263 -11.028  -2.133  1.00  0.00     0.078 C 
HETATM   31  C   UNL     1     -19.447 -11.756  -3.476  1.00  0.00     0.051 C 
HETATM   32  C   UNL     1     -18.473 -11.922  -1.152  1.00  0.00     0.051 C 
BRANCH  30  33
HETATM   33  O   UNL     1     -18.407  -9.911  -2.353  1.00  0.00    -0.386 OA
HETATM   34  H   UNL     1     -17.516 -10.244  -2.544  1.00  0.00     0.211 HD
ENDBRANCH  30  33
ENDBRANCH  25  30
ENDBRANCH   1  24
TORSDOF 6
BEGIN_RES ARG D 557
REMARK  4 active torsions:
REMARK  status: ('A' for Active; 'I' for Inactive)
REMARK    1  A    between atoms: CA   and  CB  
REMARK    2  A    between atoms: CB   and  CG  
REMARK    3  A    between atoms: CG   and  CD  
REMARK    4  A    between atoms: CD   and  NE  
REMARK       I    between atoms: NE   and  CZ  
REMARK       I    between atoms: CZ   and  NH1 
REMARK       I    between atoms: CZ   and  NH2 
ROOT
ATOM      1  CA  ARG D 557     -26.217   2.705 -17.014  1.00 35.49     0.159 C 
ENDROOT
BRANCH   1   2
ATOM      2  CB  ARG D 557     -26.789   1.319 -17.183  1.00 35.49     0.034 C 
BRANCH   2   3
ATOM      3  CG  ARG D 557     -28.233   1.226 -17.433  1.00 35.49     0.027 C 
BRANCH   3   4
ATOM      4  CD  ARG D 557     -28.910   0.307 -16.490  1.00 35.49     0.116 C 
BRANCH   4   5
ATOM      5  NE  ARG D 557     -29.289  -0.931 -17.117  1.00 35.49    -0.212 N 
ATOM      6  CZ  ARG D 557     -28.648  -2.074 -17.012  1.00 35.49     0.666 C 
ATOM      7  NH1 ARG D 557     -27.541  -2.203 -16.304  1.00 35.49    -0.235 N 
ATOM      8  NH2 ARG D 557     -29.148  -3.102 -17.633  1.00 35.49    -0.235 N 
ATOM      9  HH  ARG D 557     -27.196  -1.540 -15.885  1.00 35.49     0.174 HD
ATOM     10  HH  ARG D 557     -27.168  -2.973 -16.269  1.00 35.49     0.174 HD
ATOM     11  HH  ARG D 557     -29.868  -2.991 -18.077  1.00 35.49     0.174 HD
ATOM     12  HH  ARG D 557     -28.764  -3.857 -17.586  1.00 35.49     0.174 HD
ATOM     13  HE  ARG D 557     -29.951  -0.922 -17.652  1.00 35.49     0.178 HD
ENDBRANCH   4   5
ENDBRANCH   3   4
ENDBRANCH   2   3
ENDBRANCH   1   2
END_RES ARG D 557
BEGIN_RES GLU D 570
REMARK  3 active torsions:
REMARK  status: ('A' for Active; 'I' for Inactive)
REMARK    5  A    between atoms: CA   and  CB  
REMARK    6  A    between atoms: CB   and  CG  
REMARK    7  A    between atoms: CG   and  CD  
ROOT
ATOM     14  CA  GLU D 570     -18.033  -6.348 -13.375  1.00 32.92     0.160 C 
ENDROOT
BRANCH  14  15
ATOM     15  CB  GLU D 570     -19.500  -6.345 -13.794  1.00 32.92     0.043 C 
BRANCH  15  16
ATOM     16  CG  GLU D 570     -19.807  -6.016 -15.210  1.00 32.92     0.100 C 
BRANCH  16  17
ATOM     17  CD  GLU D 570     -21.277  -5.762 -15.451  1.00 32.92     0.185 C 
ATOM     18  OE1 GLU D 570     -21.617  -5.043 -16.410  1.00 32.92    -0.647 OA
ATOM     19  OE2 GLU D 570     -22.095  -6.273 -14.662  1.00 32.92    -0.647 OA
ENDBRANCH  16  17
ENDBRANCH  15  16
ENDBRANCH  14  15
END_RES GLU D 570
ENDMDL
MODEL 4
REMARK VINA RESULT:     -10.4      2.190      3.669
REMARK  6 active torsions:
REMARK  status: ('A' for Active; 'I' for Inactive)
REMARK    1  A    between atoms: C_2  and  O_4 
REMARK    2  A    between atoms: C_2  and  C_5 
REMARK    3  A    between atoms: C_10  and  C_11 
REMARK    4  A    between atoms: C_17  and  C_18 
REMARK    5  A    between atoms: C_19  and  C_20 
REMARK    6  A    between atoms: C_23  and  C_24 
ROOT
HETATM    1  C   UNL     1     -21.683  -9.744  -0.917  1.00  0.00    -0.023 C 
HETATM    2  C   UNL     1     -22.002  -8.581  -0.169  1.00  0.00     0.014 C 
HETATM    3  C   UNL     1     -22.126  -7.316  -0.735  1.00  0.00     0.033 C 
HETATM    4  C   UNL     1     -21.743  -7.157  -2.059  1.00  0.00     0.060 A 
HETATM    5  N   UNL     1     -21.743  -6.015  -2.789  1.00  0.00    -0.341 N 
ATOM      6  HN  UNL     1     -22.094  -5.104  -2.495  1.00  0.00     0.167 HD
HETATM    7  C   UNL     1     -21.202  -6.311  -3.948  1.00  0.00     0.106 A 
HETATM    8  N   UNL     1     -20.890  -7.657  -3.997  1.00  0.00    -0.341 N 
HETATM    9  C   UNL     1     -21.281  -8.235  -2.794  1.00  0.00     0.061 A 
HETATM   10  C   UNL     1     -21.297  -9.551  -2.272  1.00  0.00     0.044 C 
HETATM   11  H   UNL     1     -20.422  -8.134  -4.751  1.00  0.00     0.167 HD
ENDROOT
BRANCH   7  12
HETATM   12  C   UNL     1     -20.979  -5.399  -5.019  1.00  0.00     0.049 C 
HETATM   13  C   UNL     1     -21.501  -5.780  -6.206  1.00  0.00     0.015 C 
BRANCH  13  14
HETATM   14  C   UNL     1     -21.444  -5.153  -7.524  1.00  0.00    -0.036 A 
HETATM   15  C   UNL     1     -22.601  -4.483  -7.957  1.00  0.00     0.012 A 
HETATM   16  C   UNL     1     -22.643  -3.833  -9.190  1.00  0.00     0.017 A 
HETATM   17  C   UNL     1     -21.516  -3.822 -10.018  1.00  0.00     0.048 A 
HETATM   18  C   UNL     1     -20.337  -4.435  -9.557  1.00  0.00     0.017 A 
HETATM   19  C   UNL     1     -20.299  -5.094  -8.319  1.00  0.00     0.012 A 
BRANCH  17  20
HETATM   20  C   UNL     1     -21.565  -3.176 -11.380  1.00  0.00     0.417 C 
HETATM   21  F   UNL     1     -22.714  -2.479 -11.614  1.00  0.00    -0.166 F 
HETATM   22  F   UNL     1     -20.546  -2.297 -11.587  1.00  0.00    -0.166 F 
HETATM   23  F   UNL     1     -21.481  -4.092 -12.385  1.00  0.00    -0.166 F 
ENDBRANCH  17  20
ENDBRANCH  13  14
ENDBRANCH   7  12
BRANCH   1  24
HETATM   24  C   UNL     1     -21.958 -11.086  -0.271  1.00  0.00    -0.017 A 
HETATM   25  C   UNL     1     -21.094 -12.202  -0.096  1.00  0.00    -0.014 A 
HETATM   26  C   UNL     1     -21.675 -13.425   0.377  1.00  0.00     0.011 A 
HETATM   27  C   UNL     1     -23.009 -13.556   0.755  1.00  0.00     0.001 A 
HETATM   28  C   UNL     1     -23.825 -12.454   0.692  1.00  0.00     0.001 A 
HETATM   29  C   UNL     1     -23.311 -11.270   0.172  1.00  0.00     0.013 A 
BRANCH  25  30
HETATM   30  C   UNL     1     -19.574 -12.270  -0.342  1.00  0.00     0.078 C 
HETATM   31  C   UNL     1     -19.293 -12.217  -1.854  1.00  0.00     0.051 C 
HETATM   32  C   UNL     1     -18.956 -13.549   0.265  1.00  0.00     0.051 C 
BRANCH  30  33
HETATM   33  O   UNL     1     -18.854 -11.208   0.276  1.00  0.00    -0.386 OA
HETATM   34  H   UNL     1     -17.914 -11.447   0.291  1.00  0.00     0.211 HD
ENDBRANCH  30  33
ENDBRANCH  25  30
ENDBRANCH   1  24
TORSDOF 6
BEGIN_RES ARG D 557
REMARK  4 active torsions:
REMARK  status: ('A' for Active; 'I' for Inactive)
REMARK    1  A    between atoms: CA   and  CB  
REMARK    2  A    between atoms: CB   and  CG  
REMARK    3  A    between atoms: CG   and  CD  
REMARK    4  A    between atoms: CD   and  NE  
REMARK       I    between atoms: NE   and  CZ  
REMARK       I    between atoms: CZ   and  NH1 
REMARK       I    between atoms: CZ   and  NH2 
ROOT
ATOM      1  CA  ARG D 557     -26.217   2.705 -17.014  1.00 35.49     0.159 C 
ENDROOT
BRANCH   1   2
ATOM      2  CB  ARG D 557     -26.789   1.319 -17.183  1.00 35.49     0.034 C 
BRANCH   2   3
ATOM      3  CG  ARG D 557     -28.235   1.172 -16.979  1.00 35.49     0.027 C 
BRANCH   3   4
ATOM      4  CD  ARG D 557     -28.636  -0.240 -16.778  1.00 35.49     0.116 C 
BRANCH   4   5
ATOM      5  NE  ARG D 557     -27.628  -0.996 -16.084  1.00 35.49    -0.212 N 
ATOM      6  CZ  ARG D 557     -27.476  -2.301 -16.134  1.00 35.49     0.666 C 
ATOM      7  NH1 ARG D 557     -28.271  -3.081 -16.842  1.00 35.49    -0.235 N 
ATOM      8  NH2 ARG D 557     -26.492  -2.817 -15.455  1.00 35.49    -0.235 N 
ATOM      9  HH  ARG D 557     -28.923  -2.762 -17.298  1.00 35.49     0.174 HD
ATOM     10  HH  ARG D 557     -28.122  -3.924 -16.839  1.00 35.49     0.174 HD
ATOM     11  HH  ARG D 557     -25.990  -2.288 -15.013  1.00 35.49     0.174 HD
ATOM     12  HH  ARG D 557     -26.360  -3.654 -15.466  1.00 35.49     0.174 HD
ATOM     13  HE  ARG D 557     -27.117  -0.581 -15.546  1.00 35.49     0.178 HD
ENDBRANCH   4   5
ENDBRANCH   3   4
ENDBRANCH   2   3
ENDBRANCH   1   2
END_RES ARG D 557
BEGIN_RES GLU D 570
REMARK  3 active torsions:
REMARK  status: ('A' for Active; 'I' for Inactive)
REMARK    5  A    between atoms: CA   and  CB  
REMARK    6  A    between atoms: CB   and  CG  
REMARK    7  A    between atoms: CG   and  CD  
ROOT
ATOM     14  CA  GLU D 570     -18.033  -6.348 -13.375  1.00 32.92     0.160 C 
ENDROOT
BRANCH  14  15
ATOM     15  CB  GLU D 570     -19.500  -6.345 -13.794  1.00 32.92     0.043 C 
BRANCH  15  16
ATOM     16  CG  GLU D 570     -20.108  -7.648 -14.167  1.00 32.92     0.100 C 
BRANCH  16  17
ATOM     17  CD  GLU D 570     -20.849  -7.598 -15.483  1.00 32.92     0.185 C 
ATOM     18  OE1 GLU D 570     -20.799  -8.584 -16.243  1.00 32.92    -0.647 OA
ATOM     19  OE2 GLU D 570     -21.471  -6.555 -15.764  1.00 32.92    -0.647 OA
ENDBRANCH  16  17
ENDBRANCH  15  16
ENDBRANCH  14  15
END_RES GLU D 570
ENDMDL
MODEL 5
REMARK VINA RESULT:      -9.6      1.901      2.970
REMARK  6 active torsions:
REMARK  status: ('A' for Active; 'I' for Inactive)
REMARK    1  A    between atoms: C_2  and  O_4 
REMARK    2  A    between atoms: C_2  and  C_5 
REMARK    3  A    between atoms: C_10  and  C_11 
REMARK    4  A    between atoms: C_17  and  C_18 
REMARK    5  A    between atoms: C_19  and  C_20 
REMARK    6  A    between atoms: C_23  and  C_24 
ROOT
HETATM    1  C   UNL     1     -20.290  -9.402  -2.122  1.00  0.00    -0.023 C 
HETATM    2  C   UNL     1     -20.822  -8.197  -1.595  1.00  0.00     0.014 C 
HETATM    3  C   UNL     1     -21.161  -7.100  -2.383  1.00  0.00     0.033 C 
HETATM    4  C   UNL     1     -20.792  -7.123  -3.720  1.00  0.00     0.060 A 
HETATM    5  N   UNL     1     -20.985  -6.154  -4.648  1.00  0.00    -0.341 N 
ATOM      6  HN  UNL     1     -21.497  -5.281  -4.520  1.00  0.00     0.167 HD
HETATM    7  C   UNL     1     -20.383  -6.558  -5.743  1.00  0.00     0.106 A 
HETATM    8  N   UNL     1     -19.836  -7.814  -5.549  1.00  0.00    -0.341 N 
HETATM    9  C   UNL     1     -20.136  -8.219  -4.253  1.00  0.00     0.061 A 
HETATM   10  C   UNL     1     -19.926  -9.397  -3.497  1.00  0.00     0.044 C 
HETATM   11  H   UNL     1     -19.281  -8.331  -6.210  1.00  0.00     0.167 HD
ENDROOT
BRANCH   7  12
HETATM   12  C   UNL     1     -20.311  -5.836  -6.967  1.00  0.00     0.049 C 
HETATM   13  C   UNL     1     -21.507  -5.495  -7.498  1.00  0.00     0.015 C 
BRANCH  13  14
HETATM   14  C   UNL     1     -21.844  -4.808  -8.742  1.00  0.00    -0.036 A 
HETATM   15  C   UNL     1     -23.167  -4.355  -8.876  1.00  0.00     0.012 A 
HETATM   16  C   UNL     1     -23.585  -3.668 -10.015  1.00  0.00     0.017 A 
HETATM   17  C   UNL     1     -22.680  -3.400 -11.047  1.00  0.00     0.048 A 
HETATM   18  C   UNL     1     -21.340  -3.796 -10.885  1.00  0.00     0.017 A 
HETATM   19  C   UNL     1     -20.923  -4.491  -9.740  1.00  0.00     0.012 A 
BRANCH  17  20
HETATM   20  C   UNL     1     -23.131  -2.714 -12.312  1.00  0.00     0.417 C 
HETATM   21  F   UNL     1     -24.480  -2.527 -12.381  1.00  0.00    -0.166 F 
HETATM   22  F   UNL     1     -22.575  -1.481 -12.473  1.00  0.00    -0.166 F 
HETATM   23  F   UNL     1     -22.801  -3.424 -13.427  1.00  0.00    -0.166 F 
ENDBRANCH  17  20
ENDBRANCH  13  14
ENDBRANCH   7  12
BRANCH   1  24
HETATM   24  C   UNL     1     -20.332 -10.629  -1.234  1.00  0.00    -0.017 A 
HETATM   25  C   UNL     1     -21.437 -11.230  -0.571  1.00  0.00    -0.014 A 
HETATM   26  C   UNL     1     -21.158 -12.277   0.370  1.00  0.00     0.011 A 
HETATM   27  C   UNL     1     -19.885 -12.792   0.604  1.00  0.00     0.001 A 
HETATM   28  C   UNL     1     -18.827 -12.291  -0.113  1.00  0.00     0.001 A 
HETATM   29  C   UNL     1     -19.052 -11.228  -0.983  1.00  0.00     0.013 A 
BRANCH  25  30
HETATM   30  C   UNL     1     -22.933 -10.908  -0.741  1.00  0.00     0.078 C 
HETATM   31  C   UNL     1     -23.773 -11.906   0.074  1.00  0.00     0.051 C 
HETATM   32  C   UNL     1     -23.359 -10.949  -2.226  1.00  0.00     0.051 C 
BRANCH  30  33
HETATM   33  O   UNL     1     -23.279  -9.593  -0.316  1.00  0.00    -0.386 OA
HETATM   34  H   UNL     1     -22.461  -9.082  -0.216  1.00  0.00     0.211 HD
ENDBRANCH  30  33
ENDBRANCH  25  30
ENDBRANCH   1  24
TORSDOF 6
BEGIN_RES ARG D 557
REMARK  4 active torsions:
REMARK  status: ('A' for Active; 'I' for Inactive)
REMARK    1  A    between atoms: CA   and  CB  
REMARK    2  A    between atoms: CB   and  CG  
REMARK    3  A    between atoms: CG   and  CD  
REMARK    4  A    between atoms: CD   and  NE  
REMARK       I    between atoms: NE   and  CZ  
REMARK       I    between atoms: CZ   and  NH1 
REMARK       I    between atoms: CZ   and  NH2 
ROOT
ATOM      1  CA  ARG D 557     -26.217   2.705 -17.014  1.00 35.49     0.159 C 
ENDROOT
BRANCH   1   2
ATOM      2  CB  ARG D 557     -26.789   1.319 -17.183  1.00 35.49     0.034 C 
BRANCH   2   3
ATOM      3  CG  ARG D 557     -26.080   0.225 -16.508  1.00 35.49     0.027 C 
BRANCH   3   4
ATOM      4  CD  ARG D 557     -26.982  -0.893 -16.146  1.00 35.49     0.116 C 
BRANCH   4   5
ATOM      5  NE  ARG D 557     -26.300  -1.922 -15.407  1.00 35.49    -0.212 N 
ATOM      6  CZ  ARG D 557     -26.570  -3.207 -15.452  1.00 35.49     0.666 C 
ATOM      7  NH1 ARG D 557     -27.540  -3.702 -16.198  1.00 35.49    -0.235 N 
ATOM      8  NH2 ARG D 557     -25.834  -4.001 -14.730  1.00 35.49    -0.235 N 
ATOM      9  HH  ARG D 557     -28.036  -3.198 -16.683  1.00 35.49     0.174 HD
ATOM     10  HH  ARG D 557     -27.668  -4.549 -16.190  1.00 35.49     0.174 HD
ATOM     11  HH  ARG D 557     -25.209  -3.655 -14.264  1.00 35.49     0.174 HD
ATOM     12  HH  ARG D 557     -25.975  -4.837 -14.737  1.00 35.49     0.174 HD
ATOM     13  HE  ARG D 557     -25.707  -1.684 -14.845  1.00 35.49     0.178 HD
ENDBRANCH   4   5
ENDBRANCH   3   4
ENDBRANCH   2   3
ENDBRANCH   1   2
END_RES ARG D 557
BEGIN_RES GLU D 570
REMARK  3 active torsions:
REMARK  status: ('A' for Active; 'I' for Inactive)
REMARK    5  A    between atoms: CA   and  CB  
REMARK    6  A    between atoms: CB   and  CG  
REMARK    7  A    between atoms: CG   and  CD  
ROOT
ATOM     14  CA  GLU D 570     -18.033  -6.348 -13.375  1.00 32.92     0.160 C 
ENDROOT
BRANCH  14  15
ATOM     15  CB  GLU D 570     -19.500  -6.345 -13.794  1.00 32.92     0.043 C 
BRANCH  15  16
ATOM     16  CG  GLU D 570     -20.108  -7.648 -14.168  1.00 32.92     0.100 C 
BRANCH  16  17
ATOM     17  CD  GLU D 570     -20.839  -7.599 -15.489  1.00 32.92     0.185 C 
ATOM     18  OE1 GLU D 570     -21.038  -8.661 -16.111  1.00 32.92    -0.647 OA
ATOM     19  OE2 GLU D 570     -21.203  -6.486 -15.915  1.00 32.92    -0.647 OA
ENDBRANCH  16  17
ENDBRANCH  15  16
ENDBRANCH  14  15
END_RES GLU D 570
ENDMDL
MODEL 6
REMARK VINA RESULT:      -9.4      1.356      2.366
REMARK  6 active torsions:
REMARK  status: ('A' for Active; 'I' for Inactive)
REMARK    1  A    between atoms: C_2  and  O_4 
REMARK    2  A    between atoms: C_2  and  C_5 
REMARK    3  A    between atoms: C_10  and  C_11 
REMARK    4  A    between atoms: C_17  and  C_18 
REMARK    5  A    between atoms: C_19  and  C_20 
REMARK    6  A    between atoms: C_23  and  C_24 
ROOT
HETATM    1  C   UNL     1     -20.026  -8.340  -3.598  1.00  0.00    -0.023 C 
HETATM    2  C   UNL     1     -20.888  -7.457  -2.898  1.00  0.00     0.014 C 
HETATM    3  C   UNL     1     -21.601  -6.433  -3.516  1.00  0.00     0.033 C 
HETATM    4  C   UNL     1     -21.313  -6.152  -4.843  1.00  0.00     0.060 A 
HETATM    5  N   UNL     1     -21.854  -5.181  -5.619  1.00  0.00    -0.341 N 
ATOM      6  HN  UNL     1     -22.612  -4.548  -5.364  1.00  0.00     0.167 HD
HETATM    7  C   UNL     1     -21.211  -5.213  -6.763  1.00  0.00     0.106 A 
HETATM    8  N   UNL     1     -20.280  -6.237  -6.757  1.00  0.00    -0.341 N 
HETATM    9  C   UNL     1     -20.368  -6.891  -5.533  1.00  0.00     0.061 A 
HETATM   10  C   UNL     1     -19.752  -8.028  -4.958  1.00  0.00     0.044 C 
HETATM   11  H   UNL     1     -19.622  -6.449  -7.489  1.00  0.00     0.167 HD
ENDROOT
BRANCH   7  12
HETATM   12  C   UNL     1     -21.437  -4.346  -7.870  1.00  0.00     0.049 C 
HETATM   13  C   UNL     1     -22.226  -4.858  -8.840  1.00  0.00     0.015 C 
BRANCH  13  14
HETATM   14  C   UNL     1     -22.642  -4.307 -10.128  1.00  0.00    -0.036 A 
HETATM   15  C   UNL     1     -21.726  -4.415 -11.188  1.00  0.00     0.012 A 
HETATM   16  C   UNL     1     -22.034  -3.941 -12.463  1.00  0.00     0.017 A 
HETATM   17  C   UNL     1     -23.281  -3.360 -12.715  1.00  0.00     0.048 A 
HETATM   18  C   UNL     1     -24.223  -3.312 -11.671  1.00  0.00     0.017 A 
HETATM   19  C   UNL     1     -23.909  -3.784 -10.388  1.00  0.00     0.012 A 
BRANCH  17  20
HETATM   20  C   UNL     1     -23.607  -2.787 -14.071  1.00  0.00     0.417 C 
HETATM   21  F   UNL     1     -24.716  -3.336 -14.644  1.00  0.00    -0.166 F 
HETATM   22  F   UNL     1     -23.829  -1.444 -14.039  1.00  0.00    -0.166 F 
HETATM   23  F   UNL     1     -22.597  -2.980 -14.966  1.00  0.00    -0.166 F 
ENDBRANCH  17  20
ENDBRANCH  13  14
ENDBRANCH   7  12
BRANCH   1  24
HETATM   24  C   UNL     1     -19.626  -9.622  -2.898  1.00  0.00    -0.017 A 
HETATM   25  C   UNL     1     -20.441 -10.611  -2.282  1.00  0.00    -0.014 A 
HETATM   26  C   UNL     1     -19.786 -11.633  -1.518  1.00  0.00     0.011 A 
HETATM   27  C   UNL     1     -18.402 -11.761  -1.418  1.00  0.00     0.001 A 
HETATM   28  C   UNL     1     -17.606 -10.874  -2.099  1.00  0.00     0.001 A 
HETATM   29  C   UNL     1     -18.209  -9.829  -2.793  1.00  0.00     0.013 A 
BRANCH  25  30
HETATM   30  C   UNL     1     -21.976 -10.742  -2.339  1.00  0.00     0.078 C 
HETATM   31  C   UNL     1     -22.465 -10.469  -3.771  1.00  0.00     0.051 C 
HETATM   32  C   UNL     1     -22.666  -9.774  -1.352  1.00  0.00     0.051 C 
BRANCH  30  33
HETATM   33  O   UNL     1     -22.447 -12.029  -1.951  1.00  0.00    -0.386 OA
HETATM   34  H   UNL     1     -21.861 -12.370  -1.256  1.00  0.00     0.211 HD
ENDBRANCH  30  33
ENDBRANCH  25  30
ENDBRANCH   1  24
TORSDOF 6
BEGIN_RES ARG D 557
REMARK  4 active torsions:
REMARK  status: ('A' for Active; 'I' for Inactive)
REMARK    1  A    between atoms: CA   and  CB  
REMARK    2  A    between atoms: CB   and  CG  
REMARK    3  A    between atoms: CG   and  CD  
REMARK    4  A    between atoms: CD   and  NE  
REMARK       I    between atoms: NE   and  CZ  
REMARK       I    between atoms: CZ   and  NH1 
REMARK       I    between atoms: CZ   and  NH2 
ROOT
ATOM      1  CA  ARG D 557     -26.217   2.705 -17.014  1.00 35.49     0.159 C 
ENDROOT
BRANCH   1   2
ATOM      2  CB  ARG D 557     -26.789   1.319 -17.183  1.00 35.49     0.034 C 
BRANCH   2   3
ATOM      3  CG  ARG D 557     -25.958   0.201 -16.720  1.00 35.49     0.027 C 
BRANCH   3   4
ATOM      4  CD  ARG D 557     -26.698  -0.720 -15.827  1.00 35.49     0.116 C 
BRANCH   4   5
ATOM      5  NE  ARG D 557     -27.533  -1.634 -16.561  1.00 35.49    -0.212 N 
ATOM      6  CZ  ARG D 557     -28.786  -1.426 -16.899  1.00 35.49     0.666 C 
ATOM      7  NH1 ARG D 557     -29.435  -0.323 -16.576  1.00 35.49    -0.235 N 
ATOM      8  NH2 ARG D 557     -29.385  -2.357 -17.584  1.00 35.49    -0.235 N 
ATOM      9  HH  ARG D 557     -29.060   0.303 -16.127  1.00 35.49     0.174 HD
ATOM     10  HH  ARG D 557     -30.250  -0.242 -16.826  1.00 35.49     0.174 HD
ATOM     11  HH  ARG D 557     -28.939  -3.056 -17.785  1.00 35.49     0.174 HD
ATOM     12  HH  ARG D 557     -30.192  -2.258 -17.824  1.00 35.49     0.174 HD
ATOM     13  HE  ARG D 557     -27.218  -2.401 -16.747  1.00 35.49     0.178 HD
ENDBRANCH   4   5
ENDBRANCH   3   4
ENDBRANCH   2   3
ENDBRANCH   1   2
END_RES ARG D 557
BEGIN_RES GLU D 570
REMARK  3 active torsions:
REMARK  status: ('A' for Active; 'I' for Inactive)
REMARK    5  A    between atoms: CA   and  CB  
REMARK    6  A    between atoms: CB   and  CG  
REMARK    7  A    between atoms: CG   and  CD  
ROOT
ATOM     14  CA  GLU D 570     -18.033  -6.348 -13.375  1.00 32.92     0.160 C 
ENDROOT
BRANCH  14  15
ATOM     15  CB  GLU D 570     -19.500  -6.345 -13.794  1.00 32.92     0.043 C 
BRANCH  15  16
ATOM     16  CG  GLU D 570     -20.075  -7.625 -14.283  1.00 32.92     0.100 C 
BRANCH  16  17
ATOM     17  CD  GLU D 570     -21.125  -7.429 -15.351  1.00 32.92     0.185 C 
ATOM     18  OE1 GLU D 570     -21.974  -6.528 -15.208  1.00 32.92    -0.647 OA
ATOM     19  OE2 GLU D 570     -21.109  -8.196 -16.334  1.00 32.92    -0.647 OA
ENDBRANCH  16  17
ENDBRANCH  15  16
ENDBRANCH  14  15
END_RES GLU D 570
ENDMDL
MODEL 7
REMARK VINA RESULT:      -9.1     15.469     17.454
REMARK  6 active torsions:
REMARK  status: ('A' for Active; 'I' for Inactive)
REMARK    1  A    between atoms: C_2  and  O_4 
REMARK    2  A    between atoms: C_2  and  C_5 
REMARK    3  A    between atoms: C_10  and  C_11 
REMARK    4  A    between atoms: C_17  and  C_18 
REMARK    5  A    between atoms: C_19  and  C_20 
REMARK    6  A    between atoms: C_23  and  C_24 
ROOT
HETATM    1  C   UNL     1     -24.755   9.293  -0.154  1.00  0.00    -0.023 C 
HETATM    2  C   UNL     1     -24.037  10.348  -0.774  1.00  0.00     0.014 C 
HETATM    3  C   UNL     1     -22.754  10.730  -0.391  1.00  0.00     0.033 C 
HETATM    4  C   UNL     1     -22.230  10.173   0.765  1.00  0.00     0.060 A 
HETATM    5  N   UNL     1     -21.029  10.432   1.337  1.00  0.00    -0.341 N 
ATOM      6  HN  UNL     1     -20.291  11.028   0.962  1.00  0.00     0.167 HD
HETATM    7  C   UNL     1     -20.999   9.765   2.467  1.00  0.00     0.106 A 
HETATM    8  N   UNL     1     -22.162   9.030   2.616  1.00  0.00    -0.341 N 
HETATM    9  C   UNL     1     -22.954   9.245   1.493  1.00  0.00     0.061 A 
HETATM   10  C   UNL     1     -24.191   8.739   1.028  1.00  0.00     0.044 C 
HETATM   11  H   UNL     1     -22.416   8.471   3.413  1.00  0.00     0.167 HD
ENDROOT
BRANCH   7  12
HETATM   12  C   UNL     1     -19.929   9.765   3.407  1.00  0.00     0.049 C 
HETATM   13  C   UNL     1     -18.703   9.572   2.871  1.00  0.00     0.015 C 
BRANCH  13  14
HETATM   14  C   UNL     1     -17.389   9.461   3.499  1.00  0.00    -0.036 A 
HETATM   15  C   UNL     1     -17.330   9.677   4.887  1.00  0.00     0.012 A 
HETATM   16  C   UNL     1     -16.128   9.572   5.586  1.00  0.00     0.017 A 
HETATM   17  C   UNL     1     -14.951   9.230   4.913  1.00  0.00     0.048 A 
HETATM   18  C   UNL     1     -15.021   8.949   3.536  1.00  0.00     0.017 A 
HETATM   19  C   UNL     1     -16.230   9.060   2.834  1.00  0.00     0.012 A 
BRANCH  17  20
HETATM   20  C   UNL     1     -13.632   9.174   5.643  1.00  0.00     0.417 C 
HETATM   21  F   UNL     1     -13.466   8.041   6.385  1.00  0.00    -0.166 F 
HETATM   22  F   UNL     1     -12.561   9.232   4.806  1.00  0.00    -0.166 F 
HETATM   23  F   UNL     1     -13.484  10.210   6.516  1.00  0.00    -0.166 F 
ENDBRANCH  17  20
ENDBRANCH  13  14
ENDBRANCH   7  12
BRANCH   1  24
HETATM   24  C   UNL     1     -25.948   8.731  -0.899  1.00  0.00    -0.017 A 
HETATM   25  C   UNL     1     -25.987   7.857  -2.021  1.00  0.00    -0.014 A 
HETATM   26  C   UNL     1     -27.258   7.639  -2.650  1.00  0.00     0.011 A 
HETATM   27  C   UNL     1     -28.459   8.161  -2.176  1.00  0.00     0.001 A 
HETATM   28  C   UNL     1     -28.445   8.917  -1.031  1.00  0.00     0.001 A 
HETATM   29  C   UNL     1     -27.221   9.206  -0.435  1.00  0.00     0.013 A 
BRANCH  25  30
HETATM   30  C   UNL     1     -24.818   7.084  -2.659  1.00  0.00     0.078 C 
HETATM   31  C   UNL     1     -25.340   6.225  -3.823  1.00  0.00     0.051 C 
HETATM   32  C   UNL     1     -24.096   6.190  -1.626  1.00  0.00     0.051 C 
BRANCH  30  33
HETATM   33  O   UNL     1     -23.790   7.931  -3.165  1.00  0.00    -0.386 OA
HETATM   34  H   UNL     1     -23.142   7.378  -3.629  1.00  0.00     0.211 HD
ENDBRANCH  30  33
ENDBRANCH  25  30
ENDBRANCH   1  24
TORSDOF 6
BEGIN_RES ARG D 557
REMARK  4 active torsions:
REMARK  status: ('A' for Active; 'I' for Inactive)
REMARK    1  A    between atoms: CA   and  CB  
REMARK    2  A    between atoms: CB   and  CG  
REMARK    3  A    between atoms: CG   and  CD  
REMARK    4  A    between atoms: CD   and  NE  
REMARK       I    between atoms: NE   and  CZ  
REMARK       I    between atoms: CZ   and  NH1 
REMARK       I    between atoms: CZ   and  NH2 
ROOT
ATOM      1  CA  ARG D 557     -26.217   2.705 -17.014  1.00 35.49     0.159 C 
ENDROOT
BRANCH   1   2
ATOM      2  CB  ARG D 557     -26.789   1.319 -17.183  1.00 35.49     0.034 C 
BRANCH   2   3
ATOM      3  CG  ARG D 557     -25.837   0.202 -17.145  1.00 35.49     0.027 C 
BRANCH   3   4
ATOM      4  CD  ARG D 557     -24.760   0.413 -16.151  1.00 35.49     0.116 C 
BRANCH   4   5
ATOM      5  NE  ARG D 557     -24.908  -0.441 -15.001  1.00 35.49    -0.212 N 
ATOM      6  CZ  ARG D 557     -24.099  -1.419 -14.662  1.00 35.49     0.666 C 
ATOM      7  NH1 ARG D 557     -23.035  -1.740 -15.375  1.00 35.49    -0.235 N 
ATOM      8  NH2 ARG D 557     -24.376  -2.077 -13.574  1.00 35.49    -0.235 N 
ATOM      9  HH  ARG D 557     -22.833  -1.319 -16.094  1.00 35.49     0.174 HD
ATOM     10  HH  ARG D 557     -22.542  -2.386 -15.103  1.00 35.49     0.174 HD
ATOM     11  HH  ARG D 557     -25.066  -1.843 -13.129  1.00 35.49     0.174 HD
ATOM     12  HH  ARG D 557     -23.875  -2.713 -13.320  1.00 35.49     0.174 HD
ATOM     13  HE  ARG D 557     -25.607  -0.352 -14.525  1.00 35.49     0.178 HD
ENDBRANCH   4   5
ENDBRANCH   3   4
ENDBRANCH   2   3
ENDBRANCH   1   2
END_RES ARG D 557
BEGIN_RES GLU D 570
REMARK  3 active torsions:
REMARK  status: ('A' for Active; 'I' for Inactive)
REMARK    5  A    between atoms: CA   and  CB  
REMARK    6  A    between atoms: CB   and  CG  
REMARK    7  A    between atoms: CG   and  CD  
ROOT
ATOM     14  CA  GLU D 570     -18.033  -6.348 -13.375  1.00 32.92     0.160 C 
ENDROOT
BRANCH  14  15
ATOM     15  CB  GLU D 570     -19.500  -6.345 -13.794  1.00 32.92     0.043 C 
BRANCH  15  16
ATOM     16  CG  GLU D 570     -20.443  -5.534 -12.981  1.00 32.92     0.100 C 
BRANCH  16  17
ATOM     17  CD  GLU D 570     -21.733  -5.228 -13.705  1.00 32.92     0.185 C 
ATOM     18  OE1 GLU D 570     -22.188  -6.064 -14.509  1.00 32.92    -0.647 OA
ATOM     19  OE2 GLU D 570     -22.287  -4.135 -13.477  1.00 32.92    -0.647 OA
ENDBRANCH  16  17
ENDBRANCH  15  16
ENDBRANCH  14  15
END_RES GLU D 570
ENDMDL
MODEL 8
REMARK VINA RESULT:      -8.8      4.095      6.369
REMARK  6 active torsions:
REMARK  status: ('A' for Active; 'I' for Inactive)
REMARK    1  A    between atoms: C_2  and  O_4 
REMARK    2  A    between atoms: C_2  and  C_5 
REMARK    3  A    between atoms: C_10  and  C_11 
REMARK    4  A    between atoms: C_17  and  C_18 
REMARK    5  A    between atoms: C_19  and  C_20 
REMARK    6  A    between atoms: C_23  and  C_24 
ROOT
HETATM    1  C   UNL     1     -22.223 -12.871   0.974  1.00  0.00    -0.023 C 
HETATM    2  C   UNL     1     -23.415 -12.813   0.207  1.00  0.00     0.014 C 
HETATM    3  C   UNL     1     -23.594 -11.947  -0.868  1.00  0.00     0.033 C 
HETATM    4  C   UNL     1     -22.631 -10.972  -1.081  1.00  0.00     0.060 A 
HETATM    5  N   UNL     1     -22.627 -10.009  -2.035  1.00  0.00    -0.341 N 
ATOM      6  HN  UNL     1     -23.301  -9.897  -2.792  1.00  0.00     0.167 HD
HETATM    7  C   UNL     1     -21.584  -9.248  -1.795  1.00  0.00     0.106 A 
HETATM    8  N   UNL     1     -20.877  -9.738  -0.712  1.00  0.00    -0.341 N 
HETATM    9  C   UNL     1     -21.516 -10.890  -0.265  1.00  0.00     0.061 A 
HETATM   10  C   UNL     1     -21.253 -11.861   0.731  1.00  0.00     0.044 C 
HETATM   11  H   UNL     1     -20.066  -9.317  -0.289  1.00  0.00     0.167 HD
ENDROOT
BRANCH   7  12
HETATM   12  C   UNL     1     -21.206  -8.095  -2.540  1.00  0.00     0.049 C 
HETATM   13  C   UNL     1     -21.574  -8.113  -3.840  1.00  0.00     0.015 C 
BRANCH  13  14
HETATM   14  C   UNL     1     -21.332  -7.158  -4.918  1.00  0.00    -0.036 A 
HETATM   15  C   UNL     1     -20.140  -7.313  -5.647  1.00  0.00     0.012 A 
HETATM   16  C   UNL     1     -19.825  -6.468  -6.710  1.00  0.00     0.017 A 
HETATM   17  C   UNL     1     -20.709  -5.451  -7.085  1.00  0.00     0.048 A 
HETATM   18  C   UNL     1     -21.932  -5.336  -6.400  1.00  0.00     0.017 A 
HETATM   19  C   UNL     1     -22.244  -6.184  -5.327  1.00  0.00     0.012 A 
BRANCH  17  20
HETATM   20  C   UNL     1     -20.355  -4.489  -8.192  1.00  0.00     0.417 C 
HETATM   21  F   UNL     1     -19.985  -5.104  -9.352  1.00  0.00    -0.166 F 
HETATM   22  F   UNL     1     -21.382  -3.659  -8.521  1.00  0.00    -0.166 F 
HETATM   23  F   UNL     1     -19.311  -3.681  -7.855  1.00  0.00    -0.166 F 
ENDBRANCH  17  20
ENDBRANCH  13  14
ENDBRANCH   7  12
BRANCH   1  24
HETATM   24  C   UNL     1     -22.011 -14.094   1.842  1.00  0.00    -0.017 A 
HETATM   25  C   UNL     1     -21.121 -15.189   1.662  1.00  0.00    -0.014 A 
HETATM   26  C   UNL     1     -21.266 -16.315   2.539  1.00  0.00     0.011 A 
HETATM   27  C   UNL     1     -22.165 -16.361   3.602  1.00  0.00     0.001 A 
HETATM   28  C   UNL     1     -22.953 -15.264   3.849  1.00  0.00     0.001 A 
HETATM   29  C   UNL     1     -22.886 -14.182   2.976  1.00  0.00     0.013 A 
BRANCH  25  30
HETATM   30  C   UNL     1     -19.982 -15.324   0.633  1.00  0.00     0.078 C 
HETATM   31  C   UNL     1     -20.567 -15.303  -0.790  1.00  0.00     0.051 C 
HETATM   32  C   UNL     1     -19.170 -16.620   0.850  1.00  0.00     0.051 C 
BRANCH  30  33
HETATM   33  O   UNL     1     -19.012 -14.285   0.725  1.00  0.00    -0.386 OA
HETATM   34  H   UNL     1     -19.411 -13.540   1.201  1.00  0.00     0.211 HD
ENDBRANCH  30  33
ENDBRANCH  25  30
ENDBRANCH   1  24
TORSDOF 6
BEGIN_RES ARG D 557
REMARK  4 active torsions:
REMARK  status: ('A' for Active; 'I' for Inactive)
REMARK    1  A    between atoms: CA   and  CB  
REMARK    2  A    between atoms: CB   and  CG  
REMARK    3  A    between atoms: CG   and  CD  
REMARK    4  A    between atoms: CD   and  NE  
REMARK       I    between atoms: NE   and  CZ  
REMARK       I    between atoms: CZ   and  NH1 
REMARK       I    between atoms: CZ   and  NH2 
ROOT
ATOM      1  CA  ARG D 557     -26.217   2.705 -17.014  1.00 35.49     0.159 C 
ENDROOT
BRANCH   1   2
ATOM      2  CB  ARG D 557     -26.789   1.319 -17.183  1.00 35.49     0.034 C 
BRANCH   2   3
ATOM      3  CG  ARG D 557     -25.862   0.195 -17.005  1.00 35.49     0.027 C 
BRANCH   3   4
ATOM      4  CD  ARG D 557     -26.285  -0.719 -15.919  1.00 35.49     0.116 C 
BRANCH   4   5
ATOM      5  NE  ARG D 557     -25.270  -0.867 -14.909  1.00 35.49    -0.212 N 
ATOM      6  CZ  ARG D 557     -24.954  -1.986 -14.297  1.00 35.49     0.666 C 
ATOM      7  NH1 ARG D 557     -25.568  -3.128 -14.545  1.00 35.49    -0.235 N 
ATOM      8  NH2 ARG D 557     -23.991  -1.941 -13.422  1.00 35.49    -0.235 N 
ATOM      9  HH  ARG D 557     -26.202  -3.182 -15.118  1.00 35.49     0.174 HD
ATOM     10  HH  ARG D 557     -25.317  -3.827 -14.117  1.00 35.49     0.174 HD
ATOM     11  HH  ARG D 557     -23.608  -1.191 -13.288  1.00 35.49     0.174 HD
ATOM     12  HH  ARG D 557     -23.756  -2.643 -13.009  1.00 35.49     0.174 HD
ATOM     13  HE  ARG D 557     -24.873  -0.167 -14.635  1.00 35.49     0.178 HD
ENDBRANCH   4   5
ENDBRANCH   3   4
ENDBRANCH   2   3
ENDBRANCH   1   2
END_RES ARG D 557
BEGIN_RES GLU D 570
REMARK  3 active torsions:
REMARK  status: ('A' for Active; 'I' for Inactive)
REMARK    5  A    between atoms: CA   and  CB  
REMARK    6  A    between atoms: CB   and  CG  
REMARK    7  A    between atoms: CG   and  CD  
ROOT
ATOM     14  CA  GLU D 570     -18.033  -6.348 -13.375  1.00 32.92     0.160 C 
ENDROOT
BRANCH  14  15
ATOM     15  CB  GLU D 570     -19.500  -6.345 -13.794  1.00 32.92     0.043 C 
BRANCH  15  16
ATOM     16  CG  GLU D 570     -20.448  -5.560 -12.962  1.00 32.92     0.100 C 
BRANCH  16  17
ATOM     17  CD  GLU D 570     -21.752  -5.270 -13.669  1.00 32.92     0.185 C 
ATOM     18  OE1 GLU D 570     -22.361  -4.215 -13.406  1.00 32.92    -0.647 OA
ATOM     19  OE2 GLU D 570     -22.176  -6.114 -14.482  1.00 32.92    -0.647 OA
ENDBRANCH  16  17
ENDBRANCH  15  16
ENDBRANCH  14  15
END_RES GLU D 570
ENDMDL
MODEL 9
REMARK VINA RESULT:      -8.7      3.773      6.214
REMARK  6 active torsions:
REMARK  status: ('A' for Active; 'I' for Inactive)
REMARK    1  A    between atoms: C_2  and  O_4 
REMARK    2  A    between atoms: C_2  and  C_5 
REMARK    3  A    between atoms: C_10  and  C_11 
REMARK    4  A    between atoms: C_17  and  C_18 
REMARK    5  A    between atoms: C_19  and  C_20 
REMARK    6  A    between atoms: C_23  and  C_24 
ROOT
HETATM    1  C   UNL     1     -22.687 -13.072   0.446  1.00  0.00    -0.023 C 
HETATM    2  C   UNL     1     -21.398 -12.741   0.938  1.00  0.00     0.014 C 
HETATM    3  C   UNL     1     -20.754 -11.540   0.655  1.00  0.00     0.033 C 
HETATM    4  C   UNL     1     -21.323 -10.709  -0.298  1.00  0.00     0.060 A 
HETATM    5  N   UNL     1     -20.848  -9.524  -0.752  1.00  0.00    -0.341 N 
ATOM      6  HN  UNL     1     -20.028  -9.024  -0.409  1.00  0.00     0.167 HD
HETATM    7  C   UNL     1     -21.648  -9.144  -1.721  1.00  0.00     0.106 A 
HETATM    8  N   UNL     1     -22.678 -10.056  -1.872  1.00  0.00    -0.341 N 
HETATM    9  C   UNL     1     -22.510 -11.056  -0.920  1.00  0.00     0.061 A 
HETATM   10  C   UNL     1     -23.247 -12.199  -0.527  1.00  0.00     0.044 C 
HETATM   11  H   UNL     1     -23.400 -10.030  -2.573  1.00  0.00     0.167 HD
ENDROOT
BRANCH   7  12
HETATM   12  C   UNL     1     -21.510  -7.960  -2.500  1.00  0.00     0.049 C 
HETATM   13  C   UNL     1     -21.394  -8.167  -3.831  1.00  0.00     0.015 C 
BRANCH  13  14
HETATM   14  C   UNL     1     -21.190  -7.229  -4.933  1.00  0.00    -0.036 A 
HETATM   15  C   UNL     1     -22.217  -6.300  -5.172  1.00  0.00     0.012 A 
HETATM   16  C   UNL     1     -22.111  -5.348  -6.186  1.00  0.00     0.017 A 
HETATM   17  C   UNL     1     -20.960  -5.290  -6.978  1.00  0.00     0.048 A 
HETATM   18  C   UNL     1     -19.904  -6.176  -6.696  1.00  0.00     0.017 A 
HETATM   19  C   UNL     1     -20.016  -7.136  -5.680  1.00  0.00     0.012 A 
BRANCH  17  20
HETATM   20  C   UNL     1     -20.855  -4.307  -8.118  1.00  0.00     0.417 C 
HETATM   21  F   UNL     1     -20.825  -4.898  -9.347  1.00  0.00    -0.166 F 
HETATM   22  F   UNL     1     -21.892  -3.425  -8.153  1.00  0.00    -0.166 F 
HETATM   23  F   UNL     1     -19.723  -3.554  -8.043  1.00  0.00    -0.166 F 
ENDBRANCH  17  20
ENDBRANCH  13  14
ENDBRANCH   7  12
BRANCH   1  24
HETATM   24  C   UNL     1     -23.424 -14.206   1.128  1.00  0.00    -0.017 A 
HETATM   25  C   UNL     1     -24.058 -15.346   0.561  1.00  0.00    -0.014 A 
HETATM   26  C   UNL     1     -24.854 -16.165   1.429  1.00  0.00     0.011 A 
HETATM   27  C   UNL     1     -24.970 -15.958   2.802  1.00  0.00     0.001 A 
HETATM   28  C   UNL     1     -24.274 -14.924   3.375  1.00  0.00     0.001 A 
HETATM   29  C   UNL     1     -23.547 -14.068   2.552  1.00  0.00     0.013 A 
BRANCH  25  30
HETATM   30  C   UNL     1     -23.991 -15.838  -0.897  1.00  0.00     0.078 C 
HETATM   31  C   UNL     1     -24.727 -17.183  -1.023  1.00  0.00     0.051 C 
HETATM   32  C   UNL     1     -22.531 -15.989  -1.381  1.00  0.00     0.051 C 
BRANCH  30  33
HETATM   33  O   UNL     1     -24.574 -14.929  -1.827  1.00  0.00    -0.386 OA
HETATM   34  H   UNL     1     -25.428 -14.639  -1.471  1.00  0.00     0.211 HD
ENDBRANCH  30  33
ENDBRANCH  25  30
ENDBRANCH   1  24
TORSDOF 6
BEGIN_RES ARG D 557
REMARK  4 active torsions:
REMARK  status: ('A' for Active; 'I' for Inactive)
REMARK    1  A    between atoms: CA   and  CB  
REMARK    2  A    between atoms: CB   and  CG  
REMARK    3  A    between atoms: CG   and  CD  
REMARK    4  A    between atoms: CD   and  NE  
REMARK       I    between atoms: NE   and  CZ  
REMARK       I    between atoms: CZ   and  NH1 
REMARK       I    between atoms: CZ   and  NH2 
ROOT
ATOM      1  CA  ARG D 557     -26.217   2.705 -17.014  1.00 35.49     0.159 C 
ENDROOT
BRANCH   1   2
ATOM      2  CB  ARG D 557     -26.789   1.319 -17.183  1.00 35.49     0.034 C 
BRANCH   2   3
ATOM      3  CG  ARG D 557     -25.884   0.194 -16.917  1.00 35.49     0.027 C 
BRANCH   3   4
ATOM      4  CD  ARG D 557     -26.375  -0.679 -15.826  1.00 35.49     0.116 C 
BRANCH   4   5
ATOM      5  NE  ARG D 557     -25.364  -0.925 -14.832  1.00 35.49    -0.212 N 
ATOM      6  CZ  ARG D 557     -25.038  -2.101 -14.343  1.00 35.49     0.666 C 
ATOM      7  NH1 ARG D 557     -25.637  -3.216 -14.718  1.00 35.49    -0.235 N 
ATOM      8  NH2 ARG D 557     -24.081  -2.140 -13.462  1.00 35.49    -0.235 N 
ATOM      9  HH  ARG D 557     -26.269  -3.214 -15.298  1.00 35.49     0.174 HD
ATOM     10  HH  ARG D 557     -25.381  -3.954 -14.367  1.00 35.49     0.174 HD
ATOM     11  HH  ARG D 557     -23.706  -1.405 -13.245  1.00 35.49     0.174 HD
ATOM     12  HH  ARG D 557     -23.840  -2.881 -13.127  1.00 35.49     0.174 HD
ATOM     13  HE  ARG D 557     -24.977  -0.254 -14.481  1.00 35.49     0.178 HD
ENDBRANCH   4   5
ENDBRANCH   3   4
ENDBRANCH   2   3
ENDBRANCH   1   2
END_RES ARG D 557
BEGIN_RES GLU D 570
REMARK  3 active torsions:
REMARK  status: ('A' for Active; 'I' for Inactive)
REMARK    5  A    between atoms: CA   and  CB  
REMARK    6  A    between atoms: CB   and  CG  
REMARK    7  A    between atoms: CG   and  CD  
ROOT
ATOM     14  CA  GLU D 570     -18.033  -6.348 -13.375  1.00 32.92     0.160 C 
ENDROOT
BRANCH  14  15
ATOM     15  CB  GLU D 570     -19.500  -6.345 -13.794  1.00 32.92     0.043 C 
BRANCH  15  16
ATOM     16  CG  GLU D 570     -19.812  -5.952 -15.193  1.00 32.92     0.100 C 
BRANCH  16  17
ATOM     17  CD  GLU D 570     -21.278  -5.662 -15.410  1.00 32.92     0.185 C 
ATOM     18  OE1 GLU D 570     -21.607  -4.784 -16.231  1.00 32.92    -0.647 OA
ATOM     19  OE2 GLU D 570     -22.108  -6.309 -14.741  1.00 32.92    -0.647 OA
ENDBRANCH  16  17
ENDBRANCH  15  16
ENDBRANCH  14  15
END_RES GLU D 570
ENDMDL
