MODEL 1
REMARK VINA RESULT:      -8.0      0.000      0.000
REMARK  24 active torsions:
REMARK  status: ('A' for Active; 'I' for Inactive)
REMARK    1  A    between atoms: N_1  and  C_2 
REMARK    2  A    between atoms: C_2  and  C_3 
REMARK    3  A    between atoms: C_3  and  C_4 
REMARK    4  A    between atoms: C_4  and  N_5 
REMARK    5  A    between atoms: N_5  and  C_6 
REMARK    6  A    between atoms: C_6  and  C_7 
REMARK    7  A    between atoms: C_7  and  C_8 
REMARK    8  A    between atoms: C_8  and  C_9 
REMARK    9  A    between atoms: C_9  and  N_10 
REMARK   10  A    between atoms: N_10  and  C_11 
REMARK   11  A    between atoms: C_11  and  C_12 
REMARK   12  A    between atoms: C_12  and  C_13 
REMARK   13  A    between atoms: C_13  and  N_14 
REMARK   14  A    between atoms: N_14  and  C_15 
REMARK   15  A    between atoms: C_15  and  C_16 
REMARK   16  A    between atoms: C_16  and  C_17 
REMARK   17  A    between atoms: C_17  and  N_18 
REMARK   18  A    between atoms: N_18  and  O_19 
REMARK   19  A    between atoms: N_18  and  C_20 
REMARK   20  A    between atoms: C_20  and  C_21 
REMARK   21  A    between atoms: C_21  and  C_22 
REMARK   22  A    between atoms: C_22  and  N_23 
REMARK       I    between atoms: N_23  and  C_24 
REMARK   23  A    between atoms: C_24  and  C_26 
REMARK   24  A    between atoms: C_26  and  C_27 
ROOT
HETATM    1  C   UNL     1     -32.423  -5.266 -16.953  1.00  0.00     0.122 C 
ENDROOT
BRANCH   1   2
HETATM    2  C   UNL     1     -30.946  -5.619 -17.067  1.00  0.00     0.046 C 
BRANCH   2   3
HETATM    3  C   UNL     1     -30.818  -7.044 -17.574  1.00  0.00     0.270 C 
BRANCH   3   4
HETATM    4  N   UNL     1     -29.483  -7.528 -17.255  1.00  0.00     0.083 N 
HETATM    5  H   UNL     1     -29.538  -8.319 -16.616  1.00  0.00     0.315 HD
BRANCH   4   6
HETATM    6  C   UNL     1     -28.694  -6.456 -16.660  1.00  0.00     0.271 C 
BRANCH   6   7
HETATM    7  C   UNL     1     -27.677  -7.052 -15.697  1.00  0.00     0.060 C 
BRANCH   7   8
HETATM    8  C   UNL     1     -26.329  -6.394 -15.957  1.00  0.00     0.271 C 
BRANCH   8   9
HETATM    9  N   UNL     1     -25.322  -7.412 -16.192  1.00  0.00     0.083 N 
HETATM   10  H   UNL     1     -25.507  -8.241 -15.630  1.00  0.00     0.315 HD
BRANCH   9  11
HETATM   11  C   UNL     1     -23.990  -6.889 -15.920  1.00  0.00     0.269 C 
BRANCH  11  12
HETATM   12  C   UNL     1     -23.969  -6.267 -14.536  1.00  0.00     0.032 C 
BRANCH  12  13
HETATM   13  C   UNL     1     -22.901  -5.171 -14.415  1.00  0.00     0.032 C 
BRANCH  13  14
HETATM   14  C   UNL     1     -23.498  -3.838 -13.989  1.00  0.00     0.269 C 
BRANCH  14  15
HETATM   15  N   UNL     1     -22.455  -2.984 -13.431  1.00  0.00     0.083 N 
HETATM   16  H   UNL     1     -21.547  -3.322 -13.738  1.00  0.00     0.315 HD
BRANCH  15  17
HETATM   17  C   UNL     1     -22.507  -2.989 -11.981  1.00  0.00     0.271 C 
BRANCH  17  18
HETATM   18  C   UNL     1     -23.952  -3.016 -11.501  1.00  0.00     0.059 C 
BRANCH  18  19
HETATM   19  C   UNL     1     -24.074  -3.956 -10.308  1.00  0.00     0.268 C 
BRANCH  19  20
HETATM   20  N   UNL     1     -25.400  -3.836  -9.717  1.00  0.00     0.078 N 
HETATM   21  H   UNL     1     -25.902  -3.059 -10.139  1.00  0.00     0.312 HD
HETATM   22  H   UNL     1     -25.309  -3.665  -8.715  1.00  0.00     0.312 HD
ENDBRANCH  19  20
ENDBRANCH  18  19
ENDBRANCH  17  18
ENDBRANCH  15  17
ENDBRANCH  14  15
ENDBRANCH  13  14
ENDBRANCH  12  13
ENDBRANCH  11  12
ENDBRANCH   9  11
ENDBRANCH   8   9
ENDBRANCH   7   8
ENDBRANCH   6   7
ENDBRANCH   4   6
ENDBRANCH   3   4
ENDBRANCH   2   3
ENDBRANCH   1   2
BRANCH   1  23
HETATM   23  N   UNL     1     -32.604  -3.865 -16.555  1.00  0.00    -0.200 NA
BRANCH  23  24
HETATM   24  O   UNL     1     -32.298  -3.066 -17.733  1.00  0.00    -0.313 OA
HETATM   25  H   UNL     1     -31.547  -2.531 -17.406  1.00  0.00     0.237 HD
ENDBRANCH  23  24
BRANCH  23  26
HETATM   26  C   UNL     1     -34.017  -3.584 -16.251  1.00  0.00     0.122 C 
BRANCH  26  27
HETATM   27  C   UNL     1     -34.576  -2.389 -17.034  1.00  0.00     0.036 C 
BRANCH  27  28
HETATM   28  C   UNL     1     -35.467  -1.533 -16.151  1.00  0.00     0.123 C 
BRANCH  28  29
HETATM   29  N   UNL     1     -34.943  -1.426 -14.765  1.00  0.00    -0.361 N 
HETATM   30  C   UNL     1     -35.382  -0.446 -13.894  1.00  0.00     0.221 C 
HETATM   31  O   UNL     1     -36.239   0.372 -14.239  1.00  0.00    -0.273 OA
HETATM   32  H   UNL     1     -34.184  -2.029 -14.479  1.00  0.00     0.162 HD
BRANCH  30  33
HETATM   33  C   UNL     1     -34.807  -0.405 -12.450  1.00  0.00     0.143 C 
BRANCH  33  34
HETATM   34  C   UNL     1     -35.161  -1.670 -11.722  1.00  0.00    -0.022 A 
HETATM   35  C   UNL     1     -36.297  -1.833 -10.966  1.00  0.00     0.097 A 
HETATM   36  N   UNL     1     -36.395  -3.147 -10.572  1.00  0.00    -0.365 N 
HETATM   37  C   UNL     1     -35.255  -3.821 -10.951  1.00  0.00     0.042 A 
HETATM   38  H   UNL     1     -37.147  -3.546 -10.027  1.00  0.00     0.165 HD
HETATM   39  C   UNL     1     -34.799  -5.112 -10.656  1.00  0.00     0.030 A 
HETATM   40  C   UNL     1     -34.471  -2.903 -11.656  1.00  0.00    -0.001 A 
HETATM   41  C   UNL     1     -33.532  -5.457 -11.111  1.00  0.00     0.002 A 
HETATM   42  C   UNL     1     -32.757  -4.573 -11.833  1.00  0.00     0.001 A 
HETATM   43  C   UNL     1     -33.228  -3.312 -12.132  1.00  0.00     0.014 A 
ENDBRANCH  33  34
ENDBRANCH  30  33
ENDBRANCH  28  29
ENDBRANCH  27  28
ENDBRANCH  26  27
ENDBRANCH  23  26
ENDBRANCH   1  23
TORSDOF 24
BEGIN_RES ARG D 557
REMARK  4 active torsions:
REMARK  status: ('A' for Active; 'I' for Inactive)
REMARK    1  A    between atoms: CA   and  CB  
REMARK    2  A    between atoms: CB   and  CG  
REMARK    3  A    between atoms: CG   and  CD  
REMARK    4  A    between atoms: CD   and  NE  
REMARK       I    between atoms: NE   and  CZ  
REMARK       I    between atoms: CZ   and  NH1 
REMARK       I    between atoms: CZ   and  NH2 
ROOT
ATOM      1  CA  ARG D 557     -26.217   2.705 -17.014  1.00 35.49     0.159 C 
ENDROOT
BRANCH   1   2
ATOM      2  CB  ARG D 557     -26.789   1.319 -17.183  1.00 35.49     0.034 C 
BRANCH   2   3
ATOM      3  CG  ARG D 557     -28.232   1.226 -17.439  1.00 35.49     0.027 C 
BRANCH   3   4
ATOM      4  CD  ARG D 557     -28.910   0.291 -16.512  1.00 35.49     0.116 C 
BRANCH   4   5
ATOM      5  NE  ARG D 557     -28.101  -0.862 -16.217  1.00 35.49    -0.212 N 
ATOM      6  CZ  ARG D 557     -28.310  -2.081 -16.664  1.00 35.49     0.666 C 
ATOM      7  NH1 ARG D 557     -29.330  -2.385 -17.446  1.00 35.49    -0.235 N 
ATOM      8  NH2 ARG D 557     -27.462  -3.003 -16.312  1.00 35.49    -0.235 N 
ATOM      9  HH  ARG D 557     -29.899  -1.793 -17.691  1.00 35.49     0.174 HD
ATOM     10  HH  ARG D 557     -29.414  -3.196 -17.708  1.00 35.49     0.174 HD
ATOM     11  HH  ARG D 557     -26.809  -2.776 -15.812  1.00 35.49     0.174 HD
ATOM     12  HH  ARG D 557     -27.561  -3.800 -16.583  1.00 35.49     0.174 HD
ATOM     13  HE  ARG D 557     -27.464  -0.772 -15.662  1.00 35.49     0.178 HD
ENDBRANCH   4   5
ENDBRANCH   3   4
ENDBRANCH   2   3
ENDBRANCH   1   2
END_RES ARG D 557
BEGIN_RES GLU D 570
REMARK  3 active torsions:
REMARK  status: ('A' for Active; 'I' for Inactive)
REMARK    5  A    between atoms: CA   and  CB  
REMARK    6  A    between atoms: CB   and  CG  
REMARK    7  A    between atoms: CG   and  CD  
ROOT
ATOM     14  CA  GLU D 570     -18.033  -6.348 -13.375  1.00 32.92     0.160 C 
ENDROOT
BRANCH  14  15
ATOM     15  CB  GLU D 570     -19.500  -6.345 -13.794  1.00 32.92     0.043 C 
BRANCH  15  16
ATOM     16  CG  GLU D 570     -20.096  -7.641 -14.210  1.00 32.92     0.100 C 
BRANCH  16  17
ATOM     17  CD  GLU D 570     -20.461  -7.679 -15.675  1.00 32.92     0.185 C 
ATOM     18  OE1 GLU D 570     -20.776  -8.768 -16.193  1.00 32.92    -0.647 OA
ATOM     19  OE2 GLU D 570     -20.415  -6.611 -16.317  1.00 32.92    -0.647 OA
ENDBRANCH  16  17
ENDBRANCH  15  16
ENDBRANCH  14  15
END_RES GLU D 570
ENDMDL
MODEL 2
REMARK VINA RESULT:      -7.5      8.345     14.195
REMARK  24 active torsions:
REMARK  status: ('A' for Active; 'I' for Inactive)
REMARK    1  A    between atoms: N_1  and  C_2 
REMARK    2  A    between atoms: C_2  and  C_3 
REMARK    3  A    between atoms: C_3  and  C_4 
REMARK    4  A    between atoms: C_4  and  N_5 
REMARK    5  A    between atoms: N_5  and  C_6 
REMARK    6  A    between atoms: C_6  and  C_7 
REMARK    7  A    between atoms: C_7  and  C_8 
REMARK    8  A    between atoms: C_8  and  C_9 
REMARK    9  A    between atoms: C_9  and  N_10 
REMARK   10  A    between atoms: N_10  and  C_11 
REMARK   11  A    between atoms: C_11  and  C_12 
REMARK   12  A    between atoms: C_12  and  C_13 
REMARK   13  A    between atoms: C_13  and  N_14 
REMARK   14  A    between atoms: N_14  and  C_15 
REMARK   15  A    between atoms: C_15  and  C_16 
REMARK   16  A    between atoms: C_16  and  C_17 
REMARK   17  A    between atoms: C_17  and  N_18 
REMARK   18  A    between atoms: N_18  and  O_19 
REMARK   19  A    between atoms: N_18  and  C_20 
REMARK   20  A    between atoms: C_20  and  C_21 
REMARK   21  A    between atoms: C_21  and  C_22 
REMARK   22  A    between atoms: C_22  and  N_23 
REMARK       I    between atoms: N_23  and  C_24 
REMARK   23  A    between atoms: C_24  and  C_26 
REMARK   24  A    between atoms: C_26  and  C_27 
ROOT
HETATM    1  C   UNL     1     -22.109  -7.288  -0.262  1.00  0.00     0.122 C 
ENDROOT
BRANCH   1   2
HETATM    2  C   UNL     1     -23.232  -8.163   0.278  1.00  0.00     0.046 C 
BRANCH   2   3
HETATM    3  C   UNL     1     -22.944  -9.610  -0.077  1.00  0.00     0.270 C 
BRANCH   3   4
HETATM    4  N   UNL     1     -21.519  -9.851   0.091  1.00  0.00     0.083 N 
HETATM    5  H   UNL     1     -20.992  -9.374  -0.639  1.00  0.00     0.315 HD
BRANCH   4   6
HETATM    6  C   UNL     1     -21.247 -11.283   0.051  1.00  0.00     0.271 C 
BRANCH   6   7
HETATM    7  C   UNL     1     -20.456 -11.613  -1.207  1.00  0.00     0.060 C 
BRANCH   7   8
HETATM    8  C   UNL     1     -18.984 -11.339  -0.932  1.00  0.00     0.271 C 
BRANCH   8   9
HETATM    9  N   UNL     1     -18.214 -11.521  -2.149  1.00  0.00     0.083 N 
HETATM   10  H   UNL     1     -18.173 -12.505  -2.408  1.00  0.00     0.315 HD
BRANCH   9  11
HETATM   11  C   UNL     1     -16.875 -10.970  -1.997  1.00  0.00     0.269 C 
BRANCH  11  12
HETATM   12  C   UNL     1     -16.768  -9.684  -2.796  1.00  0.00     0.032 C 
BRANCH  12  13
HETATM   13  C   UNL     1     -16.542  -9.953  -4.290  1.00  0.00     0.032 C 
BRANCH  13  14
HETATM   14  C   UNL     1     -15.474 -11.011  -4.524  1.00  0.00     0.269 C 
BRANCH  14  15
HETATM   15  N   UNL     1     -16.060 -12.167  -5.195  1.00  0.00     0.083 N 
HETATM   16  H   UNL     1     -15.374 -12.916  -5.231  1.00  0.00     0.315 HD
BRANCH  15  17
HETATM   17  C   UNL     1     -16.471 -11.824  -6.543  1.00  0.00     0.271 C 
BRANCH  17  18
HETATM   18  C   UNL     1     -17.407 -12.888  -7.100  1.00  0.00     0.059 C 
BRANCH  18  19
HETATM   19  C   UNL     1     -18.640 -12.220  -7.697  1.00  0.00     0.268 C 
BRANCH  19  20
HETATM   20  N   UNL     1     -19.129 -11.187  -6.795  1.00  0.00     0.078 N 
HETATM   21  H   UNL     1     -20.146 -11.173  -6.798  1.00  0.00     0.312 HD
HETATM   22  H   UNL     1     -18.786 -10.277  -7.104  1.00  0.00     0.312 HD
ENDBRANCH  19  20
ENDBRANCH  18  19
ENDBRANCH  17  18
ENDBRANCH  15  17
ENDBRANCH  14  15
ENDBRANCH  13  14
ENDBRANCH  12  13
ENDBRANCH  11  12
ENDBRANCH   9  11
ENDBRANCH   8   9
ENDBRANCH   7   8
ENDBRANCH   6   7
ENDBRANCH   4   6
ENDBRANCH   3   4
ENDBRANCH   2   3
ENDBRANCH   1   2
BRANCH   1  23
HETATM   23  N   UNL     1     -22.136  -7.236  -1.728  1.00  0.00    -0.200 NA
BRANCH  23  24
HETATM   24  O   UNL     1     -22.588  -5.896  -2.078  1.00  0.00    -0.313 OA
HETATM   25  H   UNL     1     -21.866  -5.605  -2.671  1.00  0.00     0.237 HD
ENDBRANCH  23  24
BRANCH  23  26
HETATM   26  C   UNL     1     -20.777  -7.345  -2.284  1.00  0.00     0.122 C 
BRANCH  26  27
HETATM   27  C   UNL     1     -20.600  -8.558  -3.208  1.00  0.00     0.036 C 
BRANCH  27  28
HETATM   28  C   UNL     1     -21.187  -8.281  -4.581  1.00  0.00     0.123 C 
BRANCH  28  29
HETATM   29  N   UNL     1     -21.255  -6.827  -4.877  1.00  0.00    -0.361 N 
HETATM   30  C   UNL     1     -20.566  -6.266  -5.937  1.00  0.00     0.221 C 
HETATM   31  O   UNL     1     -19.875  -6.963  -6.684  1.00  0.00    -0.273 OA
HETATM   32  H   UNL     1     -21.746  -6.218  -4.236  1.00  0.00     0.162 HD
BRANCH  30  33
HETATM   33  C   UNL     1     -20.700  -4.740  -6.202  1.00  0.00     0.143 C 
BRANCH  33  34
HETATM   34  C   UNL     1     -21.699  -4.496  -7.297  1.00  0.00    -0.022 A 
HETATM   35  C   UNL     1     -23.059  -4.460  -7.105  1.00  0.00     0.097 A 
HETATM   36  N   UNL     1     -23.671  -4.062  -8.271  1.00  0.00    -0.365 N 
HETATM   37  C   UNL     1     -22.727  -3.967  -9.270  1.00  0.00     0.042 A 
HETATM   38  H   UNL     1     -24.664  -3.928  -8.401  1.00  0.00     0.165 HD
HETATM   39  C   UNL     1     -22.854  -3.758 -10.649  1.00  0.00     0.030 A 
HETATM   40  C   UNL     1     -21.494  -4.251  -8.674  1.00  0.00    -0.001 A 
HETATM   41  C   UNL     1     -21.693  -3.826 -11.410  1.00  0.00     0.002 A 
HETATM   42  C   UNL     1     -20.464  -4.077 -10.835  1.00  0.00     0.001 A 
HETATM   43  C   UNL     1     -20.354  -4.262  -9.473  1.00  0.00     0.014 A 
ENDBRANCH  33  34
ENDBRANCH  30  33
ENDBRANCH  28  29
ENDBRANCH  27  28
ENDBRANCH  26  27
ENDBRANCH  23  26
ENDBRANCH   1  23
TORSDOF 24
BEGIN_RES ARG D 557
REMARK  4 active torsions:
REMARK  status: ('A' for Active; 'I' for Inactive)
REMARK    1  A    between atoms: CA   and  CB  
REMARK    2  A    between atoms: CB   and  CG  
REMARK    3  A    between atoms: CG   and  CD  
REMARK    4  A    between atoms: CD   and  NE  
REMARK       I    between atoms: NE   and  CZ  
REMARK       I    between atoms: CZ   and  NH1 
REMARK       I    between atoms: CZ   and  NH2 
ROOT
ATOM      1  CA  ARG D 557     -26.217   2.705 -17.014  1.00 35.49     0.159 C 
ENDROOT
BRANCH   1   2
ATOM      2  CB  ARG D 557     -26.789   1.319 -17.183  1.00 35.49     0.034 C 
BRANCH   2   3
ATOM      3  CG  ARG D 557     -25.835   0.204 -17.163  1.00 35.49     0.027 C 
BRANCH   3   4
ATOM      4  CD  ARG D 557     -24.739   0.416 -16.190  1.00 35.49     0.116 C 
BRANCH   4   5
ATOM      5  NE  ARG D 557     -24.868  -0.433 -15.035  1.00 35.49    -0.212 N 
ATOM      6  CZ  ARG D 557     -24.039  -1.392 -14.690  1.00 35.49     0.666 C 
ATOM      7  NH1 ARG D 557     -22.970  -1.696 -15.404  1.00 35.49    -0.235 N 
ATOM      8  NH2 ARG D 557     -24.300  -2.048 -13.597  1.00 35.49    -0.235 N 
ATOM      9  HH  ARG D 557     -22.778  -1.277 -16.125  1.00 35.49     0.174 HD
ATOM     10  HH  ARG D 557     -22.464  -2.331 -15.128  1.00 35.49     0.174 HD
ATOM     11  HH  ARG D 557     -24.993  -1.825 -13.152  1.00 35.49     0.174 HD
ATOM     12  HH  ARG D 557     -23.786  -2.671 -13.340  1.00 35.49     0.174 HD
ATOM     13  HE  ARG D 557     -25.567  -0.354 -14.558  1.00 35.49     0.178 HD
ENDBRANCH   4   5
ENDBRANCH   3   4
ENDBRANCH   2   3
ENDBRANCH   1   2
END_RES ARG D 557
BEGIN_RES GLU D 570
REMARK  3 active torsions:
REMARK  status: ('A' for Active; 'I' for Inactive)
REMARK    5  A    between atoms: CA   and  CB  
REMARK    6  A    between atoms: CB   and  CG  
REMARK    7  A    between atoms: CG   and  CD  
ROOT
ATOM     14  CA  GLU D 570     -18.033  -6.348 -13.375  1.00 32.92     0.160 C 
ENDROOT
BRANCH  14  15
ATOM     15  CB  GLU D 570     -19.500  -6.345 -13.794  1.00 32.92     0.043 C 
BRANCH  15  16
ATOM     16  CG  GLU D 570     -19.818  -5.882 -15.169  1.00 32.92     0.100 C 
BRANCH  16  17
ATOM     17  CD  GLU D 570     -21.285  -5.578 -15.364  1.00 32.92     0.185 C 
ATOM     18  OE1 GLU D 570     -22.132  -6.396 -14.956  1.00 32.92    -0.647 OA
ATOM     19  OE2 GLU D 570     -21.591  -4.518 -15.946  1.00 32.92    -0.647 OA
ENDBRANCH  16  17
ENDBRANCH  15  16
ENDBRANCH  14  15
END_RES GLU D 570
ENDMDL
MODEL 3
REMARK VINA RESULT:      -7.4      8.358     14.131
REMARK  24 active torsions:
REMARK  status: ('A' for Active; 'I' for Inactive)
REMARK    1  A    between atoms: N_1  and  C_2 
REMARK    2  A    between atoms: C_2  and  C_3 
REMARK    3  A    between atoms: C_3  and  C_4 
REMARK    4  A    between atoms: C_4  and  N_5 
REMARK    5  A    between atoms: N_5  and  C_6 
REMARK    6  A    between atoms: C_6  and  C_7 
REMARK    7  A    between atoms: C_7  and  C_8 
REMARK    8  A    between atoms: C_8  and  C_9 
REMARK    9  A    between atoms: C_9  and  N_10 
REMARK   10  A    between atoms: N_10  and  C_11 
REMARK   11  A    between atoms: C_11  and  C_12 
REMARK   12  A    between atoms: C_12  and  C_13 
REMARK   13  A    between atoms: C_13  and  N_14 
REMARK   14  A    between atoms: N_14  and  C_15 
REMARK   15  A    between atoms: C_15  and  C_16 
REMARK   16  A    between atoms: C_16  and  C_17 
REMARK   17  A    between atoms: C_17  and  N_18 
REMARK   18  A    between atoms: N_18  and  O_19 
REMARK   19  A    between atoms: N_18  and  C_20 
REMARK   20  A    between atoms: C_20  and  C_21 
REMARK   21  A    between atoms: C_21  and  C_22 
REMARK   22  A    between atoms: C_22  and  N_23 
REMARK       I    between atoms: N_23  and  C_24 
REMARK   23  A    between atoms: C_24  and  C_26 
REMARK   24  A    between atoms: C_26  and  C_27 
ROOT
HETATM    1  C   UNL     1     -22.343  -7.212  -0.274  1.00  0.00     0.122 C 
ENDROOT
BRANCH   1   2
HETATM    2  C   UNL     1     -21.792  -8.517   0.284  1.00  0.00     0.046 C 
BRANCH   2   3
HETATM    3  C   UNL     1     -22.687  -9.660  -0.161  1.00  0.00     0.270 C 
BRANCH   3   4
HETATM    4  N   UNL     1     -21.878 -10.865  -0.260  1.00  0.00     0.083 N 
HETATM    5  H   UNL     1     -22.366 -11.654   0.162  1.00  0.00     0.315 HD
BRANCH   4   6
HETATM    6  C   UNL     1     -20.594 -10.660   0.400  1.00  0.00     0.271 C 
BRANCH   6   7
HETATM    7  C   UNL     1     -19.580 -11.655  -0.146  1.00  0.00     0.060 C 
BRANCH   7   8
HETATM    8  C   UNL     1     -19.353 -11.347  -1.620  1.00  0.00     0.271 C 
BRANCH   8   9
HETATM    9  N   UNL     1     -18.114 -11.956  -2.065  1.00  0.00     0.083 N 
HETATM   10  H   UNL     1     -17.969 -12.856  -1.610  1.00  0.00     0.315 HD
BRANCH   9  11
HETATM   11  C   UNL     1     -16.987 -11.067  -1.822  1.00  0.00     0.269 C 
BRANCH  11  12
HETATM   12  C   UNL     1     -17.116  -9.840  -2.707  1.00  0.00     0.032 C 
BRANCH  12  13
HETATM   13  C   UNL     1     -16.014  -9.784  -3.774  1.00  0.00     0.032 C 
BRANCH  13  14
HETATM   14  C   UNL     1     -16.579  -9.885  -5.183  1.00  0.00     0.269 C 
BRANCH  14  15
HETATM   15  N   UNL     1     -15.872 -10.921  -5.927  1.00  0.00     0.083 N 
HETATM   16  H   UNL     1     -16.129 -10.862  -6.909  1.00  0.00     0.315 HD
BRANCH  15  17
HETATM   17  C   UNL     1     -16.209 -12.238  -5.420  1.00  0.00     0.271 C 
BRANCH  17  18
HETATM   18  C   UNL     1     -17.681 -12.542  -5.665  1.00  0.00     0.059 C 
BRANCH  18  19
HETATM   19  C   UNL     1     -17.929 -12.683  -7.162  1.00  0.00     0.268 C 
BRANCH  19  20
HETATM   20  N   UNL     1     -18.928 -11.714  -7.591  1.00  0.00     0.078 N 
HETATM   21  H   UNL     1     -18.476 -10.918  -8.034  1.00  0.00     0.312 HD
HETATM   22  H   UNL     1     -19.453 -11.387  -6.780  1.00  0.00     0.312 HD
ENDBRANCH  19  20
ENDBRANCH  18  19
ENDBRANCH  17  18
ENDBRANCH  15  17
ENDBRANCH  14  15
ENDBRANCH  13  14
ENDBRANCH  12  13
ENDBRANCH  11  12
ENDBRANCH   9  11
ENDBRANCH   8   9
ENDBRANCH   7   8
ENDBRANCH   6   7
ENDBRANCH   4   6
ENDBRANCH   3   4
ENDBRANCH   2   3
ENDBRANCH   1   2
BRANCH   1  23
HETATM   23  N   UNL     1     -22.247  -7.178  -1.737  1.00  0.00    -0.200 NA
BRANCH  23  24
HETATM   24  O   UNL     1     -22.600  -5.822  -2.136  1.00  0.00    -0.313 OA
HETATM   25  H   UNL     1     -22.372  -5.324  -1.325  1.00  0.00     0.237 HD
ENDBRANCH  23  24
BRANCH  23  26
HETATM   26  C   UNL     1     -20.854  -7.363  -2.178  1.00  0.00     0.122 C 
BRANCH  26  27
HETATM   27  C   UNL     1     -20.700  -8.455  -3.244  1.00  0.00     0.036 C 
BRANCH  27  28
HETATM   28  C   UNL     1     -21.552  -8.144  -4.463  1.00  0.00     0.123 C 
BRANCH  28  29
HETATM   29  N   UNL     1     -21.485  -6.708  -4.840  1.00  0.00    -0.361 N 
HETATM   30  C   UNL     1     -20.677  -6.262  -5.869  1.00  0.00     0.221 C 
HETATM   31  O   UNL     1     -19.986  -7.051  -6.521  1.00  0.00    -0.273 OA
HETATM   32  H   UNL     1     -21.975  -6.029  -4.274  1.00  0.00     0.162 HD
BRANCH  30  33
HETATM   33  C   UNL     1     -20.672  -4.748  -6.225  1.00  0.00     0.143 C 
BRANCH  33  34
HETATM   34  C   UNL     1     -21.689  -4.471  -7.295  1.00  0.00    -0.022 A 
HETATM   35  C   UNL     1     -23.047  -4.472  -7.086  1.00  0.00     0.097 A 
HETATM   36  N   UNL     1     -23.680  -4.028  -8.224  1.00  0.00    -0.365 N 
HETATM   37  C   UNL     1     -22.751  -3.865  -9.228  1.00  0.00     0.042 A 
HETATM   38  H   UNL     1     -24.678  -3.908  -8.335  1.00  0.00     0.165 HD
HETATM   39  C   UNL     1     -22.899  -3.590 -10.593  1.00  0.00     0.030 A 
HETATM   40  C   UNL     1     -21.506  -4.154  -8.661  1.00  0.00    -0.001 A 
HETATM   41  C   UNL     1     -21.746  -3.598 -11.369  1.00  0.00     0.002 A 
HETATM   42  C   UNL     1     -20.506  -3.853 -10.822  1.00  0.00     0.001 A 
HETATM   43  C   UNL     1     -20.375  -4.102  -9.472  1.00  0.00     0.014 A 
ENDBRANCH  33  34
ENDBRANCH  30  33
ENDBRANCH  28  29
ENDBRANCH  27  28
ENDBRANCH  26  27
ENDBRANCH  23  26
ENDBRANCH   1  23
TORSDOF 24
BEGIN_RES ARG D 557
REMARK  4 active torsions:
REMARK  status: ('A' for Active; 'I' for Inactive)
REMARK    1  A    between atoms: CA   and  CB  
REMARK    2  A    between atoms: CB   and  CG  
REMARK    3  A    between atoms: CG   and  CD  
REMARK    4  A    between atoms: CD   and  NE  
REMARK       I    between atoms: NE   and  CZ  
REMARK       I    between atoms: CZ   and  NH1 
REMARK       I    between atoms: CZ   and  NH2 
ROOT
ATOM      1  CA  ARG D 557     -26.217   2.705 -17.014  1.00 35.49     0.159 C 
ENDROOT
BRANCH   1   2
ATOM      2  CB  ARG D 557     -26.789   1.319 -17.183  1.00 35.49     0.034 C 
BRANCH   2   3
ATOM      3  CG  ARG D 557     -28.231   1.226 -17.443  1.00 35.49     0.027 C 
BRANCH   3   4
ATOM      4  CD  ARG D 557     -28.914   0.299 -16.512  1.00 35.49     0.116 C 
BRANCH   4   5
ATOM      5  NE  ARG D 557     -29.301  -0.928 -17.156  1.00 35.49    -0.212 N 
ATOM      6  CZ  ARG D 557     -28.682  -2.082 -17.047  1.00 35.49     0.666 C 
ATOM      7  NH1 ARG D 557     -27.592  -2.236 -16.318  1.00 35.49    -0.235 N 
ATOM      8  NH2 ARG D 557     -29.187  -3.097 -17.686  1.00 35.49    -0.235 N 
ATOM      9  HH  ARG D 557     -27.244  -1.582 -15.888  1.00 35.49     0.174 HD
ATOM     10  HH  ARG D 557     -27.233  -3.013 -16.282  1.00 35.49     0.174 HD
ATOM     11  HH  ARG D 557     -29.896  -2.970 -18.143  1.00 35.49     0.174 HD
ATOM     12  HH  ARG D 557     -28.818  -3.859 -17.636  1.00 35.49     0.174 HD
ATOM     13  HE  ARG D 557     -29.952  -0.904 -17.703  1.00 35.49     0.178 HD
ENDBRANCH   4   5
ENDBRANCH   3   4
ENDBRANCH   2   3
ENDBRANCH   1   2
END_RES ARG D 557
BEGIN_RES GLU D 570
REMARK  3 active torsions:
REMARK  status: ('A' for Active; 'I' for Inactive)
REMARK    5  A    between atoms: CA   and  CB  
REMARK    6  A    between atoms: CB   and  CG  
REMARK    7  A    between atoms: CG   and  CD  
ROOT
ATOM     14  CA  GLU D 570     -18.033  -6.348 -13.375  1.00 32.92     0.160 C 
ENDROOT
BRANCH  14  15
ATOM     15  CB  GLU D 570     -19.500  -6.345 -13.794  1.00 32.92     0.043 C 
BRANCH  15  16
ATOM     16  CG  GLU D 570     -19.799  -6.176 -15.240  1.00 32.92     0.100 C 
BRANCH  16  17
ATOM     17  CD  GLU D 570     -21.069  -5.397 -15.492  1.00 32.92     0.185 C 
ATOM     18  OE1 GLU D 570     -21.720  -4.970 -14.519  1.00 32.92    -0.647 OA
ATOM     19  OE2 GLU D 570     -21.425  -5.226 -16.674  1.00 32.92    -0.647 OA
ENDBRANCH  16  17
ENDBRANCH  15  16
ENDBRANCH  14  15
END_RES GLU D 570
ENDMDL
MODEL 4
REMARK VINA RESULT:      -7.3      8.081     13.831
REMARK  24 active torsions:
REMARK  status: ('A' for Active; 'I' for Inactive)
REMARK    1  A    between atoms: N_1  and  C_2 
REMARK    2  A    between atoms: C_2  and  C_3 
REMARK    3  A    between atoms: C_3  and  C_4 
REMARK    4  A    between atoms: C_4  and  N_5 
REMARK    5  A    between atoms: N_5  and  C_6 
REMARK    6  A    between atoms: C_6  and  C_7 
REMARK    7  A    between atoms: C_7  and  C_8 
REMARK    8  A    between atoms: C_8  and  C_9 
REMARK    9  A    between atoms: C_9  and  N_10 
REMARK   10  A    between atoms: N_10  and  C_11 
REMARK   11  A    between atoms: C_11  and  C_12 
REMARK   12  A    between atoms: C_12  and  C_13 
REMARK   13  A    between atoms: C_13  and  N_14 
REMARK   14  A    between atoms: N_14  and  C_15 
REMARK   15  A    between atoms: C_15  and  C_16 
REMARK   16  A    between atoms: C_16  and  C_17 
REMARK   17  A    between atoms: C_17  and  N_18 
REMARK   18  A    between atoms: N_18  and  O_19 
REMARK   19  A    between atoms: N_18  and  C_20 
REMARK   20  A    between atoms: C_20  and  C_21 
REMARK   21  A    between atoms: C_21  and  C_22 
REMARK   22  A    between atoms: C_22  and  N_23 
REMARK       I    between atoms: N_23  and  C_24 
REMARK   23  A    between atoms: C_24  and  C_26 
REMARK   24  A    between atoms: C_26  and  C_27 
ROOT
HETATM    1  C   UNL     1     -22.103  -7.191  -0.335  1.00  0.00     0.122 C 
ENDROOT
BRANCH   1   2
HETATM    2  C   UNL     1     -23.192  -8.078   0.253  1.00  0.00     0.046 C 
BRANCH   2   3
HETATM    3  C   UNL     1     -22.867  -9.528  -0.059  1.00  0.00     0.270 C 
BRANCH   3   4
HETATM    4  N   UNL     1     -21.451  -9.747   0.191  1.00  0.00     0.083 N 
HETATM    5  H   UNL     1     -20.899  -9.431  -0.605  1.00  0.00     0.315 HD
BRANCH   4   6
HETATM    6  C   UNL     1     -21.202 -11.162   0.442  1.00  0.00     0.271 C 
BRANCH   6   7
HETATM    7  C   UNL     1     -22.099 -12.001  -0.457  1.00  0.00     0.060 C 
BRANCH   7   8
HETATM    8  C   UNL     1     -21.243 -13.067  -1.126  1.00  0.00     0.271 C 
BRANCH   8   9
HETATM    9  N   UNL     1     -21.606 -13.181  -2.526  1.00  0.00     0.083 N 
HETATM   10  H   UNL     1     -20.778 -13.150  -3.119  1.00  0.00     0.315 HD
BRANCH   9  11
HETATM   11  C   UNL     1     -22.549 -12.138  -2.901  1.00  0.00     0.269 C 
BRANCH  11  12
HETATM   12  C   UNL     1     -22.445 -11.879  -4.393  1.00  0.00     0.032 C 
BRANCH  12  13
HETATM   13  C   UNL     1     -21.000 -12.000  -4.897  1.00  0.00     0.032 C 
BRANCH  13  14
HETATM   14  C   UNL     1     -20.909 -11.847  -6.408  1.00  0.00     0.269 C 
BRANCH  14  15
HETATM   15  N   UNL     1     -19.665 -11.173  -6.764  1.00  0.00     0.083 N 
HETATM   16  H   UNL     1     -19.165 -11.734  -7.449  1.00  0.00     0.315 HD
BRANCH  15  17
HETATM   17  C   UNL     1     -18.829 -10.986  -5.593  1.00  0.00     0.271 C 
BRANCH  17  18
HETATM   18  C   UNL     1     -17.939  -9.763  -5.765  1.00  0.00     0.059 C 
BRANCH  18  19
HETATM   19  C   UNL     1     -16.490 -10.144  -5.488  1.00  0.00     0.268 C 
BRANCH  19  20
HETATM   20  N   UNL     1     -16.133  -9.779  -4.124  1.00  0.00     0.078 N 
HETATM   21  H   UNL     1     -16.798 -10.183  -3.468  1.00  0.00     0.312 HD
HETATM   22  H   UNL     1     -16.152  -8.764  -4.029  1.00  0.00     0.312 HD
ENDBRANCH  19  20
ENDBRANCH  18  19
ENDBRANCH  17  18
ENDBRANCH  15  17
ENDBRANCH  14  15
ENDBRANCH  13  14
ENDBRANCH  12  13
ENDBRANCH  11  12
ENDBRANCH   9  11
ENDBRANCH   8   9
ENDBRANCH   7   8
ENDBRANCH   6   7
ENDBRANCH   4   6
ENDBRANCH   3   4
ENDBRANCH   2   3
ENDBRANCH   1   2
BRANCH   1  23
HETATM   23  N   UNL     1     -22.180  -7.156  -1.799  1.00  0.00    -0.200 NA
BRANCH  23  24
HETATM   24  O   UNL     1     -22.583  -5.802  -2.153  1.00  0.00    -0.313 OA
HETATM   25  H   UNL     1     -23.145  -5.972  -2.935  1.00  0.00     0.237 HD
ENDBRANCH  23  24
BRANCH  23  26
HETATM   26  C   UNL     1     -20.847  -7.334  -2.400  1.00  0.00     0.122 C 
BRANCH  26  27
HETATM   27  C   UNL     1     -20.754  -8.572  -3.303  1.00  0.00     0.036 C 
BRANCH  27  28
HETATM   28  C   UNL     1     -21.351  -8.288  -4.670  1.00  0.00     0.123 C 
BRANCH  28  29
HETATM   29  N   UNL     1     -21.395  -6.834  -4.971  1.00  0.00    -0.361 N 
HETATM   30  C   UNL     1     -20.605  -6.269  -5.955  1.00  0.00     0.221 C 
HETATM   31  O   UNL     1     -19.838  -6.962  -6.628  1.00  0.00    -0.273 OA
HETATM   32  H   UNL     1     -21.952  -6.228  -4.383  1.00  0.00     0.162 HD
BRANCH  30  33
HETATM   33  C   UNL     1     -20.718  -4.743  -6.232  1.00  0.00     0.143 C 
BRANCH  33  34
HETATM   34  C   UNL     1     -21.720  -4.493  -7.322  1.00  0.00    -0.022 A 
HETATM   35  C   UNL     1     -23.079  -4.449  -7.124  1.00  0.00     0.097 A 
HETATM   36  N   UNL     1     -23.693  -4.047  -8.288  1.00  0.00    -0.365 N 
HETATM   37  C   UNL     1     -22.754  -3.958  -9.291  1.00  0.00     0.042 A 
HETATM   38  H   UNL     1     -24.686  -3.907  -8.413  1.00  0.00     0.165 HD
HETATM   39  C   UNL     1     -22.885  -3.748 -10.669  1.00  0.00     0.030 A 
HETATM   40  C   UNL     1     -21.520  -4.250  -8.700  1.00  0.00    -0.001 A 
HETATM   41  C   UNL     1     -21.727  -3.824 -11.435  1.00  0.00     0.002 A 
HETATM   42  C   UNL     1     -20.498  -4.083 -10.866  1.00  0.00     0.001 A 
HETATM   43  C   UNL     1     -20.383  -4.268  -9.504  1.00  0.00     0.014 A 
ENDBRANCH  33  34
ENDBRANCH  30  33
ENDBRANCH  28  29
ENDBRANCH  27  28
ENDBRANCH  26  27
ENDBRANCH  23  26
ENDBRANCH   1  23
TORSDOF 24
BEGIN_RES ARG D 557
REMARK  4 active torsions:
REMARK  status: ('A' for Active; 'I' for Inactive)
REMARK    1  A    between atoms: CA   and  CB  
REMARK    2  A    between atoms: CB   and  CG  
REMARK    3  A    between atoms: CG   and  CD  
REMARK    4  A    between atoms: CD   and  NE  
REMARK       I    between atoms: NE   and  CZ  
REMARK       I    between atoms: CZ   and  NH1 
REMARK       I    between atoms: CZ   and  NH2 
ROOT
ATOM      1  CA  ARG D 557     -26.217   2.705 -17.014  1.00 35.49     0.159 C 
ENDROOT
BRANCH   1   2
ATOM      2  CB  ARG D 557     -26.789   1.319 -17.183  1.00 35.49     0.034 C 
BRANCH   2   3
ATOM      3  CG  ARG D 557     -25.927   0.196 -16.794  1.00 35.49     0.027 C 
BRANCH   3   4
ATOM      4  CD  ARG D 557     -26.668  -0.858 -16.064  1.00 35.49     0.116 C 
BRANCH   4   5
ATOM      5  NE  ARG D 557     -25.911  -1.387 -14.961  1.00 35.49    -0.212 N 
ATOM      6  CZ  ARG D 557     -25.863  -2.649 -14.598  1.00 35.49     0.666 C 
ATOM      7  NH1 ARG D 557     -26.540  -3.594 -15.224  1.00 35.49    -0.235 N 
ATOM      8  NH2 ARG D 557     -25.106  -2.954 -13.583  1.00 35.49    -0.235 N 
ATOM      9  HH  ARG D 557     -27.043  -3.416 -15.895  1.00 35.49     0.174 HD
ATOM     10  HH  ARG D 557     -26.468  -4.400 -14.944  1.00 35.49     0.174 HD
ATOM     11  HH  ARG D 557     -24.674  -2.324 -13.203  1.00 35.49     0.174 HD
ATOM     12  HH  ARG D 557     -25.046  -3.758 -13.322  1.00 35.49     0.174 HD
ATOM     13  HE  ARG D 557     -25.502  -0.838 -14.457  1.00 35.49     0.178 HD
ENDBRANCH   4   5
ENDBRANCH   3   4
ENDBRANCH   2   3
ENDBRANCH   1   2
END_RES ARG D 557
BEGIN_RES GLU D 570
REMARK  3 active torsions:
REMARK  status: ('A' for Active; 'I' for Inactive)
REMARK    5  A    between atoms: CA   and  CB  
REMARK    6  A    between atoms: CB   and  CG  
REMARK    7  A    between atoms: CG   and  CD  
ROOT
ATOM     14  CA  GLU D 570     -18.033  -6.348 -13.375  1.00 32.92     0.160 C 
ENDROOT
BRANCH  14  15
ATOM     15  CB  GLU D 570     -19.500  -6.345 -13.794  1.00 32.92     0.043 C 
BRANCH  15  16
ATOM     16  CG  GLU D 570     -20.097  -7.642 -14.206  1.00 32.92     0.100 C 
BRANCH  16  17
ATOM     17  CD  GLU D 570     -20.719  -7.594 -15.582  1.00 32.92     0.185 C 
ATOM     18  OE1 GLU D 570     -21.004  -8.663 -16.155  1.00 32.92    -0.647 OA
ATOM     19  OE2 GLU D 570     -20.907  -6.475 -16.100  1.00 32.92    -0.647 OA
ENDBRANCH  16  17
ENDBRANCH  15  16
ENDBRANCH  14  15
END_RES GLU D 570
ENDMDL
MODEL 5
REMARK VINA RESULT:      -7.2      8.724     14.339
REMARK  24 active torsions:
REMARK  status: ('A' for Active; 'I' for Inactive)
REMARK    1  A    between atoms: N_1  and  C_2 
REMARK    2  A    between atoms: C_2  and  C_3 
REMARK    3  A    between atoms: C_3  and  C_4 
REMARK    4  A    between atoms: C_4  and  N_5 
REMARK    5  A    between atoms: N_5  and  C_6 
REMARK    6  A    between atoms: C_6  and  C_7 
REMARK    7  A    between atoms: C_7  and  C_8 
REMARK    8  A    between atoms: C_8  and  C_9 
REMARK    9  A    between atoms: C_9  and  N_10 
REMARK   10  A    between atoms: N_10  and  C_11 
REMARK   11  A    between atoms: C_11  and  C_12 
REMARK   12  A    between atoms: C_12  and  C_13 
REMARK   13  A    between atoms: C_13  and  N_14 
REMARK   14  A    between atoms: N_14  and  C_15 
REMARK   15  A    between atoms: C_15  and  C_16 
REMARK   16  A    between atoms: C_16  and  C_17 
REMARK   17  A    between atoms: C_17  and  N_18 
REMARK   18  A    between atoms: N_18  and  O_19 
REMARK   19  A    between atoms: N_18  and  C_20 
REMARK   20  A    between atoms: C_20  and  C_21 
REMARK   21  A    between atoms: C_21  and  C_22 
REMARK   22  A    between atoms: C_22  and  N_23 
REMARK       I    between atoms: N_23  and  C_24 
REMARK   23  A    between atoms: C_24  and  C_26 
REMARK   24  A    between atoms: C_26  and  C_27 
ROOT
HETATM    1  C   UNL     1     -22.080  -7.371  -0.301  1.00  0.00     0.122 C 
ENDROOT
BRANCH   1   2
HETATM    2  C   UNL     1     -23.097  -8.388   0.199  1.00  0.00     0.046 C 
BRANCH   2   3
HETATM    3  C   UNL     1     -22.658  -9.777  -0.232  1.00  0.00     0.270 C 
BRANCH   3   4
HETATM    4  N   UNL     1     -21.218  -9.880  -0.056  1.00  0.00     0.083 N 
HETATM    5  H   UNL     1     -20.736  -9.574  -0.900  1.00  0.00     0.315 HD
BRANCH   4   6
HETATM    6  C   UNL     1     -20.851 -11.255   0.259  1.00  0.00     0.271 C 
BRANCH   6   7
HETATM    7  C   UNL     1     -19.578 -11.623  -0.489  1.00  0.00     0.060 C 
BRANCH   7   8
HETATM    8  C   UNL     1     -19.911 -11.751  -1.968  1.00  0.00     0.271 C 
BRANCH   8   9
HETATM    9  N   UNL     1     -18.748 -11.412  -2.766  1.00  0.00     0.083 N 
HETATM   10  H   UNL     1     -18.207 -12.245  -2.991  1.00  0.00     0.315 HD
BRANCH   9  11
HETATM   11  C   UNL     1     -17.921 -10.429  -2.079  1.00  0.00     0.269 C 
BRANCH  11  12
HETATM   12  C   UNL     1     -16.963  -9.798  -3.073  1.00  0.00     0.032 C 
BRANCH  12  13
HETATM   13  C   UNL     1     -17.140 -10.372  -4.486  1.00  0.00     0.032 C 
BRANCH  13  14
HETATM   14  C   UNL     1     -15.853 -10.306  -5.294  1.00  0.00     0.269 C 
BRANCH  14  15
HETATM   15  N   UNL     1     -15.442 -11.651  -5.681  1.00  0.00     0.083 N 
HETATM   16  H   UNL     1     -16.089 -12.325  -5.283  1.00  0.00     0.315 HD
BRANCH  15  17
HETATM   17  C   UNL     1     -14.100 -11.934  -5.210  1.00  0.00     0.271 C 
BRANCH  17  18
HETATM   18  C   UNL     1     -14.130 -12.382  -3.755  1.00  0.00     0.059 C 
BRANCH  18  19
HETATM   19  C   UNL     1     -13.182 -13.560  -3.564  1.00  0.00     0.268 C 
BRANCH  19  20
HETATM   20  N   UNL     1     -13.525 -14.627  -4.494  1.00  0.00     0.078 N 
HETATM   21  H   UNL     1     -14.013 -15.374  -4.005  1.00  0.00     0.312 HD
HETATM   22  H   UNL     1     -12.671 -15.004  -4.906  1.00  0.00     0.312 HD
ENDBRANCH  19  20
ENDBRANCH  18  19
ENDBRANCH  17  18
ENDBRANCH  15  17
ENDBRANCH  14  15
ENDBRANCH  13  14
ENDBRANCH  12  13
ENDBRANCH  11  12
ENDBRANCH   9  11
ENDBRANCH   8   9
ENDBRANCH   7   8
ENDBRANCH   6   7
ENDBRANCH   4   6
ENDBRANCH   3   4
ENDBRANCH   2   3
ENDBRANCH   1   2
BRANCH   1  23
HETATM   23  N   UNL     1     -22.153  -7.220  -1.759  1.00  0.00    -0.200 NA
BRANCH  23  24
HETATM   24  O   UNL     1     -22.579  -5.849  -2.004  1.00  0.00    -0.313 OA
HETATM   25  H   UNL     1     -22.593  -5.830  -2.982  1.00  0.00     0.237 HD
ENDBRANCH  23  24
BRANCH  23  26
HETATM   26  C   UNL     1     -20.817  -7.327  -2.367  1.00  0.00     0.122 C 
BRANCH  26  27
HETATM   27  C   UNL     1     -20.729  -8.419  -3.442  1.00  0.00     0.036 C 
BRANCH  27  28
HETATM   28  C   UNL     1     -21.636  -8.093  -4.616  1.00  0.00     0.123 C 
BRANCH  28  29
HETATM   29  N   UNL     1     -21.583  -6.654  -4.980  1.00  0.00    -0.361 N 
HETATM   30  C   UNL     1     -20.771  -6.188  -5.998  1.00  0.00     0.221 C 
HETATM   31  O   UNL     1     -20.064  -6.962  -6.648  1.00  0.00    -0.273 OA
HETATM   32  H   UNL     1     -22.088  -5.985  -4.414  1.00  0.00     0.162 HD
BRANCH  30  33
HETATM   33  C   UNL     1     -20.782  -4.672  -6.341  1.00  0.00     0.143 C 
BRANCH  33  34
HETATM   34  C   UNL     1     -21.762  -4.405  -7.447  1.00  0.00    -0.022 A 
HETATM   35  C   UNL     1     -23.124  -4.344  -7.272  1.00  0.00     0.097 A 
HETATM   36  N   UNL     1     -23.713  -3.928  -8.444  1.00  0.00    -0.365 N 
HETATM   37  C   UNL     1     -22.755  -3.847  -9.430  1.00  0.00     0.042 A 
HETATM   38  H   UNL     1     -24.702  -3.775  -8.585  1.00  0.00     0.165 HD
HETATM   39  C   UNL     1     -22.860  -3.629 -10.810  1.00  0.00     0.030 A 
HETATM   40  C   UNL     1     -21.536  -4.158  -8.820  1.00  0.00    -0.001 A 
HETATM   41  C   UNL     1     -21.691  -3.716 -11.556  1.00  0.00     0.002 A 
HETATM   42  C   UNL     1     -20.475  -3.994 -10.967  1.00  0.00     0.001 A 
HETATM   43  C   UNL     1     -20.385  -4.186  -9.604  1.00  0.00     0.014 A 
ENDBRANCH  33  34
ENDBRANCH  30  33
ENDBRANCH  28  29
ENDBRANCH  27  28
ENDBRANCH  26  27
ENDBRANCH  23  26
ENDBRANCH   1  23
TORSDOF 24
BEGIN_RES ARG D 557
REMARK  4 active torsions:
REMARK  status: ('A' for Active; 'I' for Inactive)
REMARK    1  A    between atoms: CA   and  CB  
REMARK    2  A    between atoms: CB   and  CG  
REMARK    3  A    between atoms: CG   and  CD  
REMARK    4  A    between atoms: CD   and  NE  
REMARK       I    between atoms: NE   and  CZ  
REMARK       I    between atoms: CZ   and  NH1 
REMARK       I    between atoms: CZ   and  NH2 
ROOT
ATOM      1  CA  ARG D 557     -26.217   2.705 -17.014  1.00 35.49     0.159 C 
ENDROOT
BRANCH   1   2
ATOM      2  CB  ARG D 557     -26.789   1.319 -17.183  1.00 35.49     0.034 C 
BRANCH   2   3
ATOM      3  CG  ARG D 557     -28.232   1.226 -17.436  1.00 35.49     0.027 C 
BRANCH   3   4
ATOM      4  CD  ARG D 557     -28.912   0.306 -16.496  1.00 35.49     0.116 C 
BRANCH   4   5
ATOM      5  NE  ARG D 557     -29.291  -0.931 -17.126  1.00 35.49    -0.212 N 
ATOM      6  CZ  ARG D 557     -28.648  -2.073 -17.025  1.00 35.49     0.666 C 
ATOM      7  NH1 ARG D 557     -27.540  -2.203 -16.319  1.00 35.49    -0.235 N 
ATOM      8  NH2 ARG D 557     -29.148  -3.100 -17.648  1.00 35.49    -0.235 N 
ATOM      9  HH  ARG D 557     -27.194  -1.541 -15.899  1.00 35.49     0.174 HD
ATOM     10  HH  ARG D 557     -27.166  -2.973 -16.287  1.00 35.49     0.174 HD
ATOM     11  HH  ARG D 557     -29.869  -2.988 -18.090  1.00 35.49     0.174 HD
ATOM     12  HH  ARG D 557     -28.764  -3.855 -17.603  1.00 35.49     0.174 HD
ATOM     13  HE  ARG D 557     -29.953  -0.921 -17.659  1.00 35.49     0.178 HD
ENDBRANCH   4   5
ENDBRANCH   3   4
ENDBRANCH   2   3
ENDBRANCH   1   2
END_RES ARG D 557
BEGIN_RES GLU D 570
REMARK  3 active torsions:
REMARK  status: ('A' for Active; 'I' for Inactive)
REMARK    5  A    between atoms: CA   and  CB  
REMARK    6  A    between atoms: CB   and  CG  
REMARK    7  A    between atoms: CG   and  CD  
ROOT
ATOM     14  CA  GLU D 570     -18.033  -6.348 -13.375  1.00 32.92     0.160 C 
ENDROOT
BRANCH  14  15
ATOM     15  CB  GLU D 570     -19.500  -6.345 -13.794  1.00 32.92     0.043 C 
BRANCH  15  16
ATOM     16  CG  GLU D 570     -19.799  -6.508 -15.240  1.00 32.92     0.100 C 
BRANCH  16  17
ATOM     17  CD  GLU D 570     -20.977  -7.419 -15.499  1.00 32.92     0.185 C 
ATOM     18  OE1 GLU D 570     -22.131  -6.975 -15.343  1.00 32.92    -0.647 OA
ATOM     19  OE2 GLU D 570     -20.743  -8.593 -15.846  1.00 32.92    -0.647 OA
ENDBRANCH  16  17
ENDBRANCH  15  16
ENDBRANCH  14  15
END_RES GLU D 570
ENDMDL
MODEL 6
REMARK VINA RESULT:      -7.2      9.509     14.804
REMARK  24 active torsions:
REMARK  status: ('A' for Active; 'I' for Inactive)
REMARK    1  A    between atoms: N_1  and  C_2 
REMARK    2  A    between atoms: C_2  and  C_3 
REMARK    3  A    between atoms: C_3  and  C_4 
REMARK    4  A    between atoms: C_4  and  N_5 
REMARK    5  A    between atoms: N_5  and  C_6 
REMARK    6  A    between atoms: C_6  and  C_7 
REMARK    7  A    between atoms: C_7  and  C_8 
REMARK    8  A    between atoms: C_8  and  C_9 
REMARK    9  A    between atoms: C_9  and  N_10 
REMARK   10  A    between atoms: N_10  and  C_11 
REMARK   11  A    between atoms: C_11  and  C_12 
REMARK   12  A    between atoms: C_12  and  C_13 
REMARK   13  A    between atoms: C_13  and  N_14 
REMARK   14  A    between atoms: N_14  and  C_15 
REMARK   15  A    between atoms: C_15  and  C_16 
REMARK   16  A    between atoms: C_16  and  C_17 
REMARK   17  A    between atoms: C_17  and  N_18 
REMARK   18  A    between atoms: N_18  and  O_19 
REMARK   19  A    between atoms: N_18  and  C_20 
REMARK   20  A    between atoms: C_20  and  C_21 
REMARK   21  A    between atoms: C_21  and  C_22 
REMARK   22  A    between atoms: C_22  and  N_23 
REMARK       I    between atoms: N_23  and  C_24 
REMARK   23  A    between atoms: C_24  and  C_26 
REMARK   24  A    between atoms: C_26  and  C_27 
ROOT
HETATM    1  C   UNL     1     -22.156  -7.287  -0.181  1.00  0.00     0.122 C 
ENDROOT
BRANCH   1   2
HETATM    2  C   UNL     1     -23.274  -8.182   0.337  1.00  0.00     0.046 C 
BRANCH   2   3
HETATM    3  C   UNL     1     -23.038  -9.600  -0.152  1.00  0.00     0.270 C 
BRANCH   3   4
HETATM    4  N   UNL     1     -21.664  -9.969   0.152  1.00  0.00     0.083 N 
HETATM    5  H   UNL     1     -21.032  -9.206  -0.083  1.00  0.00     0.315 HD
BRANCH   4   6
HETATM    6  C   UNL     1     -21.295 -11.170  -0.588  1.00  0.00     0.271 C 
BRANCH   6   7
HETATM    7  C   UNL     1     -19.787 -11.365  -0.517  1.00  0.00     0.060 C 
BRANCH   7   8
HETATM    8  C   UNL     1     -19.262 -11.551  -1.934  1.00  0.00     0.271 C 
BRANCH   8   9
HETATM    9  N   UNL     1     -18.045 -10.781  -2.113  1.00  0.00     0.083 N 
HETATM   10  H   UNL     1     -18.156  -9.837  -1.746  1.00  0.00     0.315 HD
BRANCH   9  11
HETATM   11  C   UNL     1     -17.659 -10.748  -3.516  1.00  0.00     0.269 C 
BRANCH  11  12
HETATM   12  C   UNL     1     -16.297 -11.400  -3.676  1.00  0.00     0.032 C 
BRANCH  12  13
HETATM   13  C   UNL     1     -15.558 -11.523  -2.337  1.00  0.00     0.032 C 
BRANCH  13  14
HETATM   14  C   UNL     1     -15.088 -12.946  -2.073  1.00  0.00     0.269 C 
BRANCH  14  15
HETATM   15  N   UNL     1     -15.136 -13.226  -0.642  1.00  0.00     0.083 N 
HETATM   16  H   UNL     1     -15.743 -14.024  -0.478  1.00  0.00     0.315 HD
BRANCH  15  17
HETATM   17  C   UNL     1     -15.638 -12.078   0.090  1.00  0.00     0.271 C 
BRANCH  17  18
HETATM   18  C   UNL     1     -16.676 -12.515   1.115  1.00  0.00     0.059 C 
BRANCH  18  19
HETATM   19  C   UNL     1     -16.358 -13.926   1.592  1.00  0.00     0.268 C 
BRANCH  19  20
HETATM   20  N   UNL     1     -15.657 -13.873   2.867  1.00  0.00     0.078 N 
HETATM   21  H   UNL     1     -15.889 -13.013   3.358  1.00  0.00     0.312 HD
HETATM   22  H   UNL     1     -14.651 -13.897   2.702  1.00  0.00     0.312 HD
ENDBRANCH  19  20
ENDBRANCH  18  19
ENDBRANCH  17  18
ENDBRANCH  15  17
ENDBRANCH  14  15
ENDBRANCH  13  14
ENDBRANCH  12  13
ENDBRANCH  11  12
ENDBRANCH   9  11
ENDBRANCH   8   9
ENDBRANCH   7   8
ENDBRANCH   6   7
ENDBRANCH   4   6
ENDBRANCH   3   4
ENDBRANCH   2   3
ENDBRANCH   1   2
BRANCH   1  23
HETATM   23  N   UNL     1     -22.185  -7.197  -1.645  1.00  0.00    -0.200 NA
BRANCH  23  24
HETATM   24  O   UNL     1     -22.553  -5.823  -1.959  1.00  0.00    -0.313 OA
HETATM   25  H   UNL     1     -21.833  -5.572  -2.572  1.00  0.00     0.237 HD
ENDBRANCH  23  24
BRANCH  23  26
HETATM   26  C   UNL     1     -20.837  -7.377  -2.210  1.00  0.00     0.122 C 
BRANCH  26  27
HETATM   27  C   UNL     1     -20.769  -8.488  -3.265  1.00  0.00     0.036 C 
BRANCH  27  28
HETATM   28  C   UNL     1     -21.665  -8.163  -4.449  1.00  0.00     0.123 C 
BRANCH  28  29
HETATM   29  N   UNL     1     -21.590  -6.729  -4.829  1.00  0.00    -0.361 N 
HETATM   30  C   UNL     1     -20.784  -6.291  -5.864  1.00  0.00     0.221 C 
HETATM   31  O   UNL     1     -20.103  -7.086  -6.518  1.00  0.00    -0.273 OA
HETATM   32  H   UNL     1     -22.072  -6.045  -4.263  1.00  0.00     0.162 HD
BRANCH  30  33
HETATM   33  C   UNL     1     -20.770  -4.779  -6.224  1.00  0.00     0.143 C 
BRANCH  33  34
HETATM   34  C   UNL     1     -21.741  -4.509  -7.338  1.00  0.00    -0.022 A 
HETATM   35  C   UNL     1     -23.102  -4.419  -7.170  1.00  0.00     0.097 A 
HETATM   36  N   UNL     1     -23.678  -4.009  -8.350  1.00  0.00    -0.365 N 
HETATM   37  C   UNL     1     -22.715  -3.962  -9.334  1.00  0.00     0.042 A 
HETATM   38  H   UNL     1     -24.663  -3.839  -8.498  1.00  0.00     0.165 HD
HETATM   39  C   UNL     1     -22.811  -3.762 -10.717  1.00  0.00     0.030 A 
HETATM   40  C   UNL     1     -21.504  -4.287  -8.714  1.00  0.00    -0.001 A 
HETATM   41  C   UNL     1     -21.641  -3.883 -11.457  1.00  0.00     0.002 A 
HETATM   42  C   UNL     1     -20.433  -4.176 -10.859  1.00  0.00     0.001 A 
HETATM   43  C   UNL     1     -20.352  -4.350  -9.493  1.00  0.00     0.014 A 
ENDBRANCH  33  34
ENDBRANCH  30  33
ENDBRANCH  28  29
ENDBRANCH  27  28
ENDBRANCH  26  27
ENDBRANCH  23  26
ENDBRANCH   1  23
TORSDOF 24
BEGIN_RES ARG D 557
REMARK  4 active torsions:
REMARK  status: ('A' for Active; 'I' for Inactive)
REMARK    1  A    between atoms: CA   and  CB  
REMARK    2  A    between atoms: CB   and  CG  
REMARK    3  A    between atoms: CG   and  CD  
REMARK    4  A    between atoms: CD   and  NE  
REMARK       I    between atoms: NE   and  CZ  
REMARK       I    between atoms: CZ   and  NH1 
REMARK       I    between atoms: CZ   and  NH2 
ROOT
ATOM      1  CA  ARG D 557     -26.217   2.705 -17.014  1.00 35.49     0.159 C 
ENDROOT
BRANCH   1   2
ATOM      2  CB  ARG D 557     -26.789   1.319 -17.183  1.00 35.49     0.034 C 
BRANCH   2   3
ATOM      3  CG  ARG D 557     -28.226   1.161 -16.925  1.00 35.49     0.027 C 
BRANCH   3   4
ATOM      4  CD  ARG D 557     -28.608  -0.253 -16.707  1.00 35.49     0.116 C 
BRANCH   4   5
ATOM      5  NE  ARG D 557     -27.587  -0.989 -16.010  1.00 35.49    -0.212 N 
ATOM      6  CZ  ARG D 557     -27.398  -2.288 -16.073  1.00 35.49     0.666 C 
ATOM      7  NH1 ARG D 557     -28.164  -3.082 -16.799  1.00 35.49    -0.235 N 
ATOM      8  NH2 ARG D 557     -26.408  -2.785 -15.389  1.00 35.49    -0.235 N 
ATOM      9  HH  ARG D 557     -28.820  -2.776 -17.258  1.00 35.49     0.174 HD
ATOM     10  HH  ARG D 557     -27.992  -3.921 -16.803  1.00 35.49     0.174 HD
ATOM     11  HH  ARG D 557     -25.926  -2.248 -14.935  1.00 35.49     0.174 HD
ATOM     12  HH  ARG D 557     -26.253  -3.618 -15.408  1.00 35.49     0.174 HD
ATOM     13  HE  ARG D 557     -27.093  -0.566 -15.462  1.00 35.49     0.178 HD
ENDBRANCH   4   5
ENDBRANCH   3   4
ENDBRANCH   2   3
ENDBRANCH   1   2
END_RES ARG D 557
BEGIN_RES GLU D 570
REMARK  3 active torsions:
REMARK  status: ('A' for Active; 'I' for Inactive)
REMARK    5  A    between atoms: CA   and  CB  
REMARK    6  A    between atoms: CB   and  CG  
REMARK    7  A    between atoms: CG   and  CD  
ROOT
ATOM     14  CA  GLU D 570     -18.033  -6.348 -13.375  1.00 32.92     0.160 C 
ENDROOT
BRANCH  14  15
ATOM     15  CB  GLU D 570     -19.500  -6.345 -13.794  1.00 32.92     0.043 C 
BRANCH  15  16
ATOM     16  CG  GLU D 570     -19.811  -5.960 -15.195  1.00 32.92     0.100 C 
BRANCH  16  17
ATOM     17  CD  GLU D 570     -21.254  -5.554 -15.388  1.00 32.92     0.185 C 
ATOM     18  OE1 GLU D 570     -21.564  -4.879 -16.389  1.00 32.92    -0.647 OA
ATOM     19  OE2 GLU D 570     -22.080  -5.900 -14.521  1.00 32.92    -0.647 OA
ENDBRANCH  16  17
ENDBRANCH  15  16
ENDBRANCH  14  15
END_RES GLU D 570
ENDMDL
MODEL 7
REMARK VINA RESULT:      -7.2      8.501     14.565
REMARK  24 active torsions:
REMARK  status: ('A' for Active; 'I' for Inactive)
REMARK    1  A    between atoms: N_1  and  C_2 
REMARK    2  A    between atoms: C_2  and  C_3 
REMARK    3  A    between atoms: C_3  and  C_4 
REMARK    4  A    between atoms: C_4  and  N_5 
REMARK    5  A    between atoms: N_5  and  C_6 
REMARK    6  A    between atoms: C_6  and  C_7 
REMARK    7  A    between atoms: C_7  and  C_8 
REMARK    8  A    between atoms: C_8  and  C_9 
REMARK    9  A    between atoms: C_9  and  N_10 
REMARK   10  A    between atoms: N_10  and  C_11 
REMARK   11  A    between atoms: C_11  and  C_12 
REMARK   12  A    between atoms: C_12  and  C_13 
REMARK   13  A    between atoms: C_13  and  N_14 
REMARK   14  A    between atoms: N_14  and  C_15 
REMARK   15  A    between atoms: C_15  and  C_16 
REMARK   16  A    between atoms: C_16  and  C_17 
REMARK   17  A    between atoms: C_17  and  N_18 
REMARK   18  A    between atoms: N_18  and  O_19 
REMARK   19  A    between atoms: N_18  and  C_20 
REMARK   20  A    between atoms: C_20  and  C_21 
REMARK   21  A    between atoms: C_21  and  C_22 
REMARK   22  A    between atoms: C_22  and  N_23 
REMARK       I    between atoms: N_23  and  C_24 
REMARK   23  A    between atoms: C_24  and  C_26 
REMARK   24  A    between atoms: C_26  and  C_27 
ROOT
HETATM    1  C   UNL     1     -21.224  -8.929  -3.496  1.00  0.00     0.122 C 
ENDROOT
BRANCH   1   2
HETATM    2  C   UNL     1     -21.197  -7.610  -2.737  1.00  0.00     0.046 C 
BRANCH   2   3
HETATM    3  C   UNL     1     -21.923  -6.556  -3.553  1.00  0.00     0.270 C 
BRANCH   3   4
HETATM    4  N   UNL     1     -20.941  -5.820  -4.333  1.00  0.00     0.083 N 
HETATM    5  H   UNL     1     -20.916  -4.845  -4.041  1.00  0.00     0.315 HD
BRANCH   4   6
HETATM    6  C   UNL     1     -21.262  -5.909  -5.753  1.00  0.00     0.271 C 
BRANCH   6   7
HETATM    7  C   UNL     1     -20.354  -4.974  -6.537  1.00  0.00     0.060 C 
BRANCH   7   8
HETATM    8  C   UNL     1     -21.184  -3.792  -7.019  1.00  0.00     0.271 C 
BRANCH   8   9
HETATM    9  N   UNL     1     -21.422  -3.906  -8.446  1.00  0.00     0.083 N 
HETATM   10  H   UNL     1     -22.124  -4.619  -8.640  1.00  0.00     0.315 HD
BRANCH   9  11
HETATM   11  C   UNL     1     -20.182  -4.196  -9.152  1.00  0.00     0.269 C 
BRANCH  11  12
HETATM   12  C   UNL     1     -20.498  -4.544 -10.596  1.00  0.00     0.032 C 
BRANCH  12  13
HETATM   13  C   UNL     1     -21.680  -3.728 -11.138  1.00  0.00     0.032 C 
BRANCH  13  14
HETATM   14  C   UNL     1     -22.924  -4.583 -11.326  1.00  0.00     0.269 C 
BRANCH  14  15
HETATM   15  N   UNL     1     -24.044  -3.744 -11.736  1.00  0.00     0.083 N 
HETATM   16  H   UNL     1     -24.726  -4.314 -12.230  1.00  0.00     0.315 HD
BRANCH  15  17
HETATM   17  C   UNL     1     -23.593  -2.672 -12.604  1.00  0.00     0.271 C 
BRANCH  17  18
HETATM   18  C   UNL     1     -24.407  -2.651 -13.890  1.00  0.00     0.059 C 
BRANCH  18  19
HETATM   19  C   UNL     1     -23.925  -1.511 -14.779  1.00  0.00     0.268 C 
BRANCH  19  20
HETATM   20  N   UNL     1     -24.899  -0.427 -14.767  1.00  0.00     0.078 N 
HETATM   21  H   UNL     1     -24.523   0.376 -14.270  1.00  0.00     0.312 HD
HETATM   22  H   UNL     1     -25.747  -0.740 -14.294  1.00  0.00     0.312 HD
ENDBRANCH  19  20
ENDBRANCH  18  19
ENDBRANCH  17  18
ENDBRANCH  15  17
ENDBRANCH  14  15
ENDBRANCH  13  14
ENDBRANCH  12  13
ENDBRANCH  11  12
ENDBRANCH   9  11
ENDBRANCH   8   9
ENDBRANCH   7   8
ENDBRANCH   6   7
ENDBRANCH   4   6
ENDBRANCH   3   4
ENDBRANCH   2   3
ENDBRANCH   1   2
BRANCH   1  23
HETATM   23  N   UNL     1     -19.866  -9.427  -3.742  1.00  0.00    -0.200 NA
BRANCH  23  24
HETATM   24  O   UNL     1     -19.276  -8.529  -4.725  1.00  0.00    -0.313 OA
HETATM   25  H   UNL     1     -20.072  -8.246  -5.221  1.00  0.00     0.237 HD
ENDBRANCH  23  24
BRANCH  23  26
HETATM   26  C   UNL     1     -19.029  -9.289  -2.539  1.00  0.00     0.122 C 
BRANCH  26  27
HETATM   27  C   UNL     1     -17.641  -9.925  -2.694  1.00  0.00     0.036 C 
BRANCH  27  28
HETATM   28  C   UNL     1     -17.735 -11.440  -2.666  1.00  0.00     0.123 C 
BRANCH  28  29
HETATM   29  N   UNL     1     -18.990 -11.910  -2.024  1.00  0.00    -0.361 N 
HETATM   30  C   UNL     1     -19.024 -12.323  -0.705  1.00  0.00     0.221 C 
HETATM   31  O   UNL     1     -18.005 -12.304  -0.009  1.00  0.00    -0.273 OA
HETATM   32  H   UNL     1     -19.822 -12.014  -2.590  1.00  0.00     0.162 HD
BRANCH  30  33
HETATM   33  C   UNL     1     -20.376 -12.782  -0.091  1.00  0.00     0.143 C 
BRANCH  33  34
HETATM   34  C   UNL     1     -21.432 -11.742  -0.342  1.00  0.00    -0.022 A 
HETATM   35  C   UNL     1     -22.472 -11.898  -1.225  1.00  0.00     0.097 A 
HETATM   36  N   UNL     1     -23.337 -10.835  -1.098  1.00  0.00    -0.365 N 
HETATM   37  C   UNL     1     -22.798  -9.912  -0.231  1.00  0.00     0.042 A 
HETATM   38  H   UNL     1     -24.198 -10.711  -1.612  1.00  0.00     0.165 HD
HETATM   39  C   UNL     1     -23.198  -8.613   0.108  1.00  0.00     0.030 A 
HETATM   40  C   UNL     1     -21.600 -10.463   0.236  1.00  0.00    -0.001 A 
HETATM   41  C   UNL     1     -22.360  -7.890   0.949  1.00  0.00     0.002 A 
HETATM   42  C   UNL     1     -21.189  -8.428   1.441  1.00  0.00     0.001 A 
HETATM   43  C   UNL     1     -20.819  -9.716   1.114  1.00  0.00     0.014 A 
ENDBRANCH  33  34
ENDBRANCH  30  33
ENDBRANCH  28  29
ENDBRANCH  27  28
ENDBRANCH  26  27
ENDBRANCH  23  26
ENDBRANCH   1  23
TORSDOF 24
BEGIN_RES ARG D 557
REMARK  4 active torsions:
REMARK  status: ('A' for Active; 'I' for Inactive)
REMARK    1  A    between atoms: CA   and  CB  
REMARK    2  A    between atoms: CB   and  CG  
REMARK    3  A    between atoms: CG   and  CD  
REMARK    4  A    between atoms: CD   and  NE  
REMARK       I    between atoms: NE   and  CZ  
REMARK       I    between atoms: CZ   and  NH1 
REMARK       I    between atoms: CZ   and  NH2 
ROOT
ATOM      1  CA  ARG D 557     -26.217   2.705 -17.014  1.00 35.49     0.159 C 
ENDROOT
BRANCH   1   2
ATOM      2  CB  ARG D 557     -26.789   1.319 -17.183  1.00 35.49     0.034 C 
BRANCH   2   3
ATOM      3  CG  ARG D 557     -28.252   1.207 -17.208  1.00 35.49     0.027 C 
BRANCH   3   4
ATOM      4  CD  ARG D 557     -28.749   0.114 -16.340  1.00 35.49     0.116 C 
BRANCH   4   5
ATOM      5  NE  ARG D 557     -29.215  -1.014 -17.102  1.00 35.49    -0.212 N 
ATOM      6  CZ  ARG D 557     -28.704  -2.224 -17.074  1.00 35.49     0.666 C 
ATOM      7  NH1 ARG D 557     -27.662  -2.537 -16.325  1.00 35.49    -0.235 N 
ATOM      8  NH2 ARG D 557     -29.269  -3.132 -17.816  1.00 35.49    -0.235 N 
ATOM      9  HH  ARG D 557     -27.276  -1.956 -15.828  1.00 35.49     0.174 HD
ATOM     10  HH  ARG D 557     -27.374  -3.343 -16.345  1.00 35.49     0.174 HD
ATOM     11  HH  ARG D 557     -29.945  -2.904 -18.283  1.00 35.49     0.174 HD
ATOM     12  HH  ARG D 557     -28.969  -3.926 -17.821  1.00 35.49     0.174 HD
ATOM     13  HE  ARG D 557     -29.839  -0.885 -17.666  1.00 35.49     0.178 HD
ENDBRANCH   4   5
ENDBRANCH   3   4
ENDBRANCH   2   3
ENDBRANCH   1   2
END_RES ARG D 557
BEGIN_RES GLU D 570
REMARK  3 active torsions:
REMARK  status: ('A' for Active; 'I' for Inactive)
REMARK    5  A    between atoms: CA   and  CB  
REMARK    6  A    between atoms: CB   and  CG  
REMARK    7  A    between atoms: CG   and  CD  
ROOT
ATOM     14  CA  GLU D 570     -18.033  -6.348 -13.375  1.00 32.92     0.160 C 
ENDROOT
BRANCH  14  15
ATOM     15  CB  GLU D 570     -19.500  -6.345 -13.794  1.00 32.92     0.043 C 
BRANCH  15  16
ATOM     16  CG  GLU D 570     -20.083  -7.631 -14.255  1.00 32.92     0.100 C 
BRANCH  16  17
ATOM     17  CD  GLU D 570     -21.072  -7.459 -15.384  1.00 32.92     0.185 C 
ATOM     18  OE1 GLU D 570     -21.765  -6.425 -15.429  1.00 32.92    -0.647 OA
ATOM     19  OE2 GLU D 570     -21.167  -8.376 -16.224  1.00 32.92    -0.647 OA
ENDBRANCH  16  17
ENDBRANCH  15  16
ENDBRANCH  14  15
END_RES GLU D 570
ENDMDL
MODEL 8
REMARK VINA RESULT:      -7.0      7.648     14.179
REMARK  24 active torsions:
REMARK  status: ('A' for Active; 'I' for Inactive)
REMARK    1  A    between atoms: N_1  and  C_2 
REMARK    2  A    between atoms: C_2  and  C_3 
REMARK    3  A    between atoms: C_3  and  C_4 
REMARK    4  A    between atoms: C_4  and  N_5 
REMARK    5  A    between atoms: N_5  and  C_6 
REMARK    6  A    between atoms: C_6  and  C_7 
REMARK    7  A    between atoms: C_7  and  C_8 
REMARK    8  A    between atoms: C_8  and  C_9 
REMARK    9  A    between atoms: C_9  and  N_10 
REMARK   10  A    between atoms: N_10  and  C_11 
REMARK   11  A    between atoms: C_11  and  C_12 
REMARK   12  A    between atoms: C_12  and  C_13 
REMARK   13  A    between atoms: C_13  and  N_14 
REMARK   14  A    between atoms: N_14  and  C_15 
REMARK   15  A    between atoms: C_15  and  C_16 
REMARK   16  A    between atoms: C_16  and  C_17 
REMARK   17  A    between atoms: C_17  and  N_18 
REMARK   18  A    between atoms: N_18  and  O_19 
REMARK   19  A    between atoms: N_18  and  C_20 
REMARK   20  A    between atoms: C_20  and  C_21 
REMARK   21  A    between atoms: C_21  and  C_22 
REMARK   22  A    between atoms: C_22  and  N_23 
REMARK       I    between atoms: N_23  and  C_24 
REMARK   23  A    between atoms: C_24  and  C_26 
REMARK   24  A    between atoms: C_26  and  C_27 
ROOT
HETATM    1  C   UNL     1     -22.329  -6.561  -1.644  1.00  0.00     0.122 C 
ENDROOT
BRANCH   1   2
HETATM    2  C   UNL     1     -21.104  -6.712  -2.536  1.00  0.00     0.046 C 
BRANCH   2   3
HETATM    3  C   UNL     1     -21.505  -6.439  -3.975  1.00  0.00     0.270 C 
BRANCH   3   4
HETATM    4  N   UNL     1     -20.506  -7.030  -4.851  1.00  0.00     0.083 N 
HETATM    5  H   UNL     1     -19.607  -7.085  -4.376  1.00  0.00     0.315 HD
BRANCH   4   6
HETATM    6  C   UNL     1     -20.381  -6.239  -6.069  1.00  0.00     0.271 C 
BRANCH   6   7
HETATM    7  C   UNL     1     -20.362  -4.760  -5.712  1.00  0.00     0.060 C 
BRANCH   7   8
HETATM    8  C   UNL     1     -20.848  -3.969  -6.918  1.00  0.00     0.271 C 
BRANCH   8   9
HETATM    9  N   UNL     1     -21.092  -4.869  -8.030  1.00  0.00     0.083 N 
HETATM   10  H   UNL     1     -20.221  -5.283  -8.359  1.00  0.00     0.315 HD
BRANCH   9  11
HETATM   11  C   UNL     1     -21.776  -4.176  -9.113  1.00  0.00     0.269 C 
BRANCH  11  12
HETATM   12  C   UNL     1     -20.823  -4.010 -10.283  1.00  0.00     0.032 C 
BRANCH  12  13
HETATM   13  C   UNL     1     -21.564  -3.969 -11.626  1.00  0.00     0.032 C 
BRANCH  13  14
HETATM   14  C   UNL     1     -22.619  -2.873 -11.662  1.00  0.00     0.269 C 
BRANCH  14  15
HETATM   15  N   UNL     1     -23.934  -3.460 -11.896  1.00  0.00     0.083 N 
HETATM   16  H   UNL     1     -23.997  -4.347 -11.403  1.00  0.00     0.315 HD
BRANCH  15  17
HETATM   17  C   UNL     1     -24.154  -3.680 -13.313  1.00  0.00     0.271 C 
BRANCH  17  18
HETATM   18  C   UNL     1     -25.024  -2.574 -13.895  1.00  0.00     0.059 C 
BRANCH  18  19
HETATM   19  C   UNL     1     -24.167  -1.650 -14.752  1.00  0.00     0.268 C 
BRANCH  19  20
HETATM   20  N   UNL     1     -24.783  -0.332 -14.828  1.00  0.00     0.078 N 
HETATM   21  H   UNL     1     -25.001  -0.103 -15.795  1.00  0.00     0.312 HD
HETATM   22  H   UNL     1     -24.136   0.366 -14.461  1.00  0.00     0.312 HD
ENDBRANCH  19  20
ENDBRANCH  18  19
ENDBRANCH  17  18
ENDBRANCH  15  17
ENDBRANCH  14  15
ENDBRANCH  13  14
ENDBRANCH  12  13
ENDBRANCH  11  12
ENDBRANCH   9  11
ENDBRANCH   8   9
ENDBRANCH   7   8
ENDBRANCH   6   7
ENDBRANCH   4   6
ENDBRANCH   3   4
ENDBRANCH   2   3
ENDBRANCH   1   2
BRANCH   1  23
HETATM   23  N   UNL     1     -22.174  -7.320  -0.398  1.00  0.00    -0.200 NA
BRANCH  23  24
HETATM   24  O   UNL     1     -23.518  -7.509   0.132  1.00  0.00    -0.313 OA
HETATM   25  H   UNL     1     -23.565  -8.485   0.178  1.00  0.00     0.237 HD
ENDBRANCH  23  24
BRANCH  23  26
HETATM   26  C   UNL     1     -21.669  -8.677  -0.667  1.00  0.00     0.122 C 
BRANCH  26  27
HETATM   27  C   UNL     1     -22.736  -9.764  -0.488  1.00  0.00     0.036 C 
BRANCH  27  28
HETATM   28  C   UNL     1     -22.707 -10.745  -1.647  1.00  0.00     0.123 C 
BRANCH  28  29
HETATM   29  N   UNL     1     -22.038 -10.175  -2.845  1.00  0.00    -0.361 N 
HETATM   30  C   UNL     1     -21.853 -10.916  -3.998  1.00  0.00     0.221 C 
HETATM   31  O   UNL     1     -22.252 -12.081  -4.074  1.00  0.00    -0.273 OA
HETATM   32  H   UNL     1     -21.629  -9.252  -2.786  1.00  0.00     0.162 HD
BRANCH  30  33
HETATM   33  C   UNL     1     -21.164 -10.249  -5.222  1.00  0.00     0.143 C 
BRANCH  33  34
HETATM   34  C   UNL     1     -19.729 -10.687  -5.303  1.00  0.00    -0.022 A 
HETATM   35  C   UNL     1     -19.248 -11.586  -6.223  1.00  0.00     0.097 A 
HETATM   36  N   UNL     1     -17.877 -11.645  -6.125  1.00  0.00    -0.365 N 
HETATM   37  C   UNL     1     -17.465 -10.889  -5.050  1.00  0.00     0.042 A 
HETATM   38  H   UNL     1     -17.268 -12.209  -6.702  1.00  0.00     0.165 HD
HETATM   39  C   UNL     1     -16.213 -10.749  -4.439  1.00  0.00     0.030 A 
HETATM   40  C   UNL     1     -18.617 -10.299  -4.521  1.00  0.00    -0.001 A 
HETATM   41  C   UNL     1     -16.153  -9.979  -3.284  1.00  0.00     0.002 A 
HETATM   42  C   UNL     1     -17.274  -9.366  -2.764  1.00  0.00     0.001 A 
HETATM   43  C   UNL     1     -18.496  -9.497  -3.388  1.00  0.00     0.014 A 
ENDBRANCH  33  34
ENDBRANCH  30  33
ENDBRANCH  28  29
ENDBRANCH  27  28
ENDBRANCH  26  27
ENDBRANCH  23  26
ENDBRANCH   1  23
TORSDOF 24
BEGIN_RES ARG D 557
REMARK  4 active torsions:
REMARK  status: ('A' for Active; 'I' for Inactive)
REMARK    1  A    between atoms: CA   and  CB  
REMARK    2  A    between atoms: CB   and  CG  
REMARK    3  A    between atoms: CG   and  CD  
REMARK    4  A    between atoms: CD   and  NE  
REMARK       I    between atoms: NE   and  CZ  
REMARK       I    between atoms: CZ   and  NH1 
REMARK       I    between atoms: CZ   and  NH2 
ROOT
ATOM      1  CA  ARG D 557     -26.217   2.705 -17.014  1.00 35.49     0.159 C 
ENDROOT
BRANCH   1   2
ATOM      2  CB  ARG D 557     -26.789   1.319 -17.183  1.00 35.49     0.034 C 
BRANCH   2   3
ATOM      3  CG  ARG D 557     -28.221   1.229 -17.495  1.00 35.49     0.027 C 
BRANCH   3   4
ATOM      4  CD  ARG D 557     -28.930   0.272 -16.615  1.00 35.49     0.116 C 
BRANCH   4   5
ATOM      5  NE  ARG D 557     -28.139  -0.897 -16.335  1.00 35.49    -0.212 N 
ATOM      6  CZ  ARG D 557     -28.397  -2.117 -16.748  1.00 35.49     0.666 C 
ATOM      7  NH1 ARG D 557     -29.458  -2.409 -17.479  1.00 35.49    -0.235 N 
ATOM      8  NH2 ARG D 557     -27.557  -3.054 -16.417  1.00 35.49    -0.235 N 
ATOM      9  HH  ARG D 557     -30.023  -1.808 -17.710  1.00 35.49     0.174 HD
ATOM     10  HH  ARG D 557     -29.574  -3.222 -17.722  1.00 35.49     0.174 HD
ATOM     11  HH  ARG D 557     -26.877  -2.836 -15.951  1.00 35.49     0.174 HD
ATOM     12  HH  ARG D 557     -27.689  -3.854 -16.668  1.00 35.49     0.174 HD
ATOM     13  HE  ARG D 557     -27.475  -0.813 -15.810  1.00 35.49     0.178 HD
ENDBRANCH   4   5
ENDBRANCH   3   4
ENDBRANCH   2   3
ENDBRANCH   1   2
END_RES ARG D 557
BEGIN_RES GLU D 570
REMARK  3 active torsions:
REMARK  status: ('A' for Active; 'I' for Inactive)
REMARK    5  A    between atoms: CA   and  CB  
REMARK    6  A    between atoms: CB   and  CG  
REMARK    7  A    between atoms: CG   and  CD  
ROOT
ATOM     14  CA  GLU D 570     -18.033  -6.348 -13.375  1.00 32.92     0.160 C 
ENDROOT
BRANCH  14  15
ATOM     15  CB  GLU D 570     -19.500  -6.345 -13.794  1.00 32.92     0.043 C 
BRANCH  15  16
ATOM     16  CG  GLU D 570     -20.085  -7.633 -14.249  1.00 32.92     0.100 C 
BRANCH  16  17
ATOM     17  CD  GLU D 570     -21.088  -7.463 -15.366  1.00 32.92     0.185 C 
ATOM     18  OE1 GLU D 570     -20.890  -8.042 -16.451  1.00 32.92    -0.647 OA
ATOM     19  OE2 GLU D 570     -22.074  -6.729 -15.159  1.00 32.92    -0.647 OA
ENDBRANCH  16  17
ENDBRANCH  15  16
ENDBRANCH  14  15
END_RES GLU D 570
ENDMDL
MODEL 9
REMARK VINA RESULT:      -7.0      8.524     14.109
REMARK  24 active torsions:
REMARK  status: ('A' for Active; 'I' for Inactive)
REMARK    1  A    between atoms: N_1  and  C_2 
REMARK    2  A    between atoms: C_2  and  C_3 
REMARK    3  A    between atoms: C_3  and  C_4 
REMARK    4  A    between atoms: C_4  and  N_5 
REMARK    5  A    between atoms: N_5  and  C_6 
REMARK    6  A    between atoms: C_6  and  C_7 
REMARK    7  A    between atoms: C_7  and  C_8 
REMARK    8  A    between atoms: C_8  and  C_9 
REMARK    9  A    between atoms: C_9  and  N_10 
REMARK   10  A    between atoms: N_10  and  C_11 
REMARK   11  A    between atoms: C_11  and  C_12 
REMARK   12  A    between atoms: C_12  and  C_13 
REMARK   13  A    between atoms: C_13  and  N_14 
REMARK   14  A    between atoms: N_14  and  C_15 
REMARK   15  A    between atoms: C_15  and  C_16 
REMARK   16  A    between atoms: C_16  and  C_17 
REMARK   17  A    between atoms: C_17  and  N_18 
REMARK   18  A    between atoms: N_18  and  O_19 
REMARK   19  A    between atoms: N_18  and  C_20 
REMARK   20  A    between atoms: C_20  and  C_21 
REMARK   21  A    between atoms: C_21  and  C_22 
REMARK   22  A    between atoms: C_22  and  N_23 
REMARK       I    between atoms: N_23  and  C_24 
REMARK   23  A    between atoms: C_24  and  C_26 
REMARK   24  A    between atoms: C_26  and  C_27 
ROOT
HETATM    1  C   UNL     1     -21.530  -8.545   0.225  1.00  0.00     0.122 C 
ENDROOT
BRANCH   1   2
HETATM    2  C   UNL     1     -21.579 -10.066   0.180  1.00  0.00     0.046 C 
BRANCH   2   3
HETATM    3  C   UNL     1     -21.031 -10.538  -1.155  1.00  0.00     0.270 C 
BRANCH   3   4
HETATM    4  N   UNL     1     -22.091 -10.441  -2.147  1.00  0.00     0.083 N 
HETATM    5  H   UNL     1     -23.000 -10.563  -1.705  1.00  0.00     0.315 HD
BRANCH   4   6
HETATM    6  C   UNL     1     -21.898 -11.450  -3.182  1.00  0.00     0.271 C 
BRANCH   6   7
HETATM    7  C   UNL     1     -21.406 -10.779  -4.456  1.00  0.00     0.060 C 
BRANCH   7   8
HETATM    8  C   UNL     1     -20.018 -11.317  -4.775  1.00  0.00     0.271 C 
BRANCH   8   9
HETATM    9  N   UNL     1     -19.480 -10.633  -5.936  1.00  0.00     0.083 N 
HETATM   10  H   UNL     1     -20.226 -10.362  -6.575  1.00  0.00     0.315 HD
BRANCH   9  11
HETATM   11  C   UNL     1     -18.495 -11.465  -6.613  1.00  0.00     0.269 C 
BRANCH  11  12
HETATM   12  C   UNL     1     -17.159 -11.339  -5.903  1.00  0.00     0.032 C 
BRANCH  12  13
HETATM   13  C   UNL     1     -16.665  -9.886  -5.863  1.00  0.00     0.032 C 
BRANCH  13  14
HETATM   14  C   UNL     1     -15.773  -9.621  -4.659  1.00  0.00     0.269 C 
BRANCH  14  15
HETATM   15  N   UNL     1     -15.670 -10.826  -3.844  1.00  0.00     0.083 N 
HETATM   16  H   UNL     1     -16.378 -11.492  -4.141  1.00  0.00     0.315 HD
BRANCH  15  17
HETATM   17  C   UNL     1     -15.860 -10.515  -2.440  1.00  0.00     0.271 C 
BRANCH  17  18
HETATM   18  C   UNL     1     -16.106 -11.788  -1.642  1.00  0.00     0.059 C 
BRANCH  18  19
HETATM   19  C   UNL     1     -17.521 -11.769  -1.077  1.00  0.00     0.268 C 
BRANCH  19  20
HETATM   20  N   UNL     1     -17.485 -12.017   0.358  1.00  0.00     0.078 N 
HETATM   21  H   UNL     1     -18.413 -12.262   0.694  1.00  0.00     0.312 HD
HETATM   22  H   UNL     1     -17.172 -11.173   0.839  1.00  0.00     0.312 HD
ENDBRANCH  19  20
ENDBRANCH  18  19
ENDBRANCH  17  18
ENDBRANCH  15  17
ENDBRANCH  14  15
ENDBRANCH  13  14
ENDBRANCH  12  13
ENDBRANCH  11  12
ENDBRANCH   9  11
ENDBRANCH   8   9
ENDBRANCH   7   8
ENDBRANCH   6   7
ENDBRANCH   4   6
ENDBRANCH   3   4
ENDBRANCH   2   3
ENDBRANCH   1   2
BRANCH   1  23
HETATM   23  N   UNL     1     -22.671  -7.956  -0.485  1.00  0.00    -0.200 NA
BRANCH  23  24
HETATM   24  O   UNL     1     -23.621  -7.550   0.541  1.00  0.00    -0.313 OA
HETATM   25  H   UNL     1     -23.796  -8.405   0.983  1.00  0.00     0.237 HD
ENDBRANCH  23  24
BRANCH  23  26
HETATM   26  C   UNL     1     -22.280  -6.711  -1.168  1.00  0.00     0.122 C 
BRANCH  26  27
HETATM   27  C   UNL     1     -21.189  -6.922  -2.226  1.00  0.00     0.036 C 
BRANCH  27  28
HETATM   28  C   UNL     1     -21.800  -7.056  -3.610  1.00  0.00     0.123 C 
BRANCH  28  29
HETATM   29  N   UNL     1     -21.237  -6.069  -4.568  1.00  0.00    -0.361 N 
HETATM   30  C   UNL     1     -20.501  -6.461  -5.671  1.00  0.00     0.221 C 
HETATM   31  O   UNL     1     -20.295  -7.656  -5.903  1.00  0.00    -0.273 OA
HETATM   32  H   UNL     1     -21.320  -5.083  -4.361  1.00  0.00     0.162 HD
BRANCH  30  33
HETATM   33  C   UNL     1     -19.960  -5.376  -6.644  1.00  0.00     0.143 C 
BRANCH  33  34
HETATM   34  C   UNL     1     -21.085  -4.826  -7.474  1.00  0.00    -0.022 A 
HETATM   35  C   UNL     1     -22.362  -4.627  -7.006  1.00  0.00     0.097 A 
HETATM   36  N   UNL     1     -23.098  -3.969  -7.965  1.00  0.00    -0.365 N 
HETATM   37  C   UNL     1     -22.349  -3.857  -9.115  1.00  0.00     0.042 A 
HETATM   38  H   UNL     1     -24.061  -3.677  -7.872  1.00  0.00     0.165 HD
HETATM   39  C   UNL     1     -22.686  -3.422 -10.403  1.00  0.00     0.030 A 
HETATM   40  C   UNL     1     -21.095  -4.404  -8.823  1.00  0.00    -0.001 A 
HETATM   41  C   UNL     1     -21.711  -3.537 -11.387  1.00  0.00     0.002 A 
HETATM   42  C   UNL     1     -20.460  -4.047 -11.110  1.00  0.00     0.001 A 
HETATM   43  C   UNL     1     -20.137  -4.453  -9.832  1.00  0.00     0.014 A 
ENDBRANCH  33  34
ENDBRANCH  30  33
ENDBRANCH  28  29
ENDBRANCH  27  28
ENDBRANCH  26  27
ENDBRANCH  23  26
ENDBRANCH   1  23
TORSDOF 24
BEGIN_RES ARG D 557
REMARK  4 active torsions:
REMARK  status: ('A' for Active; 'I' for Inactive)
REMARK    1  A    between atoms: CA   and  CB  
REMARK    2  A    between atoms: CB   and  CG  
REMARK    3  A    between atoms: CG   and  CD  
REMARK    4  A    between atoms: CD   and  NE  
REMARK       I    between atoms: NE   and  CZ  
REMARK       I    between atoms: CZ   and  NH1 
REMARK       I    between atoms: CZ   and  NH2 
ROOT
ATOM      1  CA  ARG D 557     -26.217   2.705 -17.014  1.00 35.49     0.159 C 
ENDROOT
BRANCH   1   2
ATOM      2  CB  ARG D 557     -26.789   1.319 -17.183  1.00 35.49     0.034 C 
BRANCH   2   3
ATOM      3  CG  ARG D 557     -25.843   0.199 -17.100  1.00 35.49     0.027 C 
BRANCH   3   4
ATOM      4  CD  ARG D 557     -24.755   0.450 -16.127  1.00 35.49     0.116 C 
BRANCH   4   5
ATOM      5  NE  ARG D 557     -24.830  -0.430 -14.991  1.00 35.49    -0.212 N 
ATOM      6  CZ  ARG D 557     -23.983  -1.395 -14.711  1.00 35.49     0.666 C 
ATOM      7  NH1 ARG D 557     -22.946  -1.675 -15.479  1.00 35.49    -0.235 N 
ATOM      8  NH2 ARG D 557     -24.194  -2.082 -13.625  1.00 35.49    -0.235 N 
ATOM      9  HH  ARG D 557     -22.787  -1.234 -16.197  1.00 35.49     0.174 HD
ATOM     10  HH  ARG D 557     -22.426  -2.314 -15.244  1.00 35.49     0.174 HD
ATOM     11  HH  ARG D 557     -24.867  -1.874 -13.144  1.00 35.49     0.174 HD
ATOM     12  HH  ARG D 557     -23.666  -2.710 -13.409  1.00 35.49     0.174 HD
ATOM     13  HE  ARG D 557     -25.508  -0.368 -14.482  1.00 35.49     0.178 HD
ENDBRANCH   4   5
ENDBRANCH   3   4
ENDBRANCH   2   3
ENDBRANCH   1   2
END_RES ARG D 557
BEGIN_RES GLU D 570
REMARK  3 active torsions:
REMARK  status: ('A' for Active; 'I' for Inactive)
REMARK    5  A    between atoms: CA   and  CB  
REMARK    6  A    between atoms: CB   and  CG  
REMARK    7  A    between atoms: CG   and  CD  
ROOT
ATOM     14  CA  GLU D 570     -18.033  -6.348 -13.375  1.00 32.92     0.160 C 
ENDROOT
BRANCH  14  15
ATOM     15  CB  GLU D 570     -19.500  -6.345 -13.794  1.00 32.92     0.043 C 
BRANCH  15  16
ATOM     16  CG  GLU D 570     -19.808  -5.997 -15.205  1.00 32.92     0.100 C 
BRANCH  16  17
ATOM     17  CD  GLU D 570     -21.177  -5.380 -15.375  1.00 32.92     0.185 C 
ATOM     18  OE1 GLU D 570     -21.821  -5.049 -14.361  1.00 32.92    -0.647 OA
ATOM     19  OE2 GLU D 570     -21.617  -5.243 -16.533  1.00 32.92    -0.647 OA
ENDBRANCH  16  17
ENDBRANCH  15  16
ENDBRANCH  14  15
END_RES GLU D 570
ENDMDL
