MODEL 1
REMARK VINA RESULT:      -8.3      0.000      0.000
REMARK  4 active torsions:
REMARK  status: ('A' for Active; 'I' for Inactive)
REMARK    1  A    between atoms: C_5  and  N_6 
REMARK       I    between atoms: N_6  and  C_7 
REMARK       I    between atoms: C_7  and  N_9 
REMARK    2  A    between atoms: N_9  and  C_10 
REMARK    3  A    between atoms: C_12  and  C_13 
REMARK    4  A    between atoms: C_12  and  C_15 
ROOT
HETATM    1  N   UNL     1     -19.555 -10.479  -2.660  1.00  0.00    -0.308 N 
HETATM    2  C   UNL     1     -18.296 -10.076  -2.998  1.00  0.00     0.321 C 
HETATM    3  O   UNL     1     -17.726  -9.068  -2.606  1.00  0.00    -0.247 OA
HETATM    4  N   UNL     1     -17.687 -10.866  -3.922  1.00  0.00    -0.334 N 
HETATM    5  H   UNL     1     -20.024 -10.832  -3.481  1.00  0.00     0.170 HD
HETATM    6  H   UNL     1     -16.986 -10.343  -4.430  1.00  0.00     0.165 HD
ENDROOT
BRANCH   4   7
HETATM    7  C   UNL     1     -18.045 -12.186  -4.414  1.00  0.00     0.125 C 
HETATM    8  C   UNL     1     -16.892 -13.247  -4.267  1.00  0.00     0.073 C 
HETATM    9  C   UNL     1     -15.598 -12.727  -4.968  1.00  0.00     0.121 C 
HETATM   10  O   UNL     1     -15.955 -11.878  -6.097  1.00  0.00    -0.335 OA
HETATM   11  C   UNL     1     -17.139 -12.289  -6.674  1.00  0.00     0.080 C 
HETATM   12  C   UNL     1     -17.182 -12.990  -7.869  1.00  0.00     0.061 C 
HETATM   13  C   UNL     1     -18.300 -12.168  -5.902  1.00  0.00    -0.002 C 
HETATM   14  C   UNL     1     -18.421 -13.436  -8.336  1.00  0.00     0.036 C 
HETATM   15 CL   UNL     1     -18.488 -14.555  -9.644  1.00  0.00    -0.084 Cl
HETATM   16  C   UNL     1     -19.608 -13.070  -7.694  1.00  0.00     0.024 C 
HETATM   17  C   UNL     1     -19.554 -12.428  -6.459  1.00  0.00     0.013 C 
BRANCH   9  18
HETATM   18  C   UNL     1     -14.625 -13.752  -5.577  1.00  0.00     0.263 C 
HETATM   19  F   UNL     1     -13.556 -13.055  -6.088  1.00  0.00    -0.252 F 
ENDBRANCH   9  18
BRANCH   9  20
HETATM   20  C   UNL     1     -14.768 -12.010  -3.880  1.00  0.00     0.263 C 
HETATM   21  F   UNL     1     -15.145 -12.511  -2.662  1.00  0.00    -0.252 F 
ENDBRANCH   9  20
ENDBRANCH   4   7
BRANCH   1  22
HETATM   22  C   UNL     1     -20.402  -9.758  -1.788  1.00  0.00     0.047 A 
HETATM   23  C   UNL     1     -21.059  -8.538  -2.134  1.00  0.00     0.004 A 
HETATM   24  C   UNL     1     -21.090  -7.947  -3.421  1.00  0.00     0.039 A 
HETATM   25  C   UNL     1     -21.704  -7.836  -1.095  1.00  0.00    -0.008 A 
HETATM   26  C   UNL     1     -21.742  -6.727  -3.625  1.00  0.00     0.005 A 
HETATM   27  C   UNL     1     -21.857  -6.130  -4.994  1.00  0.00     0.068 C 
HETATM   28  N   UNL     1     -22.310  -6.034  -2.619  1.00  0.00    -0.369 N 
HETATM   29  C   UNL     1     -22.278  -6.597  -1.393  1.00  0.00     0.100 A 
ATOM     30  HN  UNL     1     -22.746  -5.125  -2.778  1.00  0.00     0.165 HD
HETATM   31  C   UNL     1     -21.748  -8.352   0.211  1.00  0.00     0.014 A 
HETATM   32  C   UNL     1     -21.149  -9.570   0.515  1.00  0.00     0.003 A 
HETATM   33  C   UNL     1     -20.462 -10.256  -0.476  1.00  0.00     0.030 A 
ENDBRANCH   1  22
TORSDOF 4
BEGIN_RES ARG D 557
REMARK  4 active torsions:
REMARK  status: ('A' for Active; 'I' for Inactive)
REMARK    1  A    between atoms: CA   and  CB  
REMARK    2  A    between atoms: CB   and  CG  
REMARK    3  A    between atoms: CG   and  CD  
REMARK    4  A    between atoms: CD   and  NE  
REMARK       I    between atoms: NE   and  CZ  
REMARK       I    between atoms: CZ   and  NH1 
REMARK       I    between atoms: CZ   and  NH2 
ROOT
ATOM      1  CA  ARG D 557     -26.217   2.705 -17.014  1.00 35.49     0.159 C 
ENDROOT
BRANCH   1   2
ATOM      2  CB  ARG D 557     -26.789   1.319 -17.183  1.00 35.49     0.034 C 
BRANCH   2   3
ATOM      3  CG  ARG D 557     -25.835   0.203 -17.158  1.00 35.49     0.027 C 
BRANCH   3   4
ATOM      4  CD  ARG D 557     -24.751   0.410 -16.171  1.00 35.49     0.116 C 
BRANCH   4   5
ATOM      5  NE  ARG D 557     -24.900  -0.435 -15.016  1.00 35.49    -0.212 N 
ATOM      6  CZ  ARG D 557     -24.089  -1.410 -14.668  1.00 35.49     0.666 C 
ATOM      7  NH1 ARG D 557     -23.024  -1.733 -15.377  1.00 35.49    -0.235 N 
ATOM      8  NH2 ARG D 557     -24.367  -2.060 -13.575  1.00 35.49    -0.235 N 
ATOM      9  HH  ARG D 557     -22.820  -1.318 -16.098  1.00 35.49     0.174 HD
ATOM     10  HH  ARG D 557     -22.530  -2.376 -15.099  1.00 35.49     0.174 HD
ATOM     11  HH  ARG D 557     -25.058  -1.824 -13.134  1.00 35.49     0.174 HD
ATOM     12  HH  ARG D 557     -23.865  -2.693 -13.316  1.00 35.49     0.174 HD
ATOM     13  HE  ARG D 557     -25.600  -0.344 -14.542  1.00 35.49     0.178 HD
ENDBRANCH   4   5
ENDBRANCH   3   4
ENDBRANCH   2   3
ENDBRANCH   1   2
END_RES ARG D 557
BEGIN_RES GLU D 570
REMARK  3 active torsions:
REMARK  status: ('A' for Active; 'I' for Inactive)
REMARK    5  A    between atoms: CA   and  CB  
REMARK    6  A    between atoms: CB   and  CG  
REMARK    7  A    between atoms: CG   and  CD  
ROOT
ATOM     14  CA  GLU D 570     -18.033  -6.348 -13.375  1.00 32.92     0.160 C 
ENDROOT
BRANCH  14  15
ATOM     15  CB  GLU D 570     -19.500  -6.345 -13.794  1.00 32.92     0.043 C 
BRANCH  15  16
ATOM     16  CG  GLU D 570     -20.442  -5.533 -12.981  1.00 32.92     0.100 C 
BRANCH  16  17
ATOM     17  CD  GLU D 570     -21.741  -5.244 -13.698  1.00 32.92     0.185 C 
ATOM     18  OE1 GLU D 570     -22.197  -6.092 -14.489  1.00 32.92    -0.647 OA
ATOM     19  OE2 GLU D 570     -22.298  -4.151 -13.479  1.00 32.92    -0.647 OA
ENDBRANCH  16  17
ENDBRANCH  15  16
ENDBRANCH  14  15
END_RES GLU D 570
ENDMDL
MODEL 2
REMARK VINA RESULT:      -8.2      2.513      3.348
REMARK  4 active torsions:
REMARK  status: ('A' for Active; 'I' for Inactive)
REMARK    1  A    between atoms: C_5  and  N_6 
REMARK       I    between atoms: N_6  and  C_7 
REMARK       I    between atoms: C_7  and  N_9 
REMARK    2  A    between atoms: N_9  and  C_10 
REMARK    3  A    between atoms: C_12  and  C_13 
REMARK    4  A    between atoms: C_12  and  C_15 
ROOT
HETATM    1  N   UNL     1     -19.513 -10.198  -1.378  1.00  0.00    -0.308 N 
HETATM    2  C   UNL     1     -19.664 -11.243  -2.242  1.00  0.00     0.321 C 
HETATM    3  O   UNL     1     -20.698 -11.578  -2.803  1.00  0.00    -0.247 OA
HETATM    4  N   UNL     1     -18.547 -12.001  -2.401  1.00  0.00    -0.334 N 
HETATM    5  H   UNL     1     -18.924 -10.482  -0.610  1.00  0.00     0.170 HD
HETATM    6  H   UNL     1     -18.792 -12.940  -2.687  1.00  0.00     0.165 HD
ENDROOT
BRANCH   4   7
HETATM    7  C   UNL     1     -17.171 -11.742  -2.011  1.00  0.00     0.125 C 
HETATM    8  C   UNL     1     -16.442 -10.694  -2.931  1.00  0.00     0.073 C 
HETATM    9  C   UNL     1     -16.518 -11.150  -4.422  1.00  0.00     0.121 C 
HETATM   10  O   UNL     1     -16.543 -12.605  -4.492  1.00  0.00    -0.335 OA
HETATM   11  C   UNL     1     -15.822 -13.166  -3.457  1.00  0.00     0.080 C 
HETATM   12  C   UNL     1     -14.559 -13.708  -3.637  1.00  0.00     0.061 C 
HETATM   13  C   UNL     1     -16.315 -12.977  -2.162  1.00  0.00    -0.002 C 
HETATM   14  C   UNL     1     -13.871 -14.179  -2.517  1.00  0.00     0.036 C 
HETATM   15 CL   UNL     1     -12.200 -14.580  -2.647  1.00  0.00    -0.084 Cl
HETATM   16  C   UNL     1     -14.487 -14.236  -1.263  1.00  0.00     0.024 C 
HETATM   17  C   UNL     1     -15.726 -13.628  -1.076  1.00  0.00     0.013 C 
BRANCH   9  18
HETATM   18  C   UNL     1     -15.374 -10.759  -5.373  1.00  0.00     0.263 C 
HETATM   19  F   UNL     1     -15.200  -9.398  -5.274  1.00  0.00    -0.252 F 
ENDBRANCH   9  18
BRANCH   9  20
HETATM   20  C   UNL     1     -17.768 -10.470  -5.024  1.00  0.00     0.263 C 
HETATM   21  F   UNL     1     -17.986  -9.304  -4.340  1.00  0.00    -0.252 F 
ENDBRANCH   9  20
ENDBRANCH   4   7
BRANCH   1  22
HETATM   22  C   UNL     1     -20.567  -9.336  -0.997  1.00  0.00     0.047 A 
HETATM   23  C   UNL     1     -21.030  -8.238  -1.784  1.00  0.00     0.004 A 
HETATM   24  C   UNL     1     -20.621  -7.932  -3.105  1.00  0.00     0.039 A 
HETATM   25  C   UNL     1     -21.948  -7.354  -1.179  1.00  0.00    -0.008 A 
HETATM   26  C   UNL     1     -21.125  -6.804  -3.759  1.00  0.00     0.005 A 
HETATM   27  C   UNL     1     -20.770  -6.512  -5.185  1.00  0.00     0.068 C 
HETATM   28  N   UNL     1     -21.960  -5.933  -3.159  1.00  0.00    -0.369 N 
HETATM   29  C   UNL     1     -22.346  -6.224  -1.899  1.00  0.00     0.100 A 
ATOM     30  HN  UNL     1     -22.286  -5.092  -3.636  1.00  0.00     0.165 HD
HETATM   31  C   UNL     1     -22.429  -7.585   0.120  1.00  0.00     0.014 A 
HETATM   32  C   UNL     1     -22.008  -8.692   0.848  1.00  0.00     0.003 A 
HETATM   33  C   UNL     1     -21.066  -9.549   0.299  1.00  0.00     0.030 A 
ENDBRANCH   1  22
TORSDOF 4
BEGIN_RES ARG D 557
REMARK  4 active torsions:
REMARK  status: ('A' for Active; 'I' for Inactive)
REMARK    1  A    between atoms: CA   and  CB  
REMARK    2  A    between atoms: CB   and  CG  
REMARK    3  A    between atoms: CG   and  CD  
REMARK    4  A    between atoms: CD   and  NE  
REMARK       I    between atoms: NE   and  CZ  
REMARK       I    between atoms: CZ   and  NH1 
REMARK       I    between atoms: CZ   and  NH2 
ROOT
ATOM      1  CA  ARG D 557     -26.217   2.705 -17.014  1.00 35.49     0.159 C 
ENDROOT
BRANCH   1   2
ATOM      2  CB  ARG D 557     -26.789   1.319 -17.183  1.00 35.49     0.034 C 
BRANCH   2   3
ATOM      3  CG  ARG D 557     -25.872   0.194 -16.960  1.00 35.49     0.027 C 
BRANCH   3   4
ATOM      4  CD  ARG D 557     -26.336  -0.706 -15.880  1.00 35.49     0.116 C 
BRANCH   4   5
ATOM      5  NE  ARG D 557     -25.306  -0.964 -14.909  1.00 35.49    -0.212 N 
ATOM      6  CZ  ARG D 557     -25.039  -2.129 -14.362  1.00 35.49     0.666 C 
ATOM      7  NH1 ARG D 557     -25.725  -3.220 -14.649  1.00 35.49    -0.235 N 
ATOM      8  NH2 ARG D 557     -24.054  -2.182 -13.514  1.00 35.49    -0.235 N 
ATOM      9  HH  ARG D 557     -26.376  -3.208 -15.205  1.00 35.49     0.174 HD
ATOM     10  HH  ARG D 557     -25.504  -3.952 -14.263  1.00 35.49     0.174 HD
ATOM     11  HH  ARG D 557     -23.624  -1.463 -13.354  1.00 35.49     0.174 HD
ATOM     12  HH  ARG D 557     -23.849  -2.917 -13.144  1.00 35.49     0.174 HD
ATOM     13  HE  ARG D 557     -24.862  -0.301 -14.612  1.00 35.49     0.178 HD
ENDBRANCH   4   5
ENDBRANCH   3   4
ENDBRANCH   2   3
ENDBRANCH   1   2
END_RES ARG D 557
BEGIN_RES GLU D 570
REMARK  3 active torsions:
REMARK  status: ('A' for Active; 'I' for Inactive)
REMARK    5  A    between atoms: CA   and  CB  
REMARK    6  A    between atoms: CB   and  CG  
REMARK    7  A    between atoms: CG   and  CD  
ROOT
ATOM     14  CA  GLU D 570     -18.033  -6.348 -13.375  1.00 32.92     0.160 C 
ENDROOT
BRANCH  14  15
ATOM     15  CB  GLU D 570     -19.500  -6.345 -13.794  1.00 32.92     0.043 C 
BRANCH  15  16
ATOM     16  CG  GLU D 570     -20.448  -5.558 -12.963  1.00 32.92     0.100 C 
BRANCH  16  17
ATOM     17  CD  GLU D 570     -21.702  -5.168 -13.709  1.00 32.92     0.185 C 
ATOM     18  OE1 GLU D 570     -21.695  -5.183 -14.955  1.00 32.92    -0.647 OA
ATOM     19  OE2 GLU D 570     -22.698  -4.828 -13.041  1.00 32.92    -0.647 OA
ENDBRANCH  16  17
ENDBRANCH  15  16
ENDBRANCH  14  15
END_RES GLU D 570
ENDMDL
MODEL 3
REMARK VINA RESULT:      -8.1      2.872      3.757
REMARK  4 active torsions:
REMARK  status: ('A' for Active; 'I' for Inactive)
REMARK    1  A    between atoms: C_5  and  N_6 
REMARK       I    between atoms: N_6  and  C_7 
REMARK       I    between atoms: C_7  and  N_9 
REMARK    2  A    between atoms: N_9  and  C_10 
REMARK    3  A    between atoms: C_12  and  C_13 
REMARK    4  A    between atoms: C_12  and  C_15 
ROOT
HETATM    1  N   UNL     1     -19.511 -10.166  -1.474  1.00  0.00    -0.308 N 
HETATM    2  C   UNL     1     -19.680 -11.244  -2.293  1.00  0.00     0.321 C 
HETATM    3  O   UNL     1     -20.725 -11.601  -2.818  1.00  0.00    -0.247 OA
HETATM    4  N   UNL     1     -18.565 -12.008  -2.447  1.00  0.00    -0.334 N 
HETATM    5  H   UNL     1     -18.905 -10.420  -0.709  1.00  0.00     0.170 HD
HETATM    6  H   UNL     1     -18.815 -12.958  -2.690  1.00  0.00     0.165 HD
ENDROOT
BRANCH   4   7
HETATM    7  C   UNL     1     -17.181 -11.733  -2.097  1.00  0.00     0.125 C 
HETATM    8  C   UNL     1     -16.467 -10.739  -3.085  1.00  0.00     0.073 C 
HETATM    9  C   UNL     1     -16.572 -11.273  -4.548  1.00  0.00     0.121 C 
HETATM   10  O   UNL     1     -16.602 -12.730  -4.540  1.00  0.00    -0.335 OA
HETATM   11  C   UNL     1     -15.864 -13.238  -3.490  1.00  0.00     0.080 C 
HETATM   12  C   UNL     1     -14.606 -13.793  -3.664  1.00  0.00     0.061 C 
HETATM   13  C   UNL     1     -16.332 -12.978  -2.198  1.00  0.00    -0.002 C 
HETATM   14  C   UNL     1     -13.898 -14.207  -2.533  1.00  0.00     0.036 C 
HETATM   15 CL   UNL     1     -12.231 -14.620  -2.673  1.00  0.00    -0.084 Cl
HETATM   16  C   UNL     1     -14.491 -14.195  -1.267  1.00  0.00     0.024 C 
HETATM   17  C   UNL     1     -15.724 -13.572  -1.090  1.00  0.00     0.013 C 
BRANCH   9  18
HETATM   18  C   UNL     1     -15.446 -10.938  -5.540  1.00  0.00     0.263 C 
HETATM   19  F   UNL     1     -15.639  -9.645  -5.965  1.00  0.00    -0.252 F 
ENDBRANCH   9  18
BRANCH   9  20
HETATM   20  C   UNL     1     -17.831 -10.622  -5.162  1.00  0.00     0.263 C 
HETATM   21  F   UNL     1     -18.047  -9.431  -4.520  1.00  0.00    -0.252 F 
ENDBRANCH   9  20
ENDBRANCH   4   7
BRANCH   1  22
HETATM   22  C   UNL     1     -20.557  -9.290  -1.105  1.00  0.00     0.047 A 
HETATM   23  C   UNL     1     -21.042  -8.227  -1.926  1.00  0.00     0.004 A 
HETATM   24  C   UNL     1     -20.667  -7.978  -3.269  1.00  0.00     0.039 A 
HETATM   25  C   UNL     1     -21.946  -7.319  -1.338  1.00  0.00    -0.008 A 
HETATM   26  C   UNL     1     -21.189  -6.880  -3.959  1.00  0.00     0.005 A 
HETATM   27  C   UNL     1     -20.870  -6.649  -5.404  1.00  0.00     0.068 C 
HETATM   28  N   UNL     1     -22.011  -5.985  -3.376  1.00  0.00    -0.369 N 
HETATM   29  C   UNL     1     -22.366  -6.222  -2.096  1.00  0.00     0.100 A 
ATOM     30  HN  UNL     1     -22.351  -5.166  -3.881  1.00  0.00     0.165 HD
HETATM   31  C   UNL     1     -22.395  -7.495  -0.019  1.00  0.00     0.014 A 
HETATM   32  C   UNL     1     -21.954  -8.569   0.746  1.00  0.00     0.003 A 
HETATM   33  C   UNL     1     -21.023  -9.448   0.211  1.00  0.00     0.030 A 
ENDBRANCH   1  22
TORSDOF 4
BEGIN_RES ARG D 557
REMARK  4 active torsions:
REMARK  status: ('A' for Active; 'I' for Inactive)
REMARK    1  A    between atoms: CA   and  CB  
REMARK    2  A    between atoms: CB   and  CG  
REMARK    3  A    between atoms: CG   and  CD  
REMARK    4  A    between atoms: CD   and  NE  
REMARK       I    between atoms: NE   and  CZ  
REMARK       I    between atoms: CZ   and  NH1 
REMARK       I    between atoms: CZ   and  NH2 
ROOT
ATOM      1  CA  ARG D 557     -26.217   2.705 -17.014  1.00 35.49     0.159 C 
ENDROOT
BRANCH   1   2
ATOM      2  CB  ARG D 557     -26.789   1.319 -17.183  1.00 35.49     0.034 C 
BRANCH   2   3
ATOM      3  CG  ARG D 557     -28.230   1.227 -17.450  1.00 35.49     0.027 C 
BRANCH   3   4
ATOM      4  CD  ARG D 557     -28.918   0.305 -16.517  1.00 35.49     0.116 C 
BRANCH   4   5
ATOM      5  NE  ARG D 557     -29.277  -0.937 -17.149  1.00 35.49    -0.212 N 
ATOM      6  CZ  ARG D 557     -28.633  -2.076 -17.025  1.00 35.49     0.666 C 
ATOM      7  NH1 ARG D 557     -27.542  -2.197 -16.292  1.00 35.49    -0.235 N 
ATOM      8  NH2 ARG D 557     -29.114  -3.109 -17.654  1.00 35.49    -0.235 N 
ATOM      9  HH  ARG D 557     -27.209  -1.531 -15.868  1.00 35.49     0.174 HD
ATOM     10  HH  ARG D 557     -27.166  -2.966 -16.247  1.00 35.49     0.174 HD
ATOM     11  HH  ARG D 557     -29.825  -3.002 -18.114  1.00 35.49     0.174 HD
ATOM     12  HH  ARG D 557     -28.728  -3.862 -17.595  1.00 35.49     0.174 HD
ATOM     13  HE  ARG D 557     -29.927  -0.933 -17.698  1.00 35.49     0.178 HD
ENDBRANCH   4   5
ENDBRANCH   3   4
ENDBRANCH   2   3
ENDBRANCH   1   2
END_RES ARG D 557
BEGIN_RES GLU D 570
REMARK  3 active torsions:
REMARK  status: ('A' for Active; 'I' for Inactive)
REMARK    5  A    between atoms: CA   and  CB  
REMARK    6  A    between atoms: CB   and  CG  
REMARK    7  A    between atoms: CG   and  CD  
ROOT
ATOM     14  CA  GLU D 570     -18.033  -6.348 -13.375  1.00 32.92     0.160 C 
ENDROOT
BRANCH  14  15
ATOM     15  CB  GLU D 570     -19.500  -6.345 -13.794  1.00 32.92     0.043 C 
BRANCH  15  16
ATOM     16  CG  GLU D 570     -20.448  -5.560 -12.962  1.00 32.92     0.100 C 
BRANCH  16  17
ATOM     17  CD  GLU D 570     -21.707  -5.177 -13.705  1.00 32.92     0.185 C 
ATOM     18  OE1 GLU D 570     -21.696  -5.169 -14.951  1.00 32.92    -0.647 OA
ATOM     19  OE2 GLU D 570     -22.710  -4.866 -13.034  1.00 32.92    -0.647 OA
ENDBRANCH  16  17
ENDBRANCH  15  16
ENDBRANCH  14  15
END_RES GLU D 570
ENDMDL
MODEL 4
REMARK VINA RESULT:      -7.9      2.979      4.082
REMARK  4 active torsions:
REMARK  status: ('A' for Active; 'I' for Inactive)
REMARK    1  A    between atoms: C_5  and  N_6 
REMARK       I    between atoms: N_6  and  C_7 
REMARK       I    between atoms: C_7  and  N_9 
REMARK    2  A    between atoms: N_9  and  C_10 
REMARK    3  A    between atoms: C_12  and  C_13 
REMARK    4  A    between atoms: C_12  and  C_15 
ROOT
HETATM    1  N   UNL     1     -19.423  -9.974  -1.241  1.00  0.00    -0.308 N 
HETATM    2  C   UNL     1     -19.462 -11.138  -1.952  1.00  0.00     0.321 C 
HETATM    3  O   UNL     1     -20.437 -11.611  -2.519  1.00  0.00    -0.247 OA
HETATM    4  N   UNL     1     -18.299 -11.842  -1.934  1.00  0.00    -0.334 N 
HETATM    5  H   UNL     1     -18.873 -10.111  -0.407  1.00  0.00     0.170 HD
HETATM    6  H   UNL     1     -18.475 -12.825  -2.095  1.00  0.00     0.165 HD
ENDROOT
BRANCH   4   7
HETATM    7  C   UNL     1     -16.967 -11.447  -1.505  1.00  0.00     0.125 C 
HETATM    8  C   UNL     1     -15.931 -11.339  -2.684  1.00  0.00     0.073 C 
HETATM    9  C   UNL     1     -15.882 -12.684  -3.475  1.00  0.00     0.121 C 
HETATM   10  O   UNL     1     -16.172 -13.795  -2.578  1.00  0.00    -0.335 OA
HETATM   11  C   UNL     1     -15.723 -13.533  -1.299  1.00  0.00     0.080 C 
HETATM   12  C   UNL     1     -14.572 -14.107  -0.781  1.00  0.00     0.061 C 
HETATM   13  C   UNL     1     -16.348 -12.491  -0.606  1.00  0.00    -0.002 C 
HETATM   14  C   UNL     1     -14.151 -13.719   0.493  1.00  0.00     0.036 C 
HETATM   15 CL   UNL     1     -12.584 -14.174   1.049  1.00  0.00    -0.084 Cl
HETATM   16  C   UNL     1     -14.937 -12.881   1.289  1.00  0.00     0.024 C 
HETATM   17  C   UNL     1     -16.052 -12.253   0.738  1.00  0.00     0.013 C 
BRANCH   9  18
HETATM   18  C   UNL     1     -14.563 -13.095  -4.150  1.00  0.00     0.263 C 
HETATM   19  F   UNL     1     -13.558 -12.342  -3.591  1.00  0.00    -0.252 F 
ENDBRANCH   9  18
BRANCH   9  20
HETATM   20  C   UNL     1     -16.883 -12.541  -4.643  1.00  0.00     0.263 C 
HETATM   21  F   UNL     1     -16.166 -12.448  -5.806  1.00  0.00    -0.252 F 
ENDBRANCH   9  20
ENDBRANCH   4   7
BRANCH   1  22
HETATM   22  C   UNL     1     -20.543  -9.133  -1.051  1.00  0.00     0.047 A 
HETATM   23  C   UNL     1     -20.980  -8.153  -1.995  1.00  0.00     0.004 A 
HETATM   24  C   UNL     1     -20.469  -7.974  -3.303  1.00  0.00     0.039 A 
HETATM   25  C   UNL     1     -21.986  -7.258  -1.575  1.00  0.00    -0.008 A 
HETATM   26  C   UNL     1     -20.960  -6.953  -4.122  1.00  0.00     0.005 A 
HETATM   27  C   UNL     1     -20.491  -6.802  -5.537  1.00  0.00     0.068 C 
HETATM   28  N   UNL     1     -21.882  -6.067  -3.699  1.00  0.00    -0.369 N 
HETATM   29  C   UNL     1     -22.367  -6.237  -2.451  1.00  0.00     0.100 A 
ATOM     30  HN  UNL     1     -22.200  -5.303  -4.295  1.00  0.00     0.165 HD
HETATM   31  C   UNL     1     -22.572  -7.370  -0.303  1.00  0.00     0.014 A 
HETATM   32  C   UNL     1     -22.171  -8.366   0.580  1.00  0.00     0.003 A 
HETATM   33  C   UNL     1     -21.147  -9.228   0.214  1.00  0.00     0.030 A 
ENDBRANCH   1  22
TORSDOF 4
BEGIN_RES ARG D 557
REMARK  4 active torsions:
REMARK  status: ('A' for Active; 'I' for Inactive)
REMARK    1  A    between atoms: CA   and  CB  
REMARK    2  A    between atoms: CB   and  CG  
REMARK    3  A    between atoms: CG   and  CD  
REMARK    4  A    between atoms: CD   and  NE  
REMARK       I    between atoms: NE   and  CZ  
REMARK       I    between atoms: CZ   and  NH1 
REMARK       I    between atoms: CZ   and  NH2 
ROOT
ATOM      1  CA  ARG D 557     -26.217   2.705 -17.014  1.00 35.49     0.159 C 
ENDROOT
BRANCH   1   2
ATOM      2  CB  ARG D 557     -26.789   1.319 -17.183  1.00 35.49     0.034 C 
BRANCH   2   3
ATOM      3  CG  ARG D 557     -25.935   0.197 -16.774  1.00 35.49     0.027 C 
BRANCH   3   4
ATOM      4  CD  ARG D 557     -26.694  -0.864 -16.075  1.00 35.49     0.116 C 
BRANCH   4   5
ATOM      5  NE  ARG D 557     -25.951  -1.432 -14.981  1.00 35.49    -0.212 N 
ATOM      6  CZ  ARG D 557     -25.922  -2.704 -14.650  1.00 35.49     0.666 C 
ATOM      7  NH1 ARG D 557     -26.608  -3.622 -15.304  1.00 35.49    -0.235 N 
ATOM      8  NH2 ARG D 557     -25.175  -3.044 -13.640  1.00 35.49    -0.235 N 
ATOM      9  HH  ARG D 557     -27.105  -3.421 -15.973  1.00 35.49     0.174 HD
ATOM     10  HH  ARG D 557     -26.548  -4.437 -15.044  1.00 35.49     0.174 HD
ATOM     11  HH  ARG D 557     -24.737  -2.430 -13.241  1.00 35.49     0.174 HD
ATOM     12  HH  ARG D 557     -25.128  -3.856 -13.399  1.00 35.49     0.174 HD
ATOM     13  HE  ARG D 557     -25.537  -0.901 -14.461  1.00 35.49     0.178 HD
ENDBRANCH   4   5
ENDBRANCH   3   4
ENDBRANCH   2   3
ENDBRANCH   1   2
END_RES ARG D 557
BEGIN_RES GLU D 570
REMARK  3 active torsions:
REMARK  status: ('A' for Active; 'I' for Inactive)
REMARK    5  A    between atoms: CA   and  CB  
REMARK    6  A    between atoms: CB   and  CG  
REMARK    7  A    between atoms: CG   and  CD  
ROOT
ATOM     14  CA  GLU D 570     -18.033  -6.348 -13.375  1.00 32.92     0.160 C 
ENDROOT
BRANCH  14  15
ATOM     15  CB  GLU D 570     -19.500  -6.345 -13.794  1.00 32.92     0.043 C 
BRANCH  15  16
ATOM     16  CG  GLU D 570     -20.437  -5.510 -12.999  1.00 32.92     0.100 C 
BRANCH  16  17
ATOM     17  CD  GLU D 570     -21.749  -5.260 -13.706  1.00 32.92     0.185 C 
ATOM     18  OE1 GLU D 570     -22.177  -6.113 -14.507  1.00 32.92    -0.647 OA
ATOM     19  OE2 GLU D 570     -22.347  -4.192 -13.469  1.00 32.92    -0.647 OA
ENDBRANCH  16  17
ENDBRANCH  15  16
ENDBRANCH  14  15
END_RES GLU D 570
ENDMDL
MODEL 5
REMARK VINA RESULT:      -7.9      1.604      1.808
REMARK  4 active torsions:
REMARK  status: ('A' for Active; 'I' for Inactive)
REMARK    1  A    between atoms: C_5  and  N_6 
REMARK       I    between atoms: N_6  and  C_7 
REMARK       I    between atoms: C_7  and  N_9 
REMARK    2  A    between atoms: N_9  and  C_10 
REMARK    3  A    between atoms: C_12  and  C_13 
REMARK    4  A    between atoms: C_12  and  C_15 
ROOT
HETATM    1  N   UNL     1     -19.552 -10.487  -2.643  1.00  0.00    -0.308 N 
HETATM    2  C   UNL     1     -18.286 -10.093  -2.963  1.00  0.00     0.321 C 
HETATM    3  O   UNL     1     -17.714  -9.089  -2.561  1.00  0.00    -0.247 OA
HETATM    4  N   UNL     1     -17.671 -10.884  -3.883  1.00  0.00    -0.334 N 
HETATM    5  H   UNL     1     -20.013 -10.834  -3.471  1.00  0.00     0.170 HD
HETATM    6  H   UNL     1     -16.959 -10.365  -4.380  1.00  0.00     0.165 HD
ENDROOT
BRANCH   4   7
HETATM    7  C   UNL     1     -18.032 -12.200  -4.382  1.00  0.00     0.125 C 
HETATM    8  C   UNL     1     -16.887 -13.268  -4.229  1.00  0.00     0.073 C 
HETATM    9  C   UNL     1     -15.583 -12.754  -4.916  1.00  0.00     0.121 C 
HETATM   10  O   UNL     1     -15.925 -11.898  -6.045  1.00  0.00    -0.335 OA
HETATM   11  C   UNL     1     -17.106 -12.299  -6.635  1.00  0.00     0.080 C 
HETATM   12  C   UNL     1     -17.142 -12.995  -7.833  1.00  0.00     0.061 C 
HETATM   13  C   UNL     1     -18.273 -12.174  -5.873  1.00  0.00    -0.002 C 
HETATM   14  C   UNL     1     -18.379 -13.432  -8.313  1.00  0.00     0.036 C 
HETATM   15 CL   UNL     1     -18.441 -14.546  -9.626  1.00  0.00    -0.084 Cl
HETATM   16  C   UNL     1     -19.570 -13.062  -7.680  1.00  0.00     0.024 C 
HETATM   17  C   UNL     1     -19.523 -12.425  -6.442  1.00  0.00     0.013 C 
BRANCH   9  18
HETATM   18  C   UNL     1     -14.611 -13.782  -5.520  1.00  0.00     0.263 C 
HETATM   19  F   UNL     1     -13.947 -13.167  -6.555  1.00  0.00    -0.252 F 
ENDBRANCH   9  18
BRANCH   9  20
HETATM   20  C   UNL     1     -14.759 -12.046  -3.817  1.00  0.00     0.263 C 
HETATM   21  F   UNL     1     -13.524 -12.636  -3.768  1.00  0.00    -0.252 F 
ENDBRANCH   9  20
ENDBRANCH   4   7
BRANCH   1  22
HETATM   22  C   UNL     1     -20.405  -9.762  -1.780  1.00  0.00     0.047 A 
HETATM   23  C   UNL     1     -21.051  -8.538  -2.132  1.00  0.00     0.004 A 
HETATM   24  C   UNL     1     -21.063  -7.945  -3.418  1.00  0.00     0.039 A 
HETATM   25  C   UNL     1     -21.704  -7.834  -1.099  1.00  0.00    -0.008 A 
HETATM   26  C   UNL     1     -21.706  -6.721  -3.628  1.00  0.00     0.005 A 
HETATM   27  C   UNL     1     -21.801  -6.122  -4.997  1.00  0.00     0.068 C 
HETATM   28  N   UNL     1     -22.282  -6.026  -2.628  1.00  0.00    -0.369 N 
HETATM   29  C   UNL     1     -22.267  -6.591  -1.402  1.00  0.00     0.100 A 
ATOM     30  HN  UNL     1     -22.710  -5.115  -2.790  1.00  0.00     0.165 HD
HETATM   31  C   UNL     1     -21.766  -8.352   0.206  1.00  0.00     0.014 A 
HETATM   32  C   UNL     1     -21.178  -9.573   0.514  1.00  0.00     0.003 A 
HETATM   33  C   UNL     1     -20.484 -10.262  -0.469  1.00  0.00     0.030 A 
ENDBRANCH   1  22
TORSDOF 4
BEGIN_RES ARG D 557
REMARK  4 active torsions:
REMARK  status: ('A' for Active; 'I' for Inactive)
REMARK    1  A    between atoms: CA   and  CB  
REMARK    2  A    between atoms: CB   and  CG  
REMARK    3  A    between atoms: CG   and  CD  
REMARK    4  A    between atoms: CD   and  NE  
REMARK       I    between atoms: NE   and  CZ  
REMARK       I    between atoms: CZ   and  NH1 
REMARK       I    between atoms: CZ   and  NH2 
ROOT
ATOM      1  CA  ARG D 557     -26.217   2.705 -17.014  1.00 35.49     0.159 C 
ENDROOT
BRANCH   1   2
ATOM      2  CB  ARG D 557     -26.789   1.319 -17.183  1.00 35.49     0.034 C 
BRANCH   2   3
ATOM      3  CG  ARG D 557     -28.227   1.227 -17.464  1.00 35.49     0.027 C 
BRANCH   3   4
ATOM      4  CD  ARG D 557     -28.922   0.295 -16.547  1.00 35.49     0.116 C 
BRANCH   4   5
ATOM      5  NE  ARG D 557     -28.135  -0.876 -16.265  1.00 35.49    -0.212 N 
ATOM      6  CZ  ARG D 557     -28.366  -2.086 -16.722  1.00 35.49     0.666 C 
ATOM      7  NH1 ARG D 557     -29.392  -2.364 -17.506  1.00 35.49    -0.235 N 
ATOM      8  NH2 ARG D 557     -27.534  -3.027 -16.380  1.00 35.49    -0.235 N 
ATOM      9  HH  ARG D 557     -29.951  -1.760 -17.745  1.00 35.49     0.174 HD
ATOM     10  HH  ARG D 557     -29.491  -3.171 -17.776  1.00 35.49     0.174 HD
ATOM     11  HH  ARG D 557     -26.877  -2.817 -15.879  1.00 35.49     0.174 HD
ATOM     12  HH  ARG D 557     -27.649  -3.819 -16.659  1.00 35.49     0.174 HD
ATOM     13  HE  ARG D 557     -27.496  -0.803 -15.709  1.00 35.49     0.178 HD
ENDBRANCH   4   5
ENDBRANCH   3   4
ENDBRANCH   2   3
ENDBRANCH   1   2
END_RES ARG D 557
BEGIN_RES GLU D 570
REMARK  3 active torsions:
REMARK  status: ('A' for Active; 'I' for Inactive)
REMARK    5  A    between atoms: CA   and  CB  
REMARK    6  A    between atoms: CB   and  CG  
REMARK    7  A    between atoms: CG   and  CD  
ROOT
ATOM     14  CA  GLU D 570     -18.033  -6.348 -13.375  1.00 32.92     0.160 C 
ENDROOT
BRANCH  14  15
ATOM     15  CB  GLU D 570     -19.500  -6.345 -13.794  1.00 32.92     0.043 C 
BRANCH  15  16
ATOM     16  CG  GLU D 570     -20.448  -5.559 -12.962  1.00 32.92     0.100 C 
BRANCH  16  17
ATOM     17  CD  GLU D 570     -21.702  -5.168 -13.708  1.00 32.92     0.185 C 
ATOM     18  OE1 GLU D 570     -21.661  -5.065 -14.949  1.00 32.92    -0.647 OA
ATOM     19  OE2 GLU D 570     -22.733  -4.945 -13.043  1.00 32.92    -0.647 OA
ENDBRANCH  16  17
ENDBRANCH  15  16
ENDBRANCH  14  15
END_RES GLU D 570
ENDMDL
MODEL 6
REMARK VINA RESULT:      -7.9      3.751      6.675
REMARK  4 active torsions:
REMARK  status: ('A' for Active; 'I' for Inactive)
REMARK    1  A    between atoms: C_5  and  N_6 
REMARK       I    between atoms: N_6  and  C_7 
REMARK       I    between atoms: C_7  and  N_9 
REMARK    2  A    between atoms: N_9  and  C_10 
REMARK    3  A    between atoms: C_12  and  C_13 
REMARK    4  A    between atoms: C_12  and  C_15 
ROOT
HETATM    1  N   UNL     1     -17.629 -11.050  -1.286  1.00  0.00    -0.308 N 
HETATM    2  C   UNL     1     -18.916 -11.454  -1.487  1.00  0.00     0.321 C 
HETATM    3  O   UNL     1     -19.397 -12.534  -1.173  1.00  0.00    -0.247 OA
HETATM    4  N   UNL     1     -19.679 -10.563  -2.176  1.00  0.00    -0.334 N 
HETATM    5  H   UNL     1     -17.301 -10.559  -2.103  1.00  0.00     0.170 HD
HETATM    6  H   UNL     1     -20.440 -11.036  -2.646  1.00  0.00     0.165 HD
ENDROOT
BRANCH   4   7
HETATM    7  C   UNL     1     -19.430  -9.170  -2.507  1.00  0.00     0.125 C 
HETATM    8  C   UNL     1     -20.000  -8.159  -1.446  1.00  0.00     0.073 C 
HETATM    9  C   UNL     1     -21.525  -8.413  -1.233  1.00  0.00     0.121 C 
HETATM   10  O   UNL     1     -22.118  -8.915  -2.466  1.00  0.00    -0.335 OA
HETATM   11  C   UNL     1     -21.480  -8.395  -3.573  1.00  0.00     0.080 C 
HETATM   12  C   UNL     1     -22.030  -7.383  -4.344  1.00  0.00     0.061 C 
HETATM   13  C   UNL     1     -20.147  -8.770  -3.774  1.00  0.00    -0.002 C 
HETATM   14  C   UNL     1     -21.275  -6.863  -5.398  1.00  0.00     0.036 C 
HETATM   15 CL   UNL     1     -21.789  -5.419  -6.185  1.00  0.00    -0.084 Cl
HETATM   16  C   UNL     1     -20.053  -7.436  -5.761  1.00  0.00     0.024 C 
HETATM   17  C   UNL     1     -19.474  -8.403  -4.941  1.00  0.00     0.013 C 
BRANCH   9  18
HETATM   18  C   UNL     1     -22.426  -7.226  -0.852  1.00  0.00     0.263 C 
HETATM   19  F   UNL     1     -21.856  -6.089  -1.375  1.00  0.00    -0.252 F 
ENDBRANCH   9  18
BRANCH   9  20
HETATM   20  C   UNL     1     -21.644  -9.384  -0.037  1.00  0.00     0.263 C 
HETATM   21  F   UNL     1     -21.184  -8.739   1.080  1.00  0.00    -0.252 F 
ENDBRANCH   9  20
ENDBRANCH   4   7
BRANCH   1  22
HETATM   22  C   UNL     1     -16.641 -11.855  -0.673  1.00  0.00     0.047 A 
HETATM   23  C   UNL     1     -15.553 -12.461  -1.371  1.00  0.00     0.004 A 
HETATM   24  C   UNL     1     -15.209 -12.239  -2.727  1.00  0.00     0.039 A 
HETATM   25  C   UNL     1     -14.772 -13.396  -0.660  1.00  0.00    -0.008 A 
HETATM   26  C   UNL     1     -14.136 -12.922  -3.307  1.00  0.00     0.005 A 
HETATM   27  C   UNL     1     -13.705 -12.637  -4.713  1.00  0.00     0.068 C 
HETATM   28  N   UNL     1     -13.426 -13.853  -2.640  1.00  0.00    -0.369 N 
HETATM   29  C   UNL     1     -13.757 -14.066  -1.349  1.00  0.00     0.100 A 
ATOM     30  HN  UNL     1     -12.673 -14.373  -3.090  1.00  0.00     0.165 HD
HETATM   31  C   UNL     1     -15.021 -13.667   0.696  1.00  0.00     0.014 A 
HETATM   32  C   UNL     1     -16.050 -13.024   1.372  1.00  0.00     0.003 A 
HETATM   33  C   UNL     1     -16.868 -12.139   0.684  1.00  0.00     0.030 A 
ENDBRANCH   1  22
TORSDOF 4
BEGIN_RES ARG D 557
REMARK  4 active torsions:
REMARK  status: ('A' for Active; 'I' for Inactive)
REMARK    1  A    between atoms: CA   and  CB  
REMARK    2  A    between atoms: CB   and  CG  
REMARK    3  A    between atoms: CG   and  CD  
REMARK    4  A    between atoms: CD   and  NE  
REMARK       I    between atoms: NE   and  CZ  
REMARK       I    between atoms: CZ   and  NH1 
REMARK       I    between atoms: CZ   and  NH2 
ROOT
ATOM      1  CA  ARG D 557     -26.217   2.705 -17.014  1.00 35.49     0.159 C 
ENDROOT
BRANCH   1   2
ATOM      2  CB  ARG D 557     -26.789   1.319 -17.183  1.00 35.49     0.034 C 
BRANCH   2   3
ATOM      3  CG  ARG D 557     -25.836   0.203 -17.151  1.00 35.49     0.027 C 
BRANCH   3   4
ATOM      4  CD  ARG D 557     -24.756   0.412 -16.160  1.00 35.49     0.116 C 
BRANCH   4   5
ATOM      5  NE  ARG D 557     -24.902  -0.441 -15.010  1.00 35.49    -0.212 N 
ATOM      6  CZ  ARG D 557     -24.088  -1.414 -14.667  1.00 35.49     0.666 C 
ATOM      7  NH1 ARG D 557     -23.020  -1.729 -15.377  1.00 35.49    -0.235 N 
ATOM      8  NH2 ARG D 557     -24.364  -2.072 -13.578  1.00 35.49    -0.235 N 
ATOM      9  HH  ARG D 557     -22.818  -1.308 -16.095  1.00 35.49     0.174 HD
ATOM     10  HH  ARG D 557     -22.524  -2.371 -15.102  1.00 35.49     0.174 HD
ATOM     11  HH  ARG D 557     -25.056  -1.842 -13.136  1.00 35.49     0.174 HD
ATOM     12  HH  ARG D 557     -23.859  -2.704 -13.322  1.00 35.49     0.174 HD
ATOM     13  HE  ARG D 557     -25.603  -0.356 -14.536  1.00 35.49     0.178 HD
ENDBRANCH   4   5
ENDBRANCH   3   4
ENDBRANCH   2   3
ENDBRANCH   1   2
END_RES ARG D 557
BEGIN_RES GLU D 570
REMARK  3 active torsions:
REMARK  status: ('A' for Active; 'I' for Inactive)
REMARK    5  A    between atoms: CA   and  CB  
REMARK    6  A    between atoms: CB   and  CG  
REMARK    7  A    between atoms: CG   and  CD  
ROOT
ATOM     14  CA  GLU D 570     -18.033  -6.348 -13.375  1.00 32.92     0.160 C 
ENDROOT
BRANCH  14  15
ATOM     15  CB  GLU D 570     -19.500  -6.345 -13.794  1.00 32.92     0.043 C 
BRANCH  15  16
ATOM     16  CG  GLU D 570     -20.443  -5.537 -12.978  1.00 32.92     0.100 C 
BRANCH  16  17
ATOM     17  CD  GLU D 570     -21.732  -5.226 -13.703  1.00 32.92     0.185 C 
ATOM     18  OE1 GLU D 570     -22.298  -4.136 -13.491  1.00 32.92    -0.647 OA
ATOM     19  OE2 GLU D 570     -22.189  -6.088 -14.479  1.00 32.92    -0.647 OA
ENDBRANCH  16  17
ENDBRANCH  15  16
ENDBRANCH  14  15
END_RES GLU D 570
ENDMDL
MODEL 7
REMARK VINA RESULT:      -7.8      2.515      3.804
REMARK  4 active torsions:
REMARK  status: ('A' for Active; 'I' for Inactive)
REMARK    1  A    between atoms: C_5  and  N_6 
REMARK       I    between atoms: N_6  and  C_7 
REMARK       I    between atoms: C_7  and  N_9 
REMARK    2  A    between atoms: N_9  and  C_10 
REMARK    3  A    between atoms: C_12  and  C_13 
REMARK    4  A    between atoms: C_12  and  C_15 
ROOT
HETATM    1  N   UNL     1     -20.220  -9.262  -4.354  1.00  0.00    -0.308 N 
HETATM    2  C   UNL     1     -20.874 -10.404  -4.714  1.00  0.00     0.321 C 
HETATM    3  O   UNL     1     -21.983 -10.757  -4.337  1.00  0.00    -0.247 OA
HETATM    4  N   UNL     1     -20.150 -11.234  -5.512  1.00  0.00    -0.334 N 
HETATM    5  H   UNL     1     -19.247  -9.472  -4.193  1.00  0.00     0.170 HD
HETATM    6  H   UNL     1     -20.471 -12.188  -5.416  1.00  0.00     0.165 HD
ENDROOT
BRANCH   4   7
HETATM    7  C   UNL     1     -18.914 -10.997  -6.240  1.00  0.00     0.125 C 
HETATM    8  C   UNL     1     -18.712 -11.958  -7.469  1.00  0.00     0.073 C 
HETATM    9  C   UNL     1     -18.804 -13.445  -7.003  1.00  0.00     0.121 C 
HETATM   10  O   UNL     1     -18.328 -13.562  -5.631  1.00  0.00    -0.335 OA
HETATM   11  C   UNL     1     -17.339 -12.638  -5.366  1.00  0.00     0.080 C 
HETATM   12  C   UNL     1     -15.997 -12.981  -5.299  1.00  0.00     0.061 C 
HETATM   13  C   UNL     1     -17.706 -11.289  -5.381  1.00  0.00    -0.002 C 
HETATM   14  C   UNL     1     -15.058 -11.965  -5.107  1.00  0.00     0.036 C 
HETATM   15 CL   UNL     1     -13.381 -12.301  -5.316  1.00  0.00    -0.084 Cl
HETATM   16  C   UNL     1     -15.460 -10.651  -4.848  1.00  0.00     0.024 C 
HETATM   17  C   UNL     1     -16.802 -10.301  -4.986  1.00  0.00     0.013 C 
BRANCH   9  18
HETATM   18  C   UNL     1     -17.992 -14.508  -7.762  1.00  0.00     0.263 C 
HETATM   19  F   UNL     1     -18.691 -14.828  -8.902  1.00  0.00    -0.252 F 
ENDBRANCH   9  18
BRANCH   9  20
HETATM   20  C   UNL     1     -20.275 -13.875  -7.198  1.00  0.00     0.263 C 
HETATM   21  F   UNL     1     -20.838 -13.045  -8.131  1.00  0.00    -0.252 F 
ENDBRANCH   9  20
ENDBRANCH   4   7
BRANCH   1  22
HETATM   22  C   UNL     1     -20.749  -8.304  -3.459  1.00  0.00     0.047 A 
HETATM   23  C   UNL     1     -20.978  -8.543  -2.070  1.00  0.00     0.004 A 
HETATM   24  C   UNL     1     -20.581  -9.696  -1.349  1.00  0.00     0.039 A 
HETATM   25  C   UNL     1     -21.696  -7.561  -1.356  1.00  0.00    -0.008 A 
HETATM   26  C   UNL     1     -20.895  -9.827   0.007  1.00  0.00     0.005 A 
HETATM   27  C   UNL     1     -20.410 -10.999   0.805  1.00  0.00     0.068 C 
HETATM   28  N   UNL     1     -21.627  -8.911   0.671  1.00  0.00    -0.369 N 
HETATM   29  C   UNL     1     -22.006  -7.814  -0.017  1.00  0.00     0.100 A 
ATOM     30  HN  UNL     1     -21.882  -9.041   1.650  1.00  0.00     0.165 HD
HETATM   31  C   UNL     1     -22.112  -6.372  -1.978  1.00  0.00     0.014 A 
HETATM   32  C   UNL     1     -21.831  -6.134  -3.319  1.00  0.00     0.003 A 
HETATM   33  C   UNL     1     -21.172  -7.106  -4.058  1.00  0.00     0.030 A 
ENDBRANCH   1  22
TORSDOF 4
BEGIN_RES ARG D 557
REMARK  4 active torsions:
REMARK  status: ('A' for Active; 'I' for Inactive)
REMARK    1  A    between atoms: CA   and  CB  
REMARK    2  A    between atoms: CB   and  CG  
REMARK    3  A    between atoms: CG   and  CD  
REMARK    4  A    between atoms: CD   and  NE  
REMARK       I    between atoms: NE   and  CZ  
REMARK       I    between atoms: CZ   and  NH1 
REMARK       I    between atoms: CZ   and  NH2 
ROOT
ATOM      1  CA  ARG D 557     -26.217   2.705 -17.014  1.00 35.49     0.159 C 
ENDROOT
BRANCH   1   2
ATOM      2  CB  ARG D 557     -26.789   1.319 -17.183  1.00 35.49     0.034 C 
BRANCH   2   3
ATOM      3  CG  ARG D 557     -25.864   0.195 -16.993  1.00 35.49     0.027 C 
BRANCH   3   4
ATOM      4  CD  ARG D 557     -26.289  -0.707 -15.898  1.00 35.49     0.116 C 
BRANCH   4   5
ATOM      5  NE  ARG D 557     -25.241  -0.921 -14.935  1.00 35.49    -0.212 N 
ATOM      6  CZ  ARG D 557     -24.953  -2.065 -14.355  1.00 35.49     0.666 C 
ATOM      7  NH1 ARG D 557     -25.630  -3.172 -14.596  1.00 35.49    -0.235 N 
ATOM      8  NH2 ARG D 557     -23.954  -2.080 -13.521  1.00 35.49    -0.235 N 
ATOM      9  HH  ARG D 557     -26.290  -3.186 -15.143  1.00 35.49     0.174 HD
ATOM     10  HH  ARG D 557     -25.395  -3.889 -14.190  1.00 35.49     0.174 HD
ATOM     11  HH  ARG D 557     -23.530  -1.352 -13.391  1.00 35.49     0.174 HD
ATOM     12  HH  ARG D 557     -23.736  -2.801 -13.131  1.00 35.49     0.174 HD
ATOM     13  HE  ARG D 557     -24.801  -0.245 -14.667  1.00 35.49     0.178 HD
ENDBRANCH   4   5
ENDBRANCH   3   4
ENDBRANCH   2   3
ENDBRANCH   1   2
END_RES ARG D 557
BEGIN_RES GLU D 570
REMARK  3 active torsions:
REMARK  status: ('A' for Active; 'I' for Inactive)
REMARK    5  A    between atoms: CA   and  CB  
REMARK    6  A    between atoms: CB   and  CG  
REMARK    7  A    between atoms: CG   and  CD  
ROOT
ATOM     14  CA  GLU D 570     -18.033  -6.348 -13.375  1.00 32.92     0.160 C 
ENDROOT
BRANCH  14  15
ATOM     15  CB  GLU D 570     -19.500  -6.345 -13.794  1.00 32.92     0.043 C 
BRANCH  15  16
ATOM     16  CG  GLU D 570     -20.449  -5.563 -12.959  1.00 32.92     0.100 C 
BRANCH  16  17
ATOM     17  CD  GLU D 570     -21.675  -5.118 -13.721  1.00 32.92     0.185 C 
ATOM     18  OE1 GLU D 570     -21.621  -5.042 -14.964  1.00 32.92    -0.647 OA
ATOM     19  OE2 GLU D 570     -22.696  -4.826 -13.067  1.00 32.92    -0.647 OA
ENDBRANCH  16  17
ENDBRANCH  15  16
ENDBRANCH  14  15
END_RES GLU D 570
ENDMDL
MODEL 8
REMARK VINA RESULT:      -7.8      1.597      2.596
REMARK  4 active torsions:
REMARK  status: ('A' for Active; 'I' for Inactive)
REMARK    1  A    between atoms: C_5  and  N_6 
REMARK       I    between atoms: N_6  and  C_7 
REMARK       I    between atoms: C_7  and  N_9 
REMARK    2  A    between atoms: N_9  and  C_10 
REMARK    3  A    between atoms: C_12  and  C_13 
REMARK    4  A    between atoms: C_12  and  C_15 
ROOT
HETATM    1  N   UNL     1     -20.243  -9.319  -4.086  1.00  0.00    -0.308 N 
HETATM    2  C   UNL     1     -19.547  -9.059  -5.231  1.00  0.00     0.321 C 
HETATM    3  O   UNL     1     -19.306  -7.956  -5.701  1.00  0.00    -0.247 OA
HETATM    4  N   UNL     1     -19.174 -10.170  -5.921  1.00  0.00    -0.334 N 
HETATM    5  H   UNL     1     -20.855 -10.106  -4.239  1.00  0.00     0.170 HD
HETATM    6  H   UNL     1     -19.049  -9.954  -6.901  1.00  0.00     0.165 HD
ENDROOT
BRANCH   4   7
HETATM    7  C   UNL     1     -19.170 -11.568  -5.522  1.00  0.00     0.125 C 
HETATM    8  C   UNL     1     -17.866 -11.999  -4.754  1.00  0.00     0.073 C 
HETATM    9  C   UNL     1     -16.606 -11.665  -5.612  1.00  0.00     0.121 C 
HETATM   10  O   UNL     1     -16.936 -11.756  -7.029  1.00  0.00    -0.335 OA
HETATM   11  C   UNL     1     -17.899 -12.718  -7.255  1.00  0.00     0.080 C 
HETATM   12  C   UNL     1     -17.599 -13.962  -7.787  1.00  0.00     0.061 C 
HETATM   13  C   UNL     1     -19.172 -12.482  -6.724  1.00  0.00    -0.002 C 
HETATM   14  C   UNL     1     -18.626 -14.901  -7.905  1.00  0.00     0.036 C 
HETATM   15 CL   UNL     1     -18.246 -16.541  -8.276  1.00  0.00    -0.084 Cl
HETATM   16  C   UNL     1     -19.953 -14.559  -7.626  1.00  0.00     0.024 C 
HETATM   17  C   UNL     1     -20.236 -13.334  -7.026  1.00  0.00     0.013 C 
BRANCH   9  18
HETATM   18  C   UNL     1     -15.359 -12.553  -5.470  1.00  0.00     0.263 C 
HETATM   19  F   UNL     1     -14.483 -12.199  -6.469  1.00  0.00    -0.252 F 
ENDBRANCH   9  18
BRANCH   9  20
HETATM   20  C   UNL     1     -16.133 -10.263  -5.166  1.00  0.00     0.263 C 
HETATM   21  F   UNL     1     -16.017  -9.480  -6.283  1.00  0.00    -0.252 F 
ENDBRANCH   9  20
ENDBRANCH   4   7
BRANCH   1  22
HETATM   22  C   UNL     1     -20.803  -8.315  -3.264  1.00  0.00     0.047 A 
HETATM   23  C   UNL     1     -21.063  -8.472  -1.868  1.00  0.00     0.004 A 
HETATM   24  C   UNL     1     -20.673  -9.575  -1.071  1.00  0.00     0.039 A 
HETATM   25  C   UNL     1     -21.807  -7.457  -1.233  1.00  0.00    -0.008 A 
HETATM   26  C   UNL     1     -21.018  -9.628   0.283  1.00  0.00     0.005 A 
HETATM   27  C   UNL     1     -20.542 -10.744   1.161  1.00  0.00     0.068 C 
HETATM   28  N   UNL     1     -21.775  -8.682   0.873  1.00  0.00    -0.369 N 
HETATM   29  C   UNL     1     -22.148  -7.633   0.112  1.00  0.00     0.100 A 
ATOM     30  HN  UNL     1     -22.052  -8.756   1.852  1.00  0.00     0.165 HD
HETATM   31  C   UNL     1     -22.220  -6.312  -1.935  1.00  0.00     0.014 A 
HETATM   32  C   UNL     1     -21.908  -6.152  -3.280  1.00  0.00     0.003 A 
HETATM   33  C   UNL     1     -21.223  -7.159  -3.944  1.00  0.00     0.030 A 
ENDBRANCH   1  22
TORSDOF 4
BEGIN_RES ARG D 557
REMARK  4 active torsions:
REMARK  status: ('A' for Active; 'I' for Inactive)
REMARK    1  A    between atoms: CA   and  CB  
REMARK    2  A    between atoms: CB   and  CG  
REMARK    3  A    between atoms: CG   and  CD  
REMARK    4  A    between atoms: CD   and  NE  
REMARK       I    between atoms: NE   and  CZ  
REMARK       I    between atoms: CZ   and  NH1 
REMARK       I    between atoms: CZ   and  NH2 
ROOT
ATOM      1  CA  ARG D 557     -26.217   2.705 -17.014  1.00 35.49     0.159 C 
ENDROOT
BRANCH   1   2
ATOM      2  CB  ARG D 557     -26.789   1.319 -17.183  1.00 35.49     0.034 C 
BRANCH   2   3
ATOM      3  CG  ARG D 557     -25.837   0.202 -17.144  1.00 35.49     0.027 C 
BRANCH   3   4
ATOM      4  CD  ARG D 557     -24.755   0.417 -16.156  1.00 35.49     0.116 C 
BRANCH   4   5
ATOM      5  NE  ARG D 557     -24.896  -0.435 -15.005  1.00 35.49    -0.212 N 
ATOM      6  CZ  ARG D 557     -24.079  -1.407 -14.664  1.00 35.49     0.666 C 
ATOM      7  NH1 ARG D 557     -23.015  -1.722 -15.378  1.00 35.49    -0.235 N 
ATOM      8  NH2 ARG D 557     -24.350  -2.063 -13.573  1.00 35.49    -0.235 N 
ATOM      9  HH  ARG D 557     -22.816  -1.302 -16.098  1.00 35.49     0.174 HD
ATOM     10  HH  ARG D 557     -22.517  -2.364 -15.105  1.00 35.49     0.174 HD
ATOM     11  HH  ARG D 557     -25.040  -1.833 -13.128  1.00 35.49     0.174 HD
ATOM     12  HH  ARG D 557     -23.844  -2.695 -13.319  1.00 35.49     0.174 HD
ATOM     13  HE  ARG D 557     -25.594  -0.349 -14.528  1.00 35.49     0.178 HD
ENDBRANCH   4   5
ENDBRANCH   3   4
ENDBRANCH   2   3
ENDBRANCH   1   2
END_RES ARG D 557
BEGIN_RES GLU D 570
REMARK  3 active torsions:
REMARK  status: ('A' for Active; 'I' for Inactive)
REMARK    5  A    between atoms: CA   and  CB  
REMARK    6  A    between atoms: CB   and  CG  
REMARK    7  A    between atoms: CG   and  CD  
ROOT
ATOM     14  CA  GLU D 570     -18.033  -6.348 -13.375  1.00 32.92     0.160 C 
ENDROOT
BRANCH  14  15
ATOM     15  CB  GLU D 570     -19.500  -6.345 -13.794  1.00 32.92     0.043 C 
BRANCH  15  16
ATOM     16  CG  GLU D 570     -20.442  -5.532 -12.982  1.00 32.92     0.100 C 
BRANCH  16  17
ATOM     17  CD  GLU D 570     -21.737  -5.235 -13.703  1.00 32.92     0.185 C 
ATOM     18  OE1 GLU D 570     -22.205  -6.088 -14.481  1.00 32.92    -0.647 OA
ATOM     19  OE2 GLU D 570     -22.279  -4.131 -13.500  1.00 32.92    -0.647 OA
ENDBRANCH  16  17
ENDBRANCH  15  16
ENDBRANCH  14  15
END_RES GLU D 570
ENDMDL
MODEL 9
REMARK VINA RESULT:      -7.5     15.850     19.258
REMARK  4 active torsions:
REMARK  status: ('A' for Active; 'I' for Inactive)
REMARK    1  A    between atoms: C_5  and  N_6 
REMARK       I    between atoms: N_6  and  C_7 
REMARK       I    between atoms: C_7  and  N_9 
REMARK    2  A    between atoms: N_9  and  C_10 
REMARK    3  A    between atoms: C_12  and  C_13 
REMARK    4  A    between atoms: C_12  and  C_15 
ROOT
HETATM    1  N   UNL     1     -21.974   8.998   1.505  1.00  0.00    -0.308 N 
HETATM    2  C   UNL     1     -21.436  10.239   1.685  1.00  0.00     0.321 C 
HETATM    3  O   UNL     1     -21.961  11.307   1.405  1.00  0.00    -0.247 OA
HETATM    4  N   UNL     1     -20.158  10.230   2.151  1.00  0.00    -0.334 N 
HETATM    5  H   UNL     1     -21.264   8.373   1.157  1.00  0.00     0.170 HD
HETATM    6  H   UNL     1     -19.677  11.079   1.885  1.00  0.00     0.165 HD
ENDROOT
BRANCH   4   7
HETATM    7  C   UNL     1     -19.372   9.148   2.721  1.00  0.00     0.125 C 
HETATM    8  C   UNL     1     -19.727   8.835   4.221  1.00  0.00     0.073 C 
HETATM    9  C   UNL     1     -19.593  10.129   5.082  1.00  0.00     0.121 C 
HETATM   10  O   UNL     1     -18.559  10.990   4.521  1.00  0.00    -0.335 OA
HETATM   11  C   UNL     1     -17.561  10.246   3.926  1.00  0.00     0.080 C 
HETATM   12  C   UNL     1     -16.326  10.045   4.522  1.00  0.00     0.061 C 
HETATM   13  C   UNL     1     -17.908   9.509   2.789  1.00  0.00    -0.002 C 
HETATM   14  C   UNL     1     -15.406   9.210   3.883  1.00  0.00     0.036 C 
HETATM   15 CL   UNL     1     -13.991   8.697   4.722  1.00  0.00    -0.084 Cl
HETATM   16  C   UNL     1     -15.662   8.697   2.607  1.00  0.00     0.024 C 
HETATM   17  C   UNL     1     -16.929   8.844   2.047  1.00  0.00     0.013 C 
BRANCH   9  18
HETATM   18  C   UNL     1     -19.192   9.995   6.561  1.00  0.00     0.263 C 
HETATM   19  F   UNL     1     -19.810   8.872   7.058  1.00  0.00    -0.252 F 
ENDBRANCH   9  18
BRANCH   9  20
HETATM   20  C   UNL     1     -20.996  10.776   5.123  1.00  0.00     0.263 C 
HETATM   21  F   UNL     1     -21.925   9.779   4.984  1.00  0.00    -0.252 F 
ENDBRANCH   9  20
ENDBRANCH   4   7
BRANCH   1  22
HETATM   22  C   UNL     1     -23.253   8.772   0.947  1.00  0.00     0.047 A 
HETATM   23  C   UNL     1     -24.483   9.076   1.607  1.00  0.00     0.004 A 
HETATM   24  C   UNL     1     -24.616   9.774   2.832  1.00  0.00     0.039 A 
HETATM   25  C   UNL     1     -25.670   8.608   1.007  1.00  0.00    -0.008 A 
HETATM   26  C   UNL     1     -25.879   9.981   3.396  1.00  0.00     0.005 A 
HETATM   27  C   UNL     1     -26.047  10.789   4.646  1.00  0.00     0.068 C 
HETATM   28  N   UNL     1     -27.006   9.485   2.847  1.00  0.00    -0.369 N 
HETATM   29  C   UNL     1     -26.876   8.818   1.681  1.00  0.00     0.100 A 
ATOM     30  HN  UNL     1     -27.915   9.609   3.293  1.00  0.00     0.165 HD
HETATM   31  C   UNL     1     -25.641   7.926  -0.220  1.00  0.00     0.014 A 
HETATM   32  C   UNL     1     -24.438   7.689  -0.875  1.00  0.00     0.003 A 
HETATM   33  C   UNL     1     -23.250   8.092  -0.282  1.00  0.00     0.030 A 
ENDBRANCH   1  22
TORSDOF 4
BEGIN_RES ARG D 557
REMARK  4 active torsions:
REMARK  status: ('A' for Active; 'I' for Inactive)
REMARK    1  A    between atoms: CA   and  CB  
REMARK    2  A    between atoms: CB   and  CG  
REMARK    3  A    between atoms: CG   and  CD  
REMARK    4  A    between atoms: CD   and  NE  
REMARK       I    between atoms: NE   and  CZ  
REMARK       I    between atoms: CZ   and  NH1 
REMARK       I    between atoms: CZ   and  NH2 
ROOT
ATOM      1  CA  ARG D 557     -26.217   2.705 -17.014  1.00 35.49     0.159 C 
ENDROOT
BRANCH   1   2
ATOM      2  CB  ARG D 557     -26.789   1.319 -17.183  1.00 35.49     0.034 C 
BRANCH   2   3
ATOM      3  CG  ARG D 557     -25.865   0.195 -16.991  1.00 35.49     0.027 C 
BRANCH   3   4
ATOM      4  CD  ARG D 557     -26.283  -0.698 -15.887  1.00 35.49     0.116 C 
BRANCH   4   5
ATOM      5  NE  ARG D 557     -25.221  -0.928 -14.944  1.00 35.49    -0.212 N 
ATOM      6  CZ  ARG D 557     -24.959  -2.069 -14.345  1.00 35.49     0.666 C 
ATOM      7  NH1 ARG D 557     -25.680  -3.157 -14.545  1.00 35.49    -0.235 N 
ATOM      8  NH2 ARG D 557     -23.941  -2.102 -13.535  1.00 35.49    -0.235 N 
ATOM      9  HH  ARG D 557     -26.353  -3.158 -15.076  1.00 35.49     0.174 HD
ATOM     10  HH  ARG D 557     -25.461  -3.873 -14.129  1.00 35.49     0.174 HD
ATOM     11  HH  ARG D 557     -23.489  -1.386 -13.431  1.00 35.49     0.174 HD
ATOM     12  HH  ARG D 557     -23.739  -2.821 -13.133  1.00 35.49     0.174 HD
ATOM     13  HE  ARG D 557     -24.751  -0.263 -14.701  1.00 35.49     0.178 HD
ENDBRANCH   4   5
ENDBRANCH   3   4
ENDBRANCH   2   3
ENDBRANCH   1   2
END_RES ARG D 557
BEGIN_RES GLU D 570
REMARK  3 active torsions:
REMARK  status: ('A' for Active; 'I' for Inactive)
REMARK    5  A    between atoms: CA   and  CB  
REMARK    6  A    between atoms: CB   and  CG  
REMARK    7  A    between atoms: CG   and  CD  
ROOT
ATOM     14  CA  GLU D 570     -18.033  -6.348 -13.375  1.00 32.92     0.160 C 
ENDROOT
BRANCH  14  15
ATOM     15  CB  GLU D 570     -19.500  -6.345 -13.794  1.00 32.92     0.043 C 
BRANCH  15  16
ATOM     16  CG  GLU D 570     -20.444  -5.543 -12.974  1.00 32.92     0.100 C 
BRANCH  16  17
ATOM     17  CD  GLU D 570     -21.683  -5.131 -13.735  1.00 32.92     0.185 C 
ATOM     18  OE1 GLU D 570     -22.739  -4.924 -13.107  1.00 32.92    -0.647 OA
ATOM     19  OE2 GLU D 570     -21.601  -5.032 -14.975  1.00 32.92    -0.647 OA
ENDBRANCH  16  17
ENDBRANCH  15  16
ENDBRANCH  14  15
END_RES GLU D 570
ENDMDL
