MODEL 1
REMARK VINA RESULT:     -10.8      0.000      0.000
REMARK  3 active torsions:
REMARK  status: ('A' for Active; 'I' for Inactive)
REMARK    1  A    between atoms: N_9  and  C_10 
REMARK    2  A    between atoms: C_10  and  C_11 
REMARK    3  A    between atoms: C_15  and  C_16 
ROOT
HETATM    1  C   UNL     1     -22.276  -6.321  -1.802  1.00  0.00     0.050 C 
HETATM    2  C   UNL     1     -21.436  -7.531  -2.074  1.00  0.00    -0.033 A 
HETATM    3  C   UNL     1     -21.271  -8.460  -1.020  1.00  0.00     0.033 A 
HETATM    4  C   UNL     1     -20.549  -9.650  -1.189  1.00  0.00     0.035 A 
HETATM    5 CL   UNL     1     -20.363 -10.735   0.132  1.00  0.00    -0.084 Cl
HETATM    6  C   UNL     1     -19.985  -9.962  -2.418  1.00  0.00     0.036 A 
HETATM    7  C   UNL     1     -20.123  -9.039  -3.448  1.00  0.00     0.018 A 
HETATM    8  C   UNL     1     -20.803  -7.816  -3.284  1.00  0.00     0.053 A 
HETATM    9  N   UNL     1     -20.657  -7.063  -4.475  1.00  0.00    -0.310 N 
HETATM   10  C   UNL     1     -19.896  -7.764  -5.433  1.00  0.00     0.268 C 
HETATM   11  O   UNL     1     -19.501  -7.337  -6.510  1.00  0.00    -0.269 OA
HETATM   12  C   UNL     1     -19.599  -9.150  -4.848  1.00  0.00     0.227 A 
HETATM   13  N   UNL     1     -18.216  -9.551  -4.911  1.00  0.00    -0.313 N 
HETATM   14  C   UNL     1     -18.045 -10.643  -5.723  1.00  0.00     0.324 A 
HETATM   15  O   UNL     1     -16.974 -11.155  -5.987  1.00  0.00    -0.247 OA
HETATM   16  N   UNL     1     -19.258 -11.064  -6.152  1.00  0.00    -0.276 N 
HETATM   17  C   UNL     1     -20.248 -10.254  -5.678  1.00  0.00     0.268 A 
HETATM   18  O   UNL     1     -21.440 -10.408  -5.895  1.00  0.00    -0.269 OA
HETATM   19  H   UNL     1     -17.429  -9.027  -4.556  1.00  0.00     0.166 HD
HETATM   20  H   UNL     1     -19.402 -11.860  -6.750  1.00  0.00     0.173 HD
ENDROOT
BRANCH   9  21
HETATM   21  C   UNL     1     -20.994  -5.670  -4.689  1.00  0.00     0.171 C 
BRANCH  21  22
HETATM   22  C   UNL     1     -20.719  -5.129  -6.080  1.00  0.00    -0.039 A 
HETATM   23  C   UNL     1     -19.451  -4.709  -6.502  1.00  0.00     0.009 A 
HETATM   24  C   UNL     1     -19.269  -4.150  -7.769  1.00  0.00     0.001 A 
HETATM   25  C   UNL     1     -20.349  -4.002  -8.638  1.00  0.00     0.016 A 
HETATM   26  C   UNL     1     -21.627  -4.432  -8.256  1.00  0.00     0.048 A 
HETATM   27  C   UNL     1     -21.793  -5.014  -6.985  1.00  0.00     0.025 A 
BRANCH  26  28
HETATM   28  C   UNL     1     -22.813  -4.255  -9.175  1.00  0.00     0.417 C 
HETATM   29  F   UNL     1     -22.666  -3.238 -10.071  1.00  0.00    -0.166 F 
HETATM   30  F   UNL     1     -23.071  -5.369  -9.915  1.00  0.00    -0.166 F 
HETATM   31  F   UNL     1     -23.963  -3.987  -8.496  1.00  0.00    -0.166 F 
ENDBRANCH  26  28
ENDBRANCH  21  22
ENDBRANCH   9  21
TORSDOF 3
BEGIN_RES ARG D 557
REMARK  4 active torsions:
REMARK  status: ('A' for Active; 'I' for Inactive)
REMARK    1  A    between atoms: CA   and  CB  
REMARK    2  A    between atoms: CB   and  CG  
REMARK    3  A    between atoms: CG   and  CD  
REMARK    4  A    between atoms: CD   and  NE  
REMARK       I    between atoms: NE   and  CZ  
REMARK       I    between atoms: CZ   and  NH1 
REMARK       I    between atoms: CZ   and  NH2 
ROOT
ATOM      1  CA  ARG D 557     -26.217   2.705 -17.014  1.00 35.49     0.159 C 
ENDROOT
BRANCH   1   2
ATOM      2  CB  ARG D 557     -26.789   1.319 -17.183  1.00 35.49     0.034 C 
BRANCH   2   3
ATOM      3  CG  ARG D 557     -25.834   0.204 -17.167  1.00 35.49     0.027 C 
BRANCH   3   4
ATOM      4  CD  ARG D 557     -24.759   0.396 -16.168  1.00 35.49     0.116 C 
BRANCH   4   5
ATOM      5  NE  ARG D 557     -24.925  -0.459 -15.022  1.00 35.49    -0.212 N 
ATOM      6  CZ  ARG D 557     -24.114  -1.429 -14.663  1.00 35.49     0.666 C 
ATOM      7  NH1 ARG D 557     -23.031  -1.739 -15.352  1.00 35.49    -0.235 N 
ATOM      8  NH2 ARG D 557     -24.409  -2.089 -13.581  1.00 35.49    -0.235 N 
ATOM      9  HH  ARG D 557     -22.816  -1.317 -16.066  1.00 35.49     0.174 HD
ATOM     10  HH  ARG D 557     -22.538  -2.380 -15.068  1.00 35.49     0.174 HD
ATOM     11  HH  ARG D 557     -25.111  -1.862 -13.153  1.00 35.49     0.174 HD
ATOM     12  HH  ARG D 557     -23.908  -2.719 -13.316  1.00 35.49     0.174 HD
ATOM     13  HE  ARG D 557     -25.635  -0.377 -14.562  1.00 35.49     0.178 HD
ENDBRANCH   4   5
ENDBRANCH   3   4
ENDBRANCH   2   3
ENDBRANCH   1   2
END_RES ARG D 557
BEGIN_RES GLU D 570
REMARK  3 active torsions:
REMARK  status: ('A' for Active; 'I' for Inactive)
REMARK    5  A    between atoms: CA   and  CB  
REMARK    6  A    between atoms: CB   and  CG  
REMARK    7  A    between atoms: CG   and  CD  
ROOT
ATOM     14  CA  GLU D 570     -18.033  -6.348 -13.375  1.00 32.92     0.160 C 
ENDROOT
BRANCH  14  15
ATOM     15  CB  GLU D 570     -19.500  -6.345 -13.794  1.00 32.92     0.043 C 
BRANCH  15  16
ATOM     16  CG  GLU D 570     -20.447  -5.557 -12.964  1.00 32.92     0.100 C 
BRANCH  16  17
ATOM     17  CD  GLU D 570     -21.731  -5.225 -13.689  1.00 32.92     0.185 C 
ATOM     18  OE1 GLU D 570     -22.183  -6.036 -14.521  1.00 32.92    -0.647 OA
ATOM     19  OE2 GLU D 570     -22.282  -4.136 -13.435  1.00 32.92    -0.647 OA
ENDBRANCH  16  17
ENDBRANCH  15  16
ENDBRANCH  14  15
END_RES GLU D 570
ENDMDL
MODEL 2
REMARK VINA RESULT:     -10.7      4.983      6.989
REMARK  3 active torsions:
REMARK  status: ('A' for Active; 'I' for Inactive)
REMARK    1  A    between atoms: N_9  and  C_10 
REMARK    2  A    between atoms: C_10  and  C_11 
REMARK    3  A    between atoms: C_15  and  C_16 
ROOT
HETATM    1  C   UNL     1     -21.914  -7.008  -1.425  1.00  0.00     0.050 C 
HETATM    2  C   UNL     1     -21.146  -7.552  -2.590  1.00  0.00    -0.033 A 
HETATM    3  C   UNL     1     -21.270  -6.874  -3.825  1.00  0.00     0.033 A 
HETATM    4  C   UNL     1     -20.553  -7.270  -4.962  1.00  0.00     0.035 A 
HETATM    5 CL   UNL     1     -20.756  -6.421  -6.444  1.00  0.00    -0.084 Cl
HETATM    6  C   UNL     1     -19.674  -8.341  -4.901  1.00  0.00     0.036 A 
HETATM    7  C   UNL     1     -19.569  -9.026  -3.696  1.00  0.00     0.018 A 
HETATM    8  C   UNL     1     -20.318  -8.674  -2.556  1.00  0.00     0.053 A 
HETATM    9  N   UNL     1     -20.071  -9.636  -1.546  1.00  0.00    -0.310 N 
HETATM   10  C   UNL     1     -19.166 -10.621  -1.990  1.00  0.00     0.268 C 
HETATM   11  O   UNL     1     -18.844 -11.641  -1.395  1.00  0.00    -0.269 OA
HETATM   12  C   UNL     1     -18.701 -10.209  -3.392  1.00  0.00     0.227 A 
HETATM   13  N   UNL     1     -18.780 -11.249  -4.387  1.00  0.00    -0.313 N 
HETATM   14  C   UNL     1     -17.538 -11.596  -4.854  1.00  0.00     0.324 A 
HETATM   15  O   UNL     1     -17.318 -12.477  -5.663  1.00  0.00    -0.247 OA
HETATM   16  N   UNL     1     -16.616 -10.783  -4.289  1.00  0.00    -0.276 N 
HETATM   17  C   UNL     1     -17.204  -9.915  -3.416  1.00  0.00     0.268 A 
HETATM   18  O   UNL     1     -16.610  -9.059  -2.777  1.00  0.00    -0.269 OA
HETATM   19  H   UNL     1     -19.602 -11.790  -4.616  1.00  0.00     0.166 HD
HETATM   20  H   UNL     1     -15.629 -10.826  -4.482  1.00  0.00     0.173 HD
ENDROOT
BRANCH   9  21
HETATM   21  C   UNL     1     -20.779  -9.808  -0.294  1.00  0.00     0.171 C 
BRANCH  21  22
HETATM   22  C   UNL     1     -21.926 -10.802  -0.312  1.00  0.00    -0.039 A 
HETATM   23  C   UNL     1     -22.998 -10.718  -1.210  1.00  0.00     0.009 A 
HETATM   24  C   UNL     1     -24.064 -11.618  -1.134  1.00  0.00     0.001 A 
HETATM   25  C   UNL     1     -24.076 -12.618  -0.163  1.00  0.00     0.016 A 
HETATM   26  C   UNL     1     -23.009 -12.744   0.735  1.00  0.00     0.048 A 
HETATM   27  C   UNL     1     -21.930 -11.845   0.635  1.00  0.00     0.025 A 
BRANCH  26  28
HETATM   28  C   UNL     1     -23.020 -13.806   1.810  1.00  0.00     0.417 C 
HETATM   29  F   UNL     1     -23.114 -15.077   1.325  1.00  0.00    -0.166 F 
HETATM   30  F   UNL     1     -21.895 -13.783   2.578  1.00  0.00    -0.166 F 
HETATM   31  F   UNL     1     -24.063 -13.662   2.675  1.00  0.00    -0.166 F 
ENDBRANCH  26  28
ENDBRANCH  21  22
ENDBRANCH   9  21
TORSDOF 3
BEGIN_RES ARG D 557
REMARK  4 active torsions:
REMARK  status: ('A' for Active; 'I' for Inactive)
REMARK    1  A    between atoms: CA   and  CB  
REMARK    2  A    between atoms: CB   and  CG  
REMARK    3  A    between atoms: CG   and  CD  
REMARK    4  A    between atoms: CD   and  NE  
REMARK       I    between atoms: NE   and  CZ  
REMARK       I    between atoms: CZ   and  NH1 
REMARK       I    between atoms: CZ   and  NH2 
ROOT
ATOM      1  CA  ARG D 557     -26.217   2.705 -17.014  1.00 35.49     0.159 C 
ENDROOT
BRANCH   1   2
ATOM      2  CB  ARG D 557     -26.789   1.319 -17.183  1.00 35.49     0.034 C 
BRANCH   2   3
ATOM      3  CG  ARG D 557     -25.836   0.203 -17.150  1.00 35.49     0.027 C 
BRANCH   3   4
ATOM      4  CD  ARG D 557     -24.762   0.407 -16.152  1.00 35.49     0.116 C 
BRANCH   4   5
ATOM      5  NE  ARG D 557     -24.915  -0.450 -15.006  1.00 35.49    -0.212 N 
ATOM      6  CZ  ARG D 557     -24.102  -1.422 -14.660  1.00 35.49     0.666 C 
ATOM      7  NH1 ARG D 557     -23.028  -1.733 -15.362  1.00 35.49    -0.235 N 
ATOM      8  NH2 ARG D 557     -24.385  -2.085 -13.576  1.00 35.49    -0.235 N 
ATOM      9  HH  ARG D 557     -22.821  -1.309 -16.078  1.00 35.49     0.174 HD
ATOM     10  HH  ARG D 557     -22.532  -2.375 -15.086  1.00 35.49     0.174 HD
ATOM     11  HH  ARG D 557     -25.081  -1.857 -13.139  1.00 35.49     0.174 HD
ATOM     12  HH  ARG D 557     -23.882  -2.716 -13.318  1.00 35.49     0.174 HD
ATOM     13  HE  ARG D 557     -25.620  -0.368 -14.538  1.00 35.49     0.178 HD
ENDBRANCH   4   5
ENDBRANCH   3   4
ENDBRANCH   2   3
ENDBRANCH   1   2
END_RES ARG D 557
BEGIN_RES GLU D 570
REMARK  3 active torsions:
REMARK  status: ('A' for Active; 'I' for Inactive)
REMARK    5  A    between atoms: CA   and  CB  
REMARK    6  A    between atoms: CB   and  CG  
REMARK    7  A    between atoms: CG   and  CD  
ROOT
ATOM     14  CA  GLU D 570     -18.033  -6.348 -13.375  1.00 32.92     0.160 C 
ENDROOT
BRANCH  14  15
ATOM     15  CB  GLU D 570     -19.500  -6.345 -13.794  1.00 32.92     0.043 C 
BRANCH  15  16
ATOM     16  CG  GLU D 570     -20.442  -5.531 -12.983  1.00 32.92     0.100 C 
BRANCH  16  17
ATOM     17  CD  GLU D 570     -21.735  -5.231 -13.705  1.00 32.92     0.185 C 
ATOM     18  OE1 GLU D 570     -22.192  -6.073 -14.502  1.00 32.92    -0.647 OA
ATOM     19  OE2 GLU D 570     -22.287  -4.136 -13.485  1.00 32.92    -0.647 OA
ENDBRANCH  16  17
ENDBRANCH  15  16
ENDBRANCH  14  15
END_RES GLU D 570
ENDMDL
MODEL 3
REMARK VINA RESULT:     -10.6      3.971      5.953
REMARK  3 active torsions:
REMARK  status: ('A' for Active; 'I' for Inactive)
REMARK    1  A    between atoms: N_9  and  C_10 
REMARK    2  A    between atoms: C_10  and  C_11 
REMARK    3  A    between atoms: C_15  and  C_16 
ROOT
HETATM    1  C   UNL     1     -16.198  -9.485  -2.707  1.00  0.00     0.050 C 
HETATM    2  C   UNL     1     -16.251 -10.365  -3.918  1.00  0.00    -0.033 A 
HETATM    3  C   UNL     1     -15.029 -10.909  -4.381  1.00  0.00     0.033 A 
HETATM    4  C   UNL     1     -14.977 -11.787  -5.472  1.00  0.00     0.035 A 
HETATM    5 CL   UNL     1     -13.463 -12.405  -6.005  1.00  0.00    -0.084 Cl
HETATM    6  C   UNL     1     -16.140 -12.166  -6.126  1.00  0.00     0.036 A 
HETATM    7  C   UNL     1     -17.339 -11.613  -5.691  1.00  0.00     0.018 A 
HETATM    8  C   UNL     1     -17.407 -10.691  -4.627  1.00  0.00     0.053 A 
HETATM    9  N   UNL     1     -18.742 -10.233  -4.519  1.00  0.00    -0.310 N 
HETATM   10  C   UNL     1     -19.569 -10.836  -5.488  1.00  0.00     0.268 C 
HETATM   11  O   UNL     1     -20.739 -10.565  -5.726  1.00  0.00    -0.269 OA
HETATM   12  C   UNL     1     -18.711 -11.862  -6.240  1.00  0.00     0.227 A 
HETATM   13  N   UNL     1     -18.778 -11.771  -7.676  1.00  0.00    -0.313 N 
HETATM   14  C   UNL     1     -19.335 -12.897  -8.226  1.00  0.00     0.324 A 
HETATM   15  O   UNL     1     -19.551 -13.061  -9.412  1.00  0.00    -0.247 OA
HETATM   16  N   UNL     1     -19.575 -13.793  -7.241  1.00  0.00    -0.276 N 
HETATM   17  C   UNL     1     -19.228 -13.281  -6.025  1.00  0.00     0.268 A 
HETATM   18  O   UNL     1     -19.323 -13.878  -4.964  1.00  0.00    -0.269 OA
HETATM   19  H   UNL     1     -18.603 -10.943  -8.228  1.00  0.00     0.166 HD
HETATM   20  H   UNL     1     -19.969 -14.707  -7.390  1.00  0.00     0.173 HD
ENDROOT
BRANCH   9  21
HETATM   21  C   UNL     1     -19.239  -9.129  -3.723  1.00  0.00     0.171 C 
BRANCH  21  22
HETATM   22  C   UNL     1     -19.815  -9.496  -2.368  1.00  0.00    -0.039 A 
HETATM   23  C   UNL     1     -19.549 -10.713  -1.727  1.00  0.00     0.009 A 
HETATM   24  C   UNL     1     -20.166 -11.029  -0.513  1.00  0.00     0.001 A 
HETATM   25  C   UNL     1     -21.056 -10.136   0.081  1.00  0.00     0.016 A 
HETATM   26  C   UNL     1     -21.327  -8.902  -0.522  1.00  0.00     0.048 A 
HETATM   27  C   UNL     1     -20.683  -8.584  -1.733  1.00  0.00     0.025 A 
BRANCH  26  28
HETATM   28  C   UNL     1     -22.309  -7.934   0.095  1.00  0.00     0.417 C 
HETATM   29  F   UNL     1     -23.539  -8.474   0.328  1.00  0.00    -0.166 F 
HETATM   30  F   UNL     1     -21.882  -7.450   1.294  1.00  0.00    -0.166 F 
HETATM   31  F   UNL     1     -22.528  -6.841  -0.689  1.00  0.00    -0.166 F 
ENDBRANCH  26  28
ENDBRANCH  21  22
ENDBRANCH   9  21
TORSDOF 3
BEGIN_RES ARG D 557
REMARK  4 active torsions:
REMARK  status: ('A' for Active; 'I' for Inactive)
REMARK    1  A    between atoms: CA   and  CB  
REMARK    2  A    between atoms: CB   and  CG  
REMARK    3  A    between atoms: CG   and  CD  
REMARK    4  A    between atoms: CD   and  NE  
REMARK       I    between atoms: NE   and  CZ  
REMARK       I    between atoms: CZ   and  NH1 
REMARK       I    between atoms: CZ   and  NH2 
ROOT
ATOM      1  CA  ARG D 557     -26.217   2.705 -17.014  1.00 35.49     0.159 C 
ENDROOT
BRANCH   1   2
ATOM      2  CB  ARG D 557     -26.789   1.319 -17.183  1.00 35.49     0.034 C 
BRANCH   2   3
ATOM      3  CG  ARG D 557     -25.836   0.203 -17.154  1.00 35.49     0.027 C 
BRANCH   3   4
ATOM      4  CD  ARG D 557     -24.753   0.412 -16.166  1.00 35.49     0.116 C 
BRANCH   4   5
ATOM      5  NE  ARG D 557     -24.899  -0.437 -15.013  1.00 35.49    -0.212 N 
ATOM      6  CZ  ARG D 557     -24.086  -1.410 -14.667  1.00 35.49     0.666 C 
ATOM      7  NH1 ARG D 557     -23.019  -1.728 -15.376  1.00 35.49    -0.235 N 
ATOM      8  NH2 ARG D 557     -24.362  -2.063 -13.576  1.00 35.49    -0.235 N 
ATOM      9  HH  ARG D 557     -22.817  -1.310 -16.096  1.00 35.49     0.174 HD
ATOM     10  HH  ARG D 557     -22.523  -2.370 -15.100  1.00 35.49     0.174 HD
ATOM     11  HH  ARG D 557     -25.054  -1.831 -13.134  1.00 35.49     0.174 HD
ATOM     12  HH  ARG D 557     -23.858  -2.695 -13.318  1.00 35.49     0.174 HD
ATOM     13  HE  ARG D 557     -25.600  -0.349 -14.539  1.00 35.49     0.178 HD
ENDBRANCH   4   5
ENDBRANCH   3   4
ENDBRANCH   2   3
ENDBRANCH   1   2
END_RES ARG D 557
BEGIN_RES GLU D 570
REMARK  3 active torsions:
REMARK  status: ('A' for Active; 'I' for Inactive)
REMARK    5  A    between atoms: CA   and  CB  
REMARK    6  A    between atoms: CB   and  CG  
REMARK    7  A    between atoms: CG   and  CD  
ROOT
ATOM     14  CA  GLU D 570     -18.033  -6.348 -13.375  1.00 32.92     0.160 C 
ENDROOT
BRANCH  14  15
ATOM     15  CB  GLU D 570     -19.500  -6.345 -13.794  1.00 32.92     0.043 C 
BRANCH  15  16
ATOM     16  CG  GLU D 570     -20.441  -5.528 -12.985  1.00 32.92     0.100 C 
BRANCH  16  17
ATOM     17  CD  GLU D 570     -21.733  -5.227 -13.709  1.00 32.92     0.185 C 
ATOM     18  OE1 GLU D 570     -22.301  -4.138 -13.506  1.00 32.92    -0.647 OA
ATOM     19  OE2 GLU D 570     -22.190  -6.098 -14.476  1.00 32.92    -0.647 OA
ENDBRANCH  16  17
ENDBRANCH  15  16
ENDBRANCH  14  15
END_RES GLU D 570
ENDMDL
MODEL 4
REMARK VINA RESULT:     -10.4      2.724      4.296
REMARK  3 active torsions:
REMARK  status: ('A' for Active; 'I' for Inactive)
REMARK    1  A    between atoms: N_9  and  C_10 
REMARK    2  A    between atoms: C_10  and  C_11 
REMARK    3  A    between atoms: C_15  and  C_16 
ROOT
HETATM    1  C   UNL     1     -22.567 -11.490  -3.427  1.00  0.00     0.050 C 
HETATM    2  C   UNL     1     -21.358 -11.928  -4.197  1.00  0.00    -0.033 A 
HETATM    3  C   UNL     1     -21.530 -12.964  -5.145  1.00  0.00     0.033 A 
HETATM    4  C   UNL     1     -20.475 -13.409  -5.954  1.00  0.00     0.035 A 
HETATM    5 CL   UNL     1     -20.735 -14.684  -7.077  1.00  0.00    -0.084 Cl
HETATM    6  C   UNL     1     -19.221 -12.824  -5.858  1.00  0.00     0.036 A 
HETATM    7  C   UNL     1     -19.041 -11.825  -4.909  1.00  0.00     0.018 A 
HETATM    8  C   UNL     1     -20.076 -11.397  -4.053  1.00  0.00     0.053 A 
HETATM    9  N   UNL     1     -19.537 -10.465  -3.134  1.00  0.00    -0.310 N 
HETATM   10  C   UNL     1     -18.161 -10.257  -3.364  1.00  0.00     0.268 C 
HETATM   11  O   UNL     1     -17.393  -9.603  -2.671  1.00  0.00    -0.269 OA
HETATM   12  C   UNL     1     -17.787 -11.058  -4.617  1.00  0.00     0.227 A 
HETATM   13  N   UNL     1     -16.624 -11.897  -4.475  1.00  0.00    -0.313 N 
HETATM   14  C   UNL     1     -15.606 -11.491  -5.300  1.00  0.00     0.324 A 
HETATM   15  O   UNL     1     -14.500 -11.996  -5.344  1.00  0.00    -0.247 OA
HETATM   16  N   UNL     1     -16.046 -10.465  -6.065  1.00  0.00    -0.276 N 
HETATM   17  C   UNL     1     -17.332 -10.140  -5.747  1.00  0.00     0.268 A 
HETATM   18  O   UNL     1     -17.984  -9.261  -6.291  1.00  0.00    -0.269 OA
HETATM   19  H   UNL     1     -16.478 -12.595  -3.759  1.00  0.00     0.166 HD
HETATM   20  H   UNL     1     -15.490 -10.000  -6.763  1.00  0.00     0.173 HD
ENDROOT
BRANCH   9  21
HETATM   21  C   UNL     1     -20.165  -9.930  -1.943  1.00  0.00     0.171 C 
BRANCH  21  22
HETATM   22  C   UNL     1     -20.812  -8.565  -2.091  1.00  0.00    -0.039 A 
HETATM   23  C   UNL     1     -21.563  -7.959  -1.076  1.00  0.00     0.009 A 
HETATM   24  C   UNL     1     -22.198  -6.733  -1.293  1.00  0.00     0.001 A 
HETATM   25  C   UNL     1     -22.091  -6.091  -2.525  1.00  0.00     0.016 A 
HETATM   26  C   UNL     1     -21.330  -6.658  -3.555  1.00  0.00     0.048 A 
HETATM   27  C   UNL     1     -20.677  -7.883  -3.317  1.00  0.00     0.025 A 
BRANCH  26  28
HETATM   28  C   UNL     1     -21.226  -5.989  -4.905  1.00  0.00     0.417 C 
HETATM   29  F   UNL     1     -20.581  -6.740  -5.842  1.00  0.00    -0.166 F 
HETATM   30  F   UNL     1     -22.445  -5.695  -5.437  1.00  0.00    -0.166 F 
HETATM   31  F   UNL     1     -20.551  -4.807  -4.850  1.00  0.00    -0.166 F 
ENDBRANCH  26  28
ENDBRANCH  21  22
ENDBRANCH   9  21
TORSDOF 3
BEGIN_RES ARG D 557
REMARK  4 active torsions:
REMARK  status: ('A' for Active; 'I' for Inactive)
REMARK    1  A    between atoms: CA   and  CB  
REMARK    2  A    between atoms: CB   and  CG  
REMARK    3  A    between atoms: CG   and  CD  
REMARK    4  A    between atoms: CD   and  NE  
REMARK       I    between atoms: NE   and  CZ  
REMARK       I    between atoms: CZ   and  NH1 
REMARK       I    between atoms: CZ   and  NH2 
ROOT
ATOM      1  CA  ARG D 557     -26.217   2.705 -17.014  1.00 35.49     0.159 C 
ENDROOT
BRANCH   1   2
ATOM      2  CB  ARG D 557     -26.789   1.319 -17.183  1.00 35.49     0.034 C 
BRANCH   2   3
ATOM      3  CG  ARG D 557     -25.835   0.203 -17.161  1.00 35.49     0.027 C 
BRANCH   3   4
ATOM      4  CD  ARG D 557     -24.755   0.404 -16.168  1.00 35.49     0.116 C 
BRANCH   4   5
ATOM      5  NE  ARG D 557     -24.910  -0.447 -15.018  1.00 35.49    -0.212 N 
ATOM      6  CZ  ARG D 557     -24.098  -1.419 -14.667  1.00 35.49     0.666 C 
ATOM      7  NH1 ARG D 557     -23.024  -1.734 -15.367  1.00 35.49    -0.235 N 
ATOM      8  NH2 ARG D 557     -24.383  -2.076 -13.580  1.00 35.49    -0.235 N 
ATOM      9  HH  ARG D 557     -22.816  -1.314 -16.084  1.00 35.49     0.174 HD
ATOM     10  HH  ARG D 557     -22.530  -2.376 -15.087  1.00 35.49     0.174 HD
ATOM     11  HH  ARG D 557     -25.079  -1.846 -13.144  1.00 35.49     0.174 HD
ATOM     12  HH  ARG D 557     -23.880  -2.707 -13.319  1.00 35.49     0.174 HD
ATOM     13  HE  ARG D 557     -25.615  -0.362 -14.550  1.00 35.49     0.178 HD
ENDBRANCH   4   5
ENDBRANCH   3   4
ENDBRANCH   2   3
ENDBRANCH   1   2
END_RES ARG D 557
BEGIN_RES GLU D 570
REMARK  3 active torsions:
REMARK  status: ('A' for Active; 'I' for Inactive)
REMARK    5  A    between atoms: CA   and  CB  
REMARK    6  A    between atoms: CB   and  CG  
REMARK    7  A    between atoms: CG   and  CD  
ROOT
ATOM     14  CA  GLU D 570     -18.033  -6.348 -13.375  1.00 32.92     0.160 C 
ENDROOT
BRANCH  14  15
ATOM     15  CB  GLU D 570     -19.500  -6.345 -13.794  1.00 32.92     0.043 C 
BRANCH  15  16
ATOM     16  CG  GLU D 570     -20.441  -5.527 -12.986  1.00 32.92     0.100 C 
BRANCH  16  17
ATOM     17  CD  GLU D 570     -21.742  -5.246 -13.701  1.00 32.92     0.185 C 
ATOM     18  OE1 GLU D 570     -22.303  -4.147 -13.527  1.00 32.92    -0.647 OA
ATOM     19  OE2 GLU D 570     -22.213  -6.141 -14.431  1.00 32.92    -0.647 OA
ENDBRANCH  16  17
ENDBRANCH  15  16
ENDBRANCH  14  15
END_RES GLU D 570
ENDMDL
MODEL 5
REMARK VINA RESULT:     -10.4      1.600      2.050
REMARK  3 active torsions:
REMARK  status: ('A' for Active; 'I' for Inactive)
REMARK    1  A    between atoms: N_9  and  C_10 
REMARK    2  A    between atoms: C_10  and  C_11 
REMARK    3  A    between atoms: C_15  and  C_16 
ROOT
HETATM    1  C   UNL     1     -22.285  -6.311  -1.802  1.00  0.00     0.050 C 
HETATM    2  C   UNL     1     -21.443  -7.520  -2.068  1.00  0.00    -0.033 A 
HETATM    3  C   UNL     1     -21.276  -8.443  -1.009  1.00  0.00     0.033 A 
HETATM    4  C   UNL     1     -20.551  -9.632  -1.171  1.00  0.00     0.035 A 
HETATM    5 CL   UNL     1     -20.363 -10.709   0.156  1.00  0.00    -0.084 Cl
HETATM    6  C   UNL     1     -19.987  -9.950  -2.398  1.00  0.00     0.036 A 
HETATM    7  C   UNL     1     -20.127  -9.034  -3.434  1.00  0.00     0.018 A 
HETATM    8  C   UNL     1     -20.809  -7.810  -3.276  1.00  0.00     0.053 A 
HETATM    9  N   UNL     1     -20.665  -7.064  -4.471  1.00  0.00    -0.310 N 
HETATM   10  C   UNL     1     -19.903  -7.769  -5.426  1.00  0.00     0.268 C 
HETATM   11  O   UNL     1     -19.509  -7.348  -6.505  1.00  0.00    -0.269 OA
HETATM   12  C   UNL     1     -19.603  -9.151  -4.832  1.00  0.00     0.227 A 
HETATM   13  N   UNL     1     -18.219  -9.549  -4.894  1.00  0.00    -0.313 N 
HETATM   14  C   UNL     1     -18.046 -10.646  -5.699  1.00  0.00     0.324 A 
HETATM   15  O   UNL     1     -16.973 -11.157  -5.961  1.00  0.00    -0.247 OA
HETATM   16  N   UNL     1     -19.258 -11.072  -6.125  1.00  0.00    -0.276 N 
HETATM   17  C   UNL     1     -20.249 -10.261  -5.656  1.00  0.00     0.268 A 
HETATM   18  O   UNL     1     -21.441 -10.419  -5.873  1.00  0.00    -0.269 OA
HETATM   19  H   UNL     1     -17.433  -9.022  -4.541  1.00  0.00     0.166 HD
HETATM   20  H   UNL     1     -19.400 -11.872  -6.719  1.00  0.00     0.173 HD
ENDROOT
BRANCH   9  21
HETATM   21  C   UNL     1     -21.005  -5.673  -4.694  1.00  0.00     0.171 C 
BRANCH  21  22
HETATM   22  C   UNL     1     -20.719  -5.136  -6.084  1.00  0.00    -0.039 A 
HETATM   23  C   UNL     1     -19.447  -4.719  -6.497  1.00  0.00     0.009 A 
HETATM   24  C   UNL     1     -19.255  -4.163  -7.764  1.00  0.00     0.001 A 
HETATM   25  C   UNL     1     -20.328  -4.016  -8.641  1.00  0.00     0.016 A 
HETATM   26  C   UNL     1     -21.609  -4.442  -8.268  1.00  0.00     0.048 A 
HETATM   27  C   UNL     1     -21.786  -5.021  -6.997  1.00  0.00     0.025 A 
BRANCH  26  28
HETATM   28  C   UNL     1     -22.788  -4.266  -9.196  1.00  0.00     0.417 C 
HETATM   29  F   UNL     1     -23.076  -5.375  -9.935  1.00  0.00    -0.166 F 
HETATM   30  F   UNL     1     -23.935  -3.954  -8.530  1.00  0.00    -0.166 F 
HETATM   31  F   UNL     1     -22.597  -3.261 -10.096  1.00  0.00    -0.166 F 
ENDBRANCH  26  28
ENDBRANCH  21  22
ENDBRANCH   9  21
TORSDOF 3
BEGIN_RES ARG D 557
REMARK  4 active torsions:
REMARK  status: ('A' for Active; 'I' for Inactive)
REMARK    1  A    between atoms: CA   and  CB  
REMARK    2  A    between atoms: CB   and  CG  
REMARK    3  A    between atoms: CG   and  CD  
REMARK    4  A    between atoms: CD   and  NE  
REMARK       I    between atoms: NE   and  CZ  
REMARK       I    between atoms: CZ   and  NH1 
REMARK       I    between atoms: CZ   and  NH2 
ROOT
ATOM      1  CA  ARG D 557     -26.217   2.705 -17.014  1.00 35.49     0.159 C 
ENDROOT
BRANCH   1   2
ATOM      2  CB  ARG D 557     -26.789   1.319 -17.183  1.00 35.49     0.034 C 
BRANCH   2   3
ATOM      3  CG  ARG D 557     -28.230   1.227 -17.450  1.00 35.49     0.027 C 
BRANCH   3   4
ATOM      4  CD  ARG D 557     -28.920   0.315 -16.510  1.00 35.49     0.116 C 
BRANCH   4   5
ATOM      5  NE  ARG D 557     -29.341  -0.905 -17.148  1.00 35.49    -0.212 N 
ATOM      6  CZ  ARG D 557     -28.737  -2.068 -17.054  1.00 35.49     0.666 C 
ATOM      7  NH1 ARG D 557     -27.633  -2.240 -16.350  1.00 35.49    -0.235 N 
ATOM      8  NH2 ARG D 557     -29.271  -3.074 -17.684  1.00 35.49    -0.235 N 
ATOM      9  HH  ARG D 557     -27.266  -1.593 -15.926  1.00 35.49     0.174 HD
ATOM     10  HH  ARG D 557     -27.285  -3.023 -16.323  1.00 35.49     0.174 HD
ATOM     11  HH  ARG D 557     -29.988  -2.936 -18.125  1.00 35.49     0.174 HD
ATOM     12  HH  ARG D 557     -28.912  -3.842 -17.644  1.00 35.49     0.174 HD
ATOM     13  HE  ARG D 557     -30.003  -0.869 -17.681  1.00 35.49     0.178 HD
ENDBRANCH   4   5
ENDBRANCH   3   4
ENDBRANCH   2   3
ENDBRANCH   1   2
END_RES ARG D 557
BEGIN_RES GLU D 570
REMARK  3 active torsions:
REMARK  status: ('A' for Active; 'I' for Inactive)
REMARK    5  A    between atoms: CA   and  CB  
REMARK    6  A    between atoms: CB   and  CG  
REMARK    7  A    between atoms: CG   and  CD  
ROOT
ATOM     14  CA  GLU D 570     -18.033  -6.348 -13.375  1.00 32.92     0.160 C 
ENDROOT
BRANCH  14  15
ATOM     15  CB  GLU D 570     -19.500  -6.345 -13.794  1.00 32.92     0.043 C 
BRANCH  15  16
ATOM     16  CG  GLU D 570     -20.451  -5.577 -12.950  1.00 32.92     0.100 C 
BRANCH  16  17
ATOM     17  CD  GLU D 570     -21.746  -5.259 -13.661  1.00 32.92     0.185 C 
ATOM     18  OE1 GLU D 570     -22.380  -4.237 -13.337  1.00 32.92    -0.647 OA
ATOM     19  OE2 GLU D 570     -22.139  -6.050 -14.541  1.00 32.92    -0.647 OA
ENDBRANCH  16  17
ENDBRANCH  15  16
ENDBRANCH  14  15
END_RES GLU D 570
ENDMDL
MODEL 6
REMARK VINA RESULT:     -10.3      5.219      7.222
REMARK  3 active torsions:
REMARK  status: ('A' for Active; 'I' for Inactive)
REMARK    1  A    between atoms: N_9  and  C_10 
REMARK    2  A    between atoms: C_10  and  C_11 
REMARK    3  A    between atoms: C_15  and  C_16 
ROOT
HETATM    1  C   UNL     1     -21.998  -6.909  -1.432  1.00  0.00     0.050 C 
HETATM    2  C   UNL     1     -21.208  -7.449  -2.584  1.00  0.00    -0.033 A 
HETATM    3  C   UNL     1     -21.314  -6.771  -3.821  1.00  0.00     0.033 A 
HETATM    4  C   UNL     1     -20.575  -7.163  -4.946  1.00  0.00     0.035 A 
HETATM    5 CL   UNL     1     -20.756  -6.314  -6.430  1.00  0.00    -0.084 Cl
HETATM    6  C   UNL     1     -19.693  -8.232  -4.870  1.00  0.00     0.036 A 
HETATM    7  C   UNL     1     -19.607  -8.917  -3.664  1.00  0.00     0.018 A 
HETATM    8  C   UNL     1     -20.377  -8.568  -2.537  1.00  0.00     0.053 A 
HETATM    9  N   UNL     1     -20.144  -9.530  -1.524  1.00  0.00    -0.310 N 
HETATM   10  C   UNL     1     -19.227 -10.512  -1.952  1.00  0.00     0.268 C 
HETATM   11  O   UNL     1     -18.912 -11.532  -1.353  1.00  0.00    -0.269 OA
HETATM   12  C   UNL     1     -18.740 -10.097  -3.346  1.00  0.00     0.227 A 
HETATM   13  N   UNL     1     -18.799 -11.136  -4.343  1.00  0.00    -0.313 N 
HETATM   14  C   UNL     1     -17.547 -11.478  -4.789  1.00  0.00     0.324 A 
HETATM   15  O   UNL     1     -17.310 -12.358  -5.594  1.00  0.00    -0.247 OA
HETATM   16  N   UNL     1     -16.638 -10.662  -4.207  1.00  0.00    -0.276 N 
HETATM   17  C   UNL     1     -17.243  -9.797  -3.344  1.00  0.00     0.268 A 
HETATM   18  O   UNL     1     -16.665  -8.940  -2.694  1.00  0.00    -0.269 OA
HETATM   19  H   UNL     1     -19.614 -11.680  -4.586  1.00  0.00     0.166 HD
HETATM   20  H   UNL     1     -15.647 -10.702  -4.383  1.00  0.00     0.173 HD
ENDROOT
BRANCH   9  21
HETATM   21  C   UNL     1     -20.873  -9.706  -0.284  1.00  0.00     0.171 C 
BRANCH  21  22
HETATM   22  C   UNL     1     -22.012 -10.708  -0.321  1.00  0.00    -0.039 A 
HETATM   23  C   UNL     1     -23.092 -10.606  -1.208  1.00  0.00     0.009 A 
HETATM   24  C   UNL     1     -24.151 -11.516  -1.150  1.00  0.00     0.001 A 
HETATM   25  C   UNL     1     -24.148 -12.543  -0.207  1.00  0.00     0.016 A 
HETATM   26  C   UNL     1     -23.074 -12.686   0.679  1.00  0.00     0.048 A 
HETATM   27  C   UNL     1     -22.002 -11.777   0.596  1.00  0.00     0.025 A 
BRANCH  26  28
HETATM   28  C   UNL     1     -23.068 -13.777   1.724  1.00  0.00     0.417 C 
HETATM   29  F   UNL     1     -21.937 -13.802   2.486  1.00  0.00    -0.166 F 
HETATM   30  F   UNL     1     -24.105 -13.667   2.601  1.00  0.00    -0.166 F 
HETATM   31  F   UNL     1     -23.173 -15.022   1.179  1.00  0.00    -0.166 F 
ENDBRANCH  26  28
ENDBRANCH  21  22
ENDBRANCH   9  21
TORSDOF 3
BEGIN_RES ARG D 557
REMARK  4 active torsions:
REMARK  status: ('A' for Active; 'I' for Inactive)
REMARK    1  A    between atoms: CA   and  CB  
REMARK    2  A    between atoms: CB   and  CG  
REMARK    3  A    between atoms: CG   and  CD  
REMARK    4  A    between atoms: CD   and  NE  
REMARK       I    between atoms: NE   and  CZ  
REMARK       I    between atoms: CZ   and  NH1 
REMARK       I    between atoms: CZ   and  NH2 
ROOT
ATOM      1  CA  ARG D 557     -26.217   2.705 -17.014  1.00 35.49     0.159 C 
ENDROOT
BRANCH   1   2
ATOM      2  CB  ARG D 557     -26.789   1.319 -17.183  1.00 35.49     0.034 C 
BRANCH   2   3
ATOM      3  CG  ARG D 557     -28.185   1.126 -16.773  1.00 35.49     0.027 C 
BRANCH   3   4
ATOM      4  CD  ARG D 557     -28.787  -0.087 -17.373  1.00 35.49     0.116 C 
BRANCH   4   5
ATOM      5  NE  ARG D 557     -28.183  -1.295 -16.876  1.00 35.49    -0.212 N 
ATOM      6  CZ  ARG D 557     -28.663  -2.510 -17.021  1.00 35.49     0.666 C 
ATOM      7  NH1 ARG D 557     -29.798  -2.753 -17.649  1.00 35.49    -0.235 N 
ATOM      8  NH2 ARG D 557     -27.969  -3.492 -16.524  1.00 35.49    -0.235 N 
ATOM      9  HH  ARG D 557     -30.270  -2.122 -17.986  1.00 35.49     0.174 HD
ATOM     10  HH  ARG D 557     -30.060  -3.566 -17.715  1.00 35.49     0.174 HD
ATOM     11  HH  ARG D 557     -27.236  -3.306 -16.130  1.00 35.49     0.174 HD
ATOM     12  HH  ARG D 557     -28.245  -4.290 -16.601  1.00 35.49     0.174 HD
ATOM     13  HE  ARG D 557     -27.484  -1.224 -16.396  1.00 35.49     0.178 HD
ENDBRANCH   4   5
ENDBRANCH   3   4
ENDBRANCH   2   3
ENDBRANCH   1   2
END_RES ARG D 557
BEGIN_RES GLU D 570
REMARK  3 active torsions:
REMARK  status: ('A' for Active; 'I' for Inactive)
REMARK    5  A    between atoms: CA   and  CB  
REMARK    6  A    between atoms: CB   and  CG  
REMARK    7  A    between atoms: CG   and  CD  
ROOT
ATOM     14  CA  GLU D 570     -18.033  -6.348 -13.375  1.00 32.92     0.160 C 
ENDROOT
BRANCH  14  15
ATOM     15  CB  GLU D 570     -19.500  -6.345 -13.794  1.00 32.92     0.043 C 
BRANCH  15  16
ATOM     16  CG  GLU D 570     -20.447  -5.556 -12.965  1.00 32.92     0.100 C 
BRANCH  16  17
ATOM     17  CD  GLU D 570     -21.704  -5.172 -13.710  1.00 32.92     0.185 C 
ATOM     18  OE1 GLU D 570     -21.675  -5.108 -14.954  1.00 32.92    -0.647 OA
ATOM     19  OE2 GLU D 570     -22.725  -4.916 -13.041  1.00 32.92    -0.647 OA
ENDBRANCH  16  17
ENDBRANCH  15  16
ENDBRANCH  14  15
END_RES GLU D 570
ENDMDL
MODEL 7
REMARK VINA RESULT:     -10.0      3.158      4.678
REMARK  3 active torsions:
REMARK  status: ('A' for Active; 'I' for Inactive)
REMARK    1  A    between atoms: N_9  and  C_10 
REMARK    2  A    between atoms: C_10  and  C_11 
REMARK    3  A    between atoms: C_15  and  C_16 
ROOT
HETATM    1  C   UNL     1     -22.534 -11.407  -3.618  1.00  0.00     0.050 C 
HETATM    2  C   UNL     1     -21.310 -11.841  -4.365  1.00  0.00    -0.033 A 
HETATM    3  C   UNL     1     -21.466 -12.860  -5.334  1.00  0.00     0.033 A 
HETATM    4  C   UNL     1     -20.395 -13.299  -6.124  1.00  0.00     0.035 A 
HETATM    5 CL   UNL     1     -20.636 -14.555  -7.274  1.00  0.00    -0.084 Cl
HETATM    6  C   UNL     1     -19.139 -12.725  -5.989  1.00  0.00     0.036 A 
HETATM    7  C   UNL     1     -18.977 -11.741  -5.019  1.00  0.00     0.018 A 
HETATM    8  C   UNL     1     -20.029 -11.321  -4.182  1.00  0.00     0.053 A 
HETATM    9  N   UNL     1     -19.506 -10.407  -3.235  1.00  0.00    -0.310 N 
HETATM   10  C   UNL     1     -18.124 -10.205  -3.429  1.00  0.00     0.268 C 
HETATM   11  O   UNL     1     -17.369  -9.567  -2.708  1.00  0.00    -0.269 OA
HETATM   12  C   UNL     1     -17.725 -10.988  -4.685  1.00  0.00     0.227 A 
HETATM   13  N   UNL     1     -16.571 -11.837  -4.529  1.00  0.00    -0.313 N 
HETATM   14  C   UNL     1     -15.531 -11.425  -5.323  1.00  0.00     0.324 A 
HETATM   15  O   UNL     1     -14.428 -11.936  -5.349  1.00  0.00    -0.247 OA
HETATM   16  N   UNL     1     -15.946 -10.384  -6.082  1.00  0.00    -0.276 N 
HETATM   17  C   UNL     1     -17.237 -10.055  -5.789  1.00  0.00     0.268 A 
HETATM   18  O   UNL     1     -17.871  -9.164  -6.334  1.00  0.00    -0.269 OA
HETATM   19  H   UNL     1     -16.447 -12.547  -3.821  1.00  0.00     0.166 HD
HETATM   20  H   UNL     1     -15.370  -9.912  -6.759  1.00  0.00     0.173 HD
ENDROOT
BRANCH   9  21
HETATM   21  C   UNL     1     -20.159  -9.887  -2.051  1.00  0.00     0.171 C 
BRANCH  21  22
HETATM   22  C   UNL     1     -20.794  -8.515  -2.193  1.00  0.00    -0.039 A 
HETATM   23  C   UNL     1     -21.543  -7.909  -1.176  1.00  0.00     0.009 A 
HETATM   24  C   UNL     1     -22.166  -6.677  -1.387  1.00  0.00     0.001 A 
HETATM   25  C   UNL     1     -22.052  -6.028  -2.615  1.00  0.00     0.016 A 
HETATM   26  C   UNL     1     -21.293  -6.596  -3.647  1.00  0.00     0.048 A 
HETATM   27  C   UNL     1     -20.651  -7.828  -3.415  1.00  0.00     0.025 A 
BRANCH  26  28
HETATM   28  C   UNL     1     -21.180  -5.920  -4.992  1.00  0.00     0.417 C 
HETATM   29  F   UNL     1     -20.471  -6.637  -5.910  1.00  0.00    -0.166 F 
HETATM   30  F   UNL     1     -22.395  -5.685  -5.562  1.00  0.00    -0.166 F 
HETATM   31  F   UNL     1     -20.565  -4.706  -4.917  1.00  0.00    -0.166 F 
ENDBRANCH  26  28
ENDBRANCH  21  22
ENDBRANCH   9  21
TORSDOF 3
BEGIN_RES ARG D 557
REMARK  4 active torsions:
REMARK  status: ('A' for Active; 'I' for Inactive)
REMARK    1  A    between atoms: CA   and  CB  
REMARK    2  A    between atoms: CB   and  CG  
REMARK    3  A    between atoms: CG   and  CD  
REMARK    4  A    between atoms: CD   and  NE  
REMARK       I    between atoms: NE   and  CZ  
REMARK       I    between atoms: CZ   and  NH1 
REMARK       I    between atoms: CZ   and  NH2 
ROOT
ATOM      1  CA  ARG D 557     -26.217   2.705 -17.014  1.00 35.49     0.159 C 
ENDROOT
BRANCH   1   2
ATOM      2  CB  ARG D 557     -26.789   1.319 -17.183  1.00 35.49     0.034 C 
BRANCH   2   3
ATOM      3  CG  ARG D 557     -28.150   1.100 -16.678  1.00 35.49     0.027 C 
BRANCH   3   4
ATOM      4  CD  ARG D 557     -28.788  -0.096 -17.275  1.00 35.49     0.116 C 
BRANCH   4   5
ATOM      5  NE  ARG D 557     -28.171  -1.318 -16.831  1.00 35.49    -0.212 N 
ATOM      6  CZ  ARG D 557     -28.642  -2.530 -17.024  1.00 35.49     0.666 C 
ATOM      7  NH1 ARG D 557     -29.779  -2.757 -17.657  1.00 35.49    -0.235 N 
ATOM      8  NH2 ARG D 557     -27.939  -3.527 -16.570  1.00 35.49    -0.235 N 
ATOM      9  HH  ARG D 557     -30.256  -2.116 -17.966  1.00 35.49     0.174 HD
ATOM     10  HH  ARG D 557     -30.034  -3.569 -17.755  1.00 35.49     0.174 HD
ATOM     11  HH  ARG D 557     -27.206  -3.350 -16.172  1.00 35.49     0.174 HD
ATOM     12  HH  ARG D 557     -28.209  -4.323 -16.679  1.00 35.49     0.174 HD
ATOM     13  HE  ARG D 557     -27.472  -1.261 -16.351  1.00 35.49     0.178 HD
ENDBRANCH   4   5
ENDBRANCH   3   4
ENDBRANCH   2   3
ENDBRANCH   1   2
END_RES ARG D 557
BEGIN_RES GLU D 570
REMARK  3 active torsions:
REMARK  status: ('A' for Active; 'I' for Inactive)
REMARK    5  A    between atoms: CA   and  CB  
REMARK    6  A    between atoms: CB   and  CG  
REMARK    7  A    between atoms: CG   and  CD  
ROOT
ATOM     14  CA  GLU D 570     -18.033  -6.348 -13.375  1.00 32.92     0.160 C 
ENDROOT
BRANCH  14  15
ATOM     15  CB  GLU D 570     -19.500  -6.345 -13.794  1.00 32.92     0.043 C 
BRANCH  15  16
ATOM     16  CG  GLU D 570     -20.446  -5.551 -12.968  1.00 32.92     0.100 C 
BRANCH  16  17
ATOM     17  CD  GLU D 570     -21.726  -5.214 -13.698  1.00 32.92     0.185 C 
ATOM     18  OE1 GLU D 570     -22.323  -4.158 -13.415  1.00 32.92    -0.647 OA
ATOM     19  OE2 GLU D 570     -22.144  -6.023 -14.549  1.00 32.92    -0.647 OA
ENDBRANCH  16  17
ENDBRANCH  15  16
ENDBRANCH  14  15
END_RES GLU D 570
ENDMDL
MODEL 8
REMARK VINA RESULT:      -9.8      4.623      6.307
REMARK  3 active torsions:
REMARK  status: ('A' for Active; 'I' for Inactive)
REMARK    1  A    between atoms: N_9  and  C_10 
REMARK    2  A    between atoms: C_10  and  C_11 
REMARK    3  A    between atoms: C_15  and  C_16 
ROOT
HETATM    1  C   UNL     1     -16.132  -9.483  -2.730  1.00  0.00     0.050 C 
HETATM    2  C   UNL     1     -16.200 -10.362  -3.942  1.00  0.00    -0.033 A 
HETATM    3  C   UNL     1     -14.987 -10.917  -4.412  1.00  0.00     0.033 A 
HETATM    4  C   UNL     1     -14.950 -11.794  -5.505  1.00  0.00     0.035 A 
HETATM    5 CL   UNL     1     -13.445 -12.425  -6.047  1.00  0.00    -0.084 Cl
HETATM    6  C   UNL     1     -16.120 -12.162  -6.152  1.00  0.00     0.036 A 
HETATM    7  C   UNL     1     -17.311 -11.597  -5.709  1.00  0.00     0.018 A 
HETATM    8  C   UNL     1     -17.364 -10.676  -4.644  1.00  0.00     0.053 A 
HETATM    9  N   UNL     1     -18.694 -10.205  -4.528  1.00  0.00    -0.310 N 
HETATM   10  C   UNL     1     -19.533 -10.800  -5.493  1.00  0.00     0.268 C 
HETATM   11  O   UNL     1     -20.701 -10.517  -5.723  1.00  0.00    -0.269 OA
HETATM   12  C   UNL     1     -18.689 -11.832  -6.251  1.00  0.00     0.227 A 
HETATM   13  N   UNL     1     -18.763 -11.740  -7.687  1.00  0.00    -0.313 N 
HETATM   14  C   UNL     1     -19.334 -12.860  -8.235  1.00  0.00     0.324 A 
HETATM   15  O   UNL     1     -19.558 -13.021  -9.420  1.00  0.00    -0.247 OA
HETATM   16  N   UNL     1     -19.577 -13.755  -7.249  1.00  0.00    -0.276 N 
HETATM   17  C   UNL     1     -19.217 -13.247  -6.034  1.00  0.00     0.268 A 
HETATM   18  O   UNL     1     -19.312 -13.845  -4.973  1.00  0.00    -0.269 OA
HETATM   19  H   UNL     1     -18.584 -10.913  -8.239  1.00  0.00     0.166 HD
HETATM   20  H   UNL     1     -19.980 -14.665  -7.397  1.00  0.00     0.173 HD
ENDROOT
BRANCH   9  21
HETATM   21  C   UNL     1     -19.176  -9.097  -3.728  1.00  0.00     0.171 C 
BRANCH  21  22
HETATM   22  C   UNL     1     -19.769  -9.462  -2.380  1.00  0.00    -0.039 A 
HETATM   23  C   UNL     1     -19.547 -10.696  -1.754  1.00  0.00     0.009 A 
HETATM   24  C   UNL     1     -20.178 -11.008  -0.547  1.00  0.00     0.001 A 
HETATM   25  C   UNL     1     -21.039 -10.093   0.056  1.00  0.00     0.016 A 
HETATM   26  C   UNL     1     -21.266  -8.841  -0.531  1.00  0.00     0.048 A 
HETATM   27  C   UNL     1     -20.607  -8.530  -1.736  1.00  0.00     0.025 A 
BRANCH  26  28
HETATM   28  C   UNL     1     -22.216  -7.849   0.096  1.00  0.00     0.417 C 
HETATM   29  F   UNL     1     -21.853  -7.459   1.351  1.00  0.00    -0.166 F 
HETATM   30  F   UNL     1     -22.330  -6.703  -0.631  1.00  0.00    -0.166 F 
HETATM   31  F   UNL     1     -23.481  -8.341   0.214  1.00  0.00    -0.166 F 
ENDBRANCH  26  28
ENDBRANCH  21  22
ENDBRANCH   9  21
TORSDOF 3
BEGIN_RES ARG D 557
REMARK  4 active torsions:
REMARK  status: ('A' for Active; 'I' for Inactive)
REMARK    1  A    between atoms: CA   and  CB  
REMARK    2  A    between atoms: CB   and  CG  
REMARK    3  A    between atoms: CG   and  CD  
REMARK    4  A    between atoms: CD   and  NE  
REMARK       I    between atoms: NE   and  CZ  
REMARK       I    between atoms: CZ   and  NH1 
REMARK       I    between atoms: CZ   and  NH2 
ROOT
ATOM      1  CA  ARG D 557     -26.217   2.705 -17.014  1.00 35.49     0.159 C 
ENDROOT
BRANCH   1   2
ATOM      2  CB  ARG D 557     -26.789   1.319 -17.183  1.00 35.49     0.034 C 
BRANCH   2   3
ATOM      3  CG  ARG D 557     -28.252   1.203 -17.181  1.00 35.49     0.027 C 
BRANCH   3   4
ATOM      4  CD  ARG D 557     -28.729   0.093 -16.324  1.00 35.49     0.116 C 
BRANCH   4   5
ATOM      5  NE  ARG D 557     -29.360  -0.949 -17.090  1.00 35.49    -0.212 N 
ATOM      6  CZ  ARG D 557     -28.964  -2.201 -17.157  1.00 35.49     0.666 C 
ATOM      7  NH1 ARG D 557     -27.898  -2.642 -16.516  1.00 35.49    -0.235 N 
ATOM      8  NH2 ARG D 557     -29.670  -3.016 -17.885  1.00 35.49    -0.235 N 
ATOM      9  HH  ARG D 557     -27.419  -2.123 -16.029  1.00 35.49     0.174 HD
ATOM     10  HH  ARG D 557     -27.689  -3.469 -16.595  1.00 35.49     0.174 HD
ATOM     11  HH  ARG D 557     -30.358  -2.705 -18.282  1.00 35.49     0.174 HD
ATOM     12  HH  ARG D 557     -29.448  -3.832 -17.949  1.00 35.49     0.174 HD
ATOM     13  HE  ARG D 557     -30.013  -0.737 -17.592  1.00 35.49     0.178 HD
ENDBRANCH   4   5
ENDBRANCH   3   4
ENDBRANCH   2   3
ENDBRANCH   1   2
END_RES ARG D 557
BEGIN_RES GLU D 570
REMARK  3 active torsions:
REMARK  status: ('A' for Active; 'I' for Inactive)
REMARK    5  A    between atoms: CA   and  CB  
REMARK    6  A    between atoms: CB   and  CG  
REMARK    7  A    between atoms: CG   and  CD  
ROOT
ATOM     14  CA  GLU D 570     -18.033  -6.348 -13.375  1.00 32.92     0.160 C 
ENDROOT
BRANCH  14  15
ATOM     15  CB  GLU D 570     -19.500  -6.345 -13.794  1.00 32.92     0.043 C 
BRANCH  15  16
ATOM     16  CG  GLU D 570     -19.974  -7.475 -14.633  1.00 32.92     0.100 C 
BRANCH  16  17
ATOM     17  CD  GLU D 570     -21.323  -7.216 -15.264  1.00 32.92     0.185 C 
ATOM     18  OE1 GLU D 570     -22.076  -6.365 -14.753  1.00 32.92    -0.647 OA
ATOM     19  OE2 GLU D 570     -21.636  -7.883 -16.270  1.00 32.92    -0.647 OA
ENDBRANCH  16  17
ENDBRANCH  15  16
ENDBRANCH  14  15
END_RES GLU D 570
ENDMDL
MODEL 9
REMARK VINA RESULT:      -9.6      4.148      6.067
REMARK  3 active torsions:
REMARK  status: ('A' for Active; 'I' for Inactive)
REMARK    1  A    between atoms: N_9  and  C_10 
REMARK    2  A    between atoms: C_10  and  C_11 
REMARK    3  A    between atoms: C_15  and  C_16 
ROOT
HETATM    1  C   UNL     1     -21.377 -10.416  -5.220  1.00  0.00     0.050 C 
HETATM    2  C   UNL     1     -20.161 -11.286  -5.321  1.00  0.00    -0.033 A 
HETATM    3  C   UNL     1     -20.285 -12.498  -6.039  1.00  0.00     0.033 A 
HETATM    4  C   UNL     1     -19.194 -13.355  -6.237  1.00  0.00     0.035 A 
HETATM    5 CL   UNL     1     -19.405 -14.827  -7.103  1.00  0.00    -0.084 Cl
HETATM    6  C   UNL     1     -17.941 -13.025  -5.743  1.00  0.00     0.036 A 
HETATM    7  C   UNL     1     -17.821 -11.847  -5.014  1.00  0.00     0.018 A 
HETATM    8  C   UNL     1     -18.916 -10.996  -4.762  1.00  0.00     0.053 A 
HETATM    9  N   UNL     1     -18.485  -9.961  -3.898  1.00  0.00    -0.310 N 
HETATM   10  C   UNL     1     -17.121 -10.101  -3.572  1.00  0.00     0.268 C 
HETATM   11  O   UNL     1     -16.489  -9.437  -2.761  1.00  0.00    -0.269 OA
HETATM   12  C   UNL     1     -16.583 -11.289  -4.380  1.00  0.00     0.227 A 
HETATM   13  N   UNL     1     -15.846 -12.260  -3.612  1.00  0.00    -0.313 N 
HETATM   14  C   UNL     1     -14.532 -12.317  -4.001  1.00  0.00     0.324 A 
HETATM   15  O   UNL     1     -13.681 -13.018  -3.486  1.00  0.00    -0.247 OA
HETATM   16  N   UNL     1     -14.353 -11.493  -5.060  1.00  0.00    -0.276 N 
HETATM   17  C   UNL     1     -15.512 -10.845  -5.372  1.00  0.00     0.268 A 
HETATM   18  O   UNL     1     -15.643 -10.053  -6.292  1.00  0.00    -0.269 OA
HETATM   19  H   UNL     1     -16.173 -12.733  -2.782  1.00  0.00     0.166 HD
HETATM   20  H   UNL     1     -13.476 -11.369  -5.539  1.00  0.00     0.173 HD
ENDROOT
BRANCH   9  21
HETATM   21  C   UNL     1     -19.305  -8.991  -3.200  1.00  0.00     0.171 C 
BRANCH  21  22
HETATM   22  C   UNL     1     -19.987  -9.486  -1.938  1.00  0.00    -0.039 A 
HETATM   23  C   UNL     1     -19.727 -10.739  -1.368  1.00  0.00     0.009 A 
HETATM   24  C   UNL     1     -20.437 -11.174  -0.247  1.00  0.00     0.001 A 
HETATM   25  C   UNL     1     -21.418 -10.365   0.326  1.00  0.00     0.016 A 
HETATM   26  C   UNL     1     -21.688  -9.098  -0.206  1.00  0.00     0.048 A 
HETATM   27  C   UNL     1     -20.950  -8.661  -1.322  1.00  0.00     0.025 A 
BRANCH  26  28
HETATM   28  C   UNL     1     -22.765  -8.220   0.386  1.00  0.00     0.417 C 
HETATM   29  F   UNL     1     -23.965  -8.851   0.537  1.00  0.00    -0.166 F 
HETATM   30  F   UNL     1     -22.436  -7.748   1.621  1.00  0.00    -0.166 F 
HETATM   31  F   UNL     1     -23.019  -7.120  -0.376  1.00  0.00    -0.166 F 
ENDBRANCH  26  28
ENDBRANCH  21  22
ENDBRANCH   9  21
TORSDOF 3
BEGIN_RES ARG D 557
REMARK  4 active torsions:
REMARK  status: ('A' for Active; 'I' for Inactive)
REMARK    1  A    between atoms: CA   and  CB  
REMARK    2  A    between atoms: CB   and  CG  
REMARK    3  A    between atoms: CG   and  CD  
REMARK    4  A    between atoms: CD   and  NE  
REMARK       I    between atoms: NE   and  CZ  
REMARK       I    between atoms: CZ   and  NH1 
REMARK       I    between atoms: CZ   and  NH2 
ROOT
ATOM      1  CA  ARG D 557     -26.217   2.705 -17.014  1.00 35.49     0.159 C 
ENDROOT
BRANCH   1   2
ATOM      2  CB  ARG D 557     -26.789   1.319 -17.183  1.00 35.49     0.034 C 
BRANCH   2   3
ATOM      3  CG  ARG D 557     -25.864   0.195 -16.994  1.00 35.49     0.027 C 
BRANCH   3   4
ATOM      4  CD  ARG D 557     -26.279  -0.697 -15.887  1.00 35.49     0.116 C 
BRANCH   4   5
ATOM      5  NE  ARG D 557     -25.217  -0.919 -14.942  1.00 35.49    -0.212 N 
ATOM      6  CZ  ARG D 557     -24.930  -2.064 -14.364  1.00 35.49     0.666 C 
ATOM      7  NH1 ARG D 557     -25.622  -3.166 -14.590  1.00 35.49    -0.235 N 
ATOM      8  NH2 ARG D 557     -23.917  -2.087 -13.547  1.00 35.49    -0.235 N 
ATOM      9  HH  ARG D 557     -26.291  -3.174 -15.125  1.00 35.49     0.174 HD
ATOM     10  HH  ARG D 557     -25.386  -3.884 -14.186  1.00 35.49     0.174 HD
ATOM     11  HH  ARG D 557     -23.484  -1.362 -13.426  1.00 35.49     0.174 HD
ATOM     12  HH  ARG D 557     -23.699  -2.808 -13.158  1.00 35.49     0.174 HD
ATOM     13  HE  ARG D 557     -24.766  -0.246 -14.683  1.00 35.49     0.178 HD
ENDBRANCH   4   5
ENDBRANCH   3   4
ENDBRANCH   2   3
ENDBRANCH   1   2
END_RES ARG D 557
BEGIN_RES GLU D 570
REMARK  3 active torsions:
REMARK  status: ('A' for Active; 'I' for Inactive)
REMARK    5  A    between atoms: CA   and  CB  
REMARK    6  A    between atoms: CB   and  CG  
REMARK    7  A    between atoms: CG   and  CD  
ROOT
ATOM     14  CA  GLU D 570     -18.033  -6.348 -13.375  1.00 32.92     0.160 C 
ENDROOT
BRANCH  14  15
ATOM     15  CB  GLU D 570     -19.500  -6.345 -13.794  1.00 32.92     0.043 C 
BRANCH  15  16
ATOM     16  CG  GLU D 570     -20.441  -5.527 -12.986  1.00 32.92     0.100 C 
BRANCH  16  17
ATOM     17  CD  GLU D 570     -21.685  -5.134 -13.748  1.00 32.92     0.185 C 
ATOM     18  OE1 GLU D 570     -21.617  -4.988 -14.984  1.00 32.92    -0.647 OA
ATOM     19  OE2 GLU D 570     -22.735  -4.954 -13.101  1.00 32.92    -0.647 OA
ENDBRANCH  16  17
ENDBRANCH  15  16
ENDBRANCH  14  15
END_RES GLU D 570
ENDMDL
