MODEL 1
REMARK VINA RESULT:     -11.3      0.000      0.000
REMARK  4 active torsions:
REMARK  status: ('A' for Active; 'I' for Inactive)
REMARK       I    between atoms: C_2  and  N_3 
REMARK       I    between atoms: C_2  and  N_15 
REMARK    1  A    between atoms: N_3  and  C_4 
REMARK    2  A    between atoms: C_4  and  C_5 
REMARK    3  A    between atoms: C_8  and  C_9 
REMARK    4  A    between atoms: N_15  and  C_16 
ROOT
HETATM    1  O   UNL     1     -19.714  -6.335  -7.429  1.00  0.00    -0.247 OA
HETATM    2  C   UNL     1     -20.722  -5.862  -6.920  1.00  0.00     0.321 C 
HETATM    3  N   UNL     1     -21.123  -6.232  -5.657  1.00  0.00    -0.339 N 
HETATM    4  N   UNL     1     -21.593  -4.956  -7.507  1.00  0.00    -0.308 N 
HETATM    5  H   UNL     1     -21.891  -5.760  -5.207  1.00  0.00     0.164 HD
HETATM    6  H   UNL     1     -22.504  -4.906  -7.084  1.00  0.00     0.170 HD
ENDROOT
BRANCH   3   7
HETATM    7  C   UNL     1     -20.367  -7.197  -4.880  1.00  0.00     0.162 C 
BRANCH   7   8
HETATM    8  C   UNL     1     -21.025  -7.503  -3.554  1.00  0.00    -0.040 A 
HETATM    9  C   UNL     1     -21.020  -8.803  -3.032  1.00  0.00     0.009 A 
HETATM   10  C   UNL     1     -21.584  -9.074  -1.779  1.00  0.00     0.017 A 
HETATM   11  C   UNL     1     -22.162  -8.043  -1.027  1.00  0.00     0.047 A 
HETATM   12  C   UNL     1     -22.169  -6.738  -1.551  1.00  0.00     0.017 A 
HETATM   13  C   UNL     1     -21.604  -6.471  -2.802  1.00  0.00     0.009 A 
BRANCH  11  14
HETATM   14  C   UNL     1     -22.762  -8.313   0.333  1.00  0.00     0.417 C 
HETATM   15  F   UNL     1     -23.789  -7.475   0.652  1.00  0.00    -0.166 F 
HETATM   16  F   UNL     1     -23.262  -9.575   0.444  1.00  0.00    -0.166 F 
HETATM   17  F   UNL     1     -21.852  -8.185   1.338  1.00  0.00    -0.166 F 
ENDBRANCH  11  14
ENDBRANCH   7   8
ENDBRANCH   3   7
BRANCH   4  18
HETATM   18  C   UNL     1     -21.487  -4.463  -8.846  1.00  0.00     0.047 C 
HETATM   19  C   UNL     1     -20.249  -4.468  -9.507  1.00  0.00     0.030 C 
HETATM   20  C   UNL     1     -20.155  -4.182 -10.868  1.00  0.00     0.003 C 
HETATM   21  C   UNL     1     -21.309  -3.943 -11.598  1.00  0.00     0.014 C 
HETATM   22  C   UNL     1     -22.551  -3.869 -10.953  1.00  0.00    -0.008 C 
HETATM   23  C   UNL     1     -23.714  -3.616 -11.680  1.00  0.00     0.100 C 
HETATM   24  C   UNL     1     -22.648  -4.026  -9.549  1.00  0.00     0.004 C 
HETATM   25  N   UNL     1     -24.920  -3.362 -11.132  1.00  0.00    -0.374 N 
HETATM   26  C   UNL     1     -24.971  -3.367  -9.788  1.00  0.00     0.088 C 
ATOM     27  HN  UNL     1     -25.745  -3.177 -11.703  1.00  0.00     0.164 HD
HETATM   28  C   UNL     1     -23.902  -3.720  -8.971  1.00  0.00     0.031 C 
ENDBRANCH   4  18
TORSDOF 4
BEGIN_RES ARG D 557
REMARK  4 active torsions:
REMARK  status: ('A' for Active; 'I' for Inactive)
REMARK    1  A    between atoms: CA   and  CB  
REMARK    2  A    between atoms: CB   and  CG  
REMARK    3  A    between atoms: CG   and  CD  
REMARK    4  A    between atoms: CD   and  NE  
REMARK       I    between atoms: NE   and  CZ  
REMARK       I    between atoms: CZ   and  NH1 
REMARK       I    between atoms: CZ   and  NH2 
ROOT
ATOM      1  CA  ARG D 557     -26.217   2.705 -17.014  1.00 35.49     0.159 C 
ENDROOT
BRANCH   1   2
ATOM      2  CB  ARG D 557     -26.789   1.319 -17.183  1.00 35.49     0.034 C 
BRANCH   2   3
ATOM      3  CG  ARG D 557     -28.245   1.184 -17.048  1.00 35.49     0.027 C 
BRANCH   3   4
ATOM      4  CD  ARG D 557     -28.656  -0.203 -16.733  1.00 35.49     0.116 C 
BRANCH   4   5
ATOM      5  NE  ARG D 557     -27.627  -0.929 -16.035  1.00 35.49    -0.212 N 
ATOM      6  CZ  ARG D 557     -27.431  -2.227 -16.090  1.00 35.49     0.666 C 
ATOM      7  NH1 ARG D 557     -28.195  -3.030 -16.807  1.00 35.49    -0.235 N 
ATOM      8  NH2 ARG D 557     -26.435  -2.713 -15.408  1.00 35.49    -0.235 N 
ATOM      9  HH  ARG D 557     -28.855  -2.732 -17.265  1.00 35.49     0.174 HD
ATOM     10  HH  ARG D 557     -28.018  -3.868 -16.807  1.00 35.49     0.174 HD
ATOM     11  HH  ARG D 557     -25.953  -2.169 -14.960  1.00 35.49     0.174 HD
ATOM     12  HH  ARG D 557     -26.274  -3.545 -15.422  1.00 35.49     0.174 HD
ATOM     13  HE  ARG D 557     -27.133  -0.499 -15.493  1.00 35.49     0.178 HD
ENDBRANCH   4   5
ENDBRANCH   3   4
ENDBRANCH   2   3
ENDBRANCH   1   2
END_RES ARG D 557
BEGIN_RES GLU D 570
REMARK  3 active torsions:
REMARK  status: ('A' for Active; 'I' for Inactive)
REMARK    5  A    between atoms: CA   and  CB  
REMARK    6  A    between atoms: CB   and  CG  
REMARK    7  A    between atoms: CG   and  CD  
ROOT
ATOM     14  CA  GLU D 570     -18.033  -6.348 -13.375  1.00 32.92     0.160 C 
ENDROOT
BRANCH  14  15
ATOM     15  CB  GLU D 570     -19.500  -6.345 -13.794  1.00 32.92     0.043 C 
BRANCH  15  16
ATOM     16  CG  GLU D 570     -19.813  -5.938 -15.188  1.00 32.92     0.100 C 
BRANCH  16  17
ATOM     17  CD  GLU D 570     -21.262  -5.553 -15.379  1.00 32.92     0.185 C 
ATOM     18  OE1 GLU D 570     -22.113  -5.988 -14.580  1.00 32.92    -0.647 OA
ATOM     19  OE2 GLU D 570     -21.550  -4.823 -16.348  1.00 32.92    -0.647 OA
ENDBRANCH  16  17
ENDBRANCH  15  16
ENDBRANCH  14  15
END_RES GLU D 570
ENDMDL
MODEL 2
REMARK VINA RESULT:     -11.1      4.862      7.881
REMARK  4 active torsions:
REMARK  status: ('A' for Active; 'I' for Inactive)
REMARK       I    between atoms: C_2  and  N_3 
REMARK       I    between atoms: C_2  and  N_15 
REMARK    1  A    between atoms: N_3  and  C_4 
REMARK    2  A    between atoms: C_4  and  C_5 
REMARK    3  A    between atoms: C_8  and  C_9 
REMARK    4  A    between atoms: N_15  and  C_16 
ROOT
HETATM    1  O   UNL     1     -24.858  -4.070 -15.023  1.00  0.00    -0.247 OA
HETATM    2  C   UNL     1     -24.424  -5.196 -14.812  1.00  0.00     0.321 C 
HETATM    3  N   UNL     1     -23.280  -5.392 -14.075  1.00  0.00    -0.339 N 
HETATM    4  N   UNL     1     -24.961  -6.385 -15.281  1.00  0.00    -0.308 N 
HETATM    5  H   UNL     1     -22.991  -6.321 -13.818  1.00  0.00     0.164 HD
HETATM    6  H   UNL     1     -24.331  -7.170 -15.272  1.00  0.00     0.170 HD
ENDROOT
BRANCH   3   7
HETATM    7  C   UNL     1     -22.543  -4.272 -13.518  1.00  0.00     0.162 C 
BRANCH   7   8
HETATM    8  C   UNL     1     -22.454  -4.341 -12.010  1.00  0.00    -0.040 A 
HETATM    9  C   UNL     1     -21.247  -4.075 -11.349  1.00  0.00     0.009 A 
HETATM   10  C   UNL     1     -21.180  -4.088  -9.950  1.00  0.00     0.017 A 
HETATM   11  C   UNL     1     -22.324  -4.366  -9.190  1.00  0.00     0.047 A 
HETATM   12  C   UNL     1     -23.534  -4.634  -9.854  1.00  0.00     0.017 A 
HETATM   13  C   UNL     1     -23.598  -4.620 -11.251  1.00  0.00     0.009 A 
BRANCH  11  14
HETATM   14  C   UNL     1     -22.275  -4.370  -7.681  1.00  0.00     0.417 C 
HETATM   15  F   UNL     1     -21.648  -3.281  -7.153  1.00  0.00    -0.166 F 
HETATM   16  F   UNL     1     -23.514  -4.396  -7.116  1.00  0.00    -0.166 F 
HETATM   17  F   UNL     1     -21.619  -5.454  -7.184  1.00  0.00    -0.166 F 
ENDBRANCH  11  14
ENDBRANCH   7   8
ENDBRANCH   3   7
BRANCH   4  18
HETATM   18  C   UNL     1     -26.093  -6.491 -16.149  1.00  0.00     0.047 C 
HETATM   19  C   UNL     1     -27.394  -6.403 -15.631  1.00  0.00     0.030 C 
HETATM   20  C   UNL     1     -28.502  -6.303 -16.471  1.00  0.00     0.003 C 
HETATM   21  C   UNL     1     -28.317  -6.232 -17.843  1.00  0.00     0.014 C 
HETATM   22  C   UNL     1     -27.036  -6.381 -18.391  1.00  0.00    -0.008 C 
HETATM   23  C   UNL     1     -26.844  -6.322 -19.771  1.00  0.00     0.100 C 
HETATM   24  C   UNL     1     -25.914  -6.616 -17.558  1.00  0.00     0.004 C 
HETATM   25  N   UNL     1     -25.686  -6.619 -20.397  1.00  0.00    -0.374 N 
HETATM   26  C   UNL     1     -24.664  -6.987 -19.605  1.00  0.00     0.088 C 
ATOM     27  HN  UNL     1     -25.592  -6.568 -21.411  1.00  0.00     0.164 HD
HETATM   28  C   UNL     1     -24.712  -6.967 -18.215  1.00  0.00     0.031 C 
ENDBRANCH   4  18
TORSDOF 4
BEGIN_RES ARG D 557
REMARK  4 active torsions:
REMARK  status: ('A' for Active; 'I' for Inactive)
REMARK    1  A    between atoms: CA   and  CB  
REMARK    2  A    between atoms: CB   and  CG  
REMARK    3  A    between atoms: CG   and  CD  
REMARK    4  A    between atoms: CD   and  NE  
REMARK       I    between atoms: NE   and  CZ  
REMARK       I    between atoms: CZ   and  NH1 
REMARK       I    between atoms: CZ   and  NH2 
ROOT
ATOM      1  CA  ARG D 557     -26.217   2.705 -17.014  1.00 35.49     0.159 C 
ENDROOT
BRANCH   1   2
ATOM      2  CB  ARG D 557     -26.789   1.319 -17.183  1.00 35.49     0.034 C 
BRANCH   2   3
ATOM      3  CG  ARG D 557     -28.228   1.227 -17.460  1.00 35.49     0.027 C 
BRANCH   3   4
ATOM      4  CD  ARG D 557     -28.908   0.241 -16.590  1.00 35.49     0.116 C 
BRANCH   4   5
ATOM      5  NE  ARG D 557     -28.032  -0.831 -16.197  1.00 35.49    -0.212 N 
ATOM      6  CZ  ARG D 557     -28.125  -2.081 -16.591  1.00 35.49     0.666 C 
ATOM      7  NH1 ARG D 557     -29.074  -2.499 -17.407  1.00 35.49    -0.235 N 
ATOM      8  NH2 ARG D 557     -27.229  -2.917 -16.151  1.00 35.49    -0.235 N 
ATOM      9  HH  ARG D 557     -29.673  -1.966 -17.711  1.00 35.49     0.174 HD
ATOM     10  HH  ARG D 557     -29.083  -3.326 -17.632  1.00 35.49     0.174 HD
ATOM     11  HH  ARG D 557     -26.623  -2.617 -15.631  1.00 35.49     0.174 HD
ATOM     12  HH  ARG D 557     -27.254  -3.731 -16.386  1.00 35.49     0.174 HD
ATOM     13  HE  ARG D 557     -27.435  -0.666 -15.615  1.00 35.49     0.178 HD
ENDBRANCH   4   5
ENDBRANCH   3   4
ENDBRANCH   2   3
ENDBRANCH   1   2
END_RES ARG D 557
BEGIN_RES GLU D 570
REMARK  3 active torsions:
REMARK  status: ('A' for Active; 'I' for Inactive)
REMARK    5  A    between atoms: CA   and  CB  
REMARK    6  A    between atoms: CB   and  CG  
REMARK    7  A    between atoms: CG   and  CD  
ROOT
ATOM     14  CA  GLU D 570     -18.033  -6.348 -13.375  1.00 32.92     0.160 C 
ENDROOT
BRANCH  14  15
ATOM     15  CB  GLU D 570     -19.500  -6.345 -13.794  1.00 32.92     0.043 C 
BRANCH  15  16
ATOM     16  CG  GLU D 570     -19.796  -6.315 -15.250  1.00 32.92     0.100 C 
BRANCH  16  17
ATOM     17  CD  GLU D 570     -20.785  -7.376 -15.672  1.00 32.92     0.185 C 
ATOM     18  OE1 GLU D 570     -20.477  -8.576 -15.543  1.00 32.92    -0.647 OA
ATOM     19  OE2 GLU D 570     -21.873  -7.003 -16.152  1.00 32.92    -0.647 OA
ENDBRANCH  16  17
ENDBRANCH  15  16
ENDBRANCH  14  15
END_RES GLU D 570
ENDMDL
MODEL 3
REMARK VINA RESULT:     -10.8      4.976      7.956
REMARK  4 active torsions:
REMARK  status: ('A' for Active; 'I' for Inactive)
REMARK       I    between atoms: C_2  and  N_3 
REMARK       I    between atoms: C_2  and  N_15 
REMARK    1  A    between atoms: N_3  and  C_4 
REMARK    2  A    between atoms: C_4  and  C_5 
REMARK    3  A    between atoms: C_8  and  C_9 
REMARK    4  A    between atoms: N_15  and  C_16 
ROOT
HETATM    1  O   UNL     1     -24.554  -4.259 -15.052  1.00  0.00    -0.247 OA
HETATM    2  C   UNL     1     -24.241  -5.402 -14.741  1.00  0.00     0.321 C 
HETATM    3  N   UNL     1     -23.150  -5.648 -13.940  1.00  0.00    -0.339 N 
HETATM    4  N   UNL     1     -24.873  -6.567 -15.146  1.00  0.00    -0.308 N 
HETATM    5  H   UNL     1     -22.963  -6.579 -13.604  1.00  0.00     0.164 HD
HETATM    6  H   UNL     1     -24.324  -7.405 -15.052  1.00  0.00     0.170 HD
ENDROOT
BRANCH   3   7
HETATM    7  C   UNL     1     -22.328  -4.564 -13.433  1.00  0.00     0.162 C 
BRANCH   7   8
HETATM    8  C   UNL     1     -22.352  -4.488 -11.923  1.00  0.00    -0.040 A 
HETATM    9  C   UNL     1     -23.531  -4.745 -11.210  1.00  0.00     0.009 A 
HETATM   10  C   UNL     1     -23.539  -4.726  -9.810  1.00  0.00     0.017 A 
HETATM   11  C   UNL     1     -22.362  -4.451  -9.101  1.00  0.00     0.047 A 
HETATM   12  C   UNL     1     -21.180  -4.192  -9.816  1.00  0.00     0.017 A 
HETATM   13  C   UNL     1     -21.175  -4.212 -11.215  1.00  0.00     0.009 A 
BRANCH  11  14
HETATM   14  C   UNL     1     -22.347  -4.441  -7.590  1.00  0.00     0.417 C 
HETATM   15  F   UNL     1     -21.761  -5.544  -7.043  1.00  0.00    -0.166 F 
HETATM   16  F   UNL     1     -21.676  -3.371  -7.079  1.00  0.00    -0.166 F 
HETATM   17  F   UNL     1     -23.599  -4.381  -7.057  1.00  0.00    -0.166 F 
ENDBRANCH  11  14
ENDBRANCH   7   8
ENDBRANCH   3   7
BRANCH   4  18
HETATM   18  C   UNL     1     -25.977  -6.631 -16.055  1.00  0.00     0.047 C 
HETATM   19  C   UNL     1     -27.293  -6.530 -15.579  1.00  0.00     0.030 C 
HETATM   20  C   UNL     1     -28.369  -6.389 -16.453  1.00  0.00     0.003 C 
HETATM   21  C   UNL     1     -28.135  -6.290 -17.816  1.00  0.00     0.014 C 
HETATM   22  C   UNL     1     -26.839  -6.450 -18.323  1.00  0.00    -0.008 C 
HETATM   23  C   UNL     1     -26.599  -6.363 -19.695  1.00  0.00     0.100 C 
HETATM   24  C   UNL     1     -25.752  -6.726 -17.459  1.00  0.00     0.004 C 
HETATM   25  N   UNL     1     -25.426  -6.668 -20.287  1.00  0.00    -0.374 N 
HETATM   26  C   UNL     1     -24.438  -7.073 -19.470  1.00  0.00     0.088 C 
ATOM     27  HN  UNL     1     -25.296  -6.595 -21.297  1.00  0.00     0.164 HD
HETATM   28  C   UNL     1     -24.534  -7.085 -18.083  1.00  0.00     0.031 C 
ENDBRANCH   4  18
TORSDOF 4
BEGIN_RES ARG D 557
REMARK  4 active torsions:
REMARK  status: ('A' for Active; 'I' for Inactive)
REMARK    1  A    between atoms: CA   and  CB  
REMARK    2  A    between atoms: CB   and  CG  
REMARK    3  A    between atoms: CG   and  CD  
REMARK    4  A    between atoms: CD   and  NE  
REMARK       I    between atoms: NE   and  CZ  
REMARK       I    between atoms: CZ   and  NH1 
REMARK       I    between atoms: CZ   and  NH2 
ROOT
ATOM      1  CA  ARG D 557     -26.217   2.705 -17.014  1.00 35.49     0.159 C 
ENDROOT
BRANCH   1   2
ATOM      2  CB  ARG D 557     -26.789   1.319 -17.183  1.00 35.49     0.034 C 
BRANCH   2   3
ATOM      3  CG  ARG D 557     -25.832   0.206 -17.190  1.00 35.49     0.027 C 
BRANCH   3   4
ATOM      4  CD  ARG D 557     -24.673   0.452 -16.302  1.00 35.49     0.116 C 
BRANCH   4   5
ATOM      5  NE  ARG D 557     -24.766  -0.289 -15.071  1.00 35.49    -0.212 N 
ATOM      6  CZ  ARG D 557     -23.963  -1.259 -14.697  1.00 35.49     0.666 C 
ATOM      7  NH1 ARG D 557     -22.961  -1.679 -15.446  1.00 35.49    -0.235 N 
ATOM      8  NH2 ARG D 557     -24.183  -1.806 -13.536  1.00 35.49    -0.235 N 
ATOM      9  HH  ARG D 557     -22.796  -1.332 -16.212  1.00 35.49     0.174 HD
ATOM     10  HH  ARG D 557     -22.468  -2.314 -15.148  1.00 35.49     0.174 HD
ATOM     11  HH  ARG D 557     -24.834  -1.509 -13.071  1.00 35.49     0.174 HD
ATOM     12  HH  ARG D 557     -23.684  -2.433 -13.259  1.00 35.49     0.174 HD
ATOM     13  HE  ARG D 557     -25.428  -0.133 -14.561  1.00 35.49     0.178 HD
ENDBRANCH   4   5
ENDBRANCH   3   4
ENDBRANCH   2   3
ENDBRANCH   1   2
END_RES ARG D 557
BEGIN_RES GLU D 570
REMARK  3 active torsions:
REMARK  status: ('A' for Active; 'I' for Inactive)
REMARK    5  A    between atoms: CA   and  CB  
REMARK    6  A    between atoms: CB   and  CG  
REMARK    7  A    between atoms: CG   and  CD  
ROOT
ATOM     14  CA  GLU D 570     -18.033  -6.348 -13.375  1.00 32.92     0.160 C 
ENDROOT
BRANCH  14  15
ATOM     15  CB  GLU D 570     -19.500  -6.345 -13.794  1.00 32.92     0.043 C 
BRANCH  15  16
ATOM     16  CG  GLU D 570     -20.098  -7.642 -14.203  1.00 32.92     0.100 C 
BRANCH  16  17
ATOM     17  CD  GLU D 570     -20.732  -7.593 -15.573  1.00 32.92     0.185 C 
ATOM     18  OE1 GLU D 570     -21.022  -8.662 -16.145  1.00 32.92    -0.647 OA
ATOM     19  OE2 GLU D 570     -20.925  -6.474 -16.088  1.00 32.92    -0.647 OA
ENDBRANCH  16  17
ENDBRANCH  15  16
ENDBRANCH  14  15
END_RES GLU D 570
ENDMDL
MODEL 4
REMARK VINA RESULT:     -10.7      4.505      8.302
REMARK  4 active torsions:
REMARK  status: ('A' for Active; 'I' for Inactive)
REMARK       I    between atoms: C_2  and  N_3 
REMARK       I    between atoms: C_2  and  N_15 
REMARK    1  A    between atoms: N_3  and  C_4 
REMARK    2  A    between atoms: C_4  and  C_5 
REMARK    3  A    between atoms: C_8  and  C_9 
REMARK    4  A    between atoms: N_15  and  C_16 
ROOT
HETATM    1  O   UNL     1     -20.050  -4.759  -4.906  1.00  0.00    -0.247 OA
HETATM    2  C   UNL     1     -20.953  -5.419  -5.406  1.00  0.00     0.321 C 
HETATM    3  N   UNL     1     -21.379  -5.183  -6.693  1.00  0.00    -0.339 N 
HETATM    4  N   UNL     1     -21.676  -6.426  -4.786  1.00  0.00    -0.308 N 
HETATM    5  H   UNL     1     -22.046  -5.797  -7.130  1.00  0.00     0.164 HD
HETATM    6  H   UNL     1     -22.555  -6.649  -5.221  1.00  0.00     0.170 HD
ENDROOT
BRANCH   3   7
HETATM    7  C   UNL     1     -20.774  -4.145  -7.508  1.00  0.00     0.162 C 
BRANCH   7   8
HETATM    8  C   UNL     1     -21.446  -4.013  -8.855  1.00  0.00    -0.040 A 
HETATM    9  C   UNL     1     -22.830  -3.815  -8.950  1.00  0.00     0.009 A 
HETATM   10  C   UNL     1     -23.444  -3.640 -10.198  1.00  0.00     0.017 A 
HETATM   11  C   UNL     1     -22.677  -3.660 -11.371  1.00  0.00     0.047 A 
HETATM   12  C   UNL     1     -21.289  -3.861 -11.274  1.00  0.00     0.017 A 
HETATM   13  C   UNL     1     -20.680  -4.034 -10.028  1.00  0.00     0.009 A 
BRANCH  11  14
HETATM   14  C   UNL     1     -23.319  -3.459 -12.723  1.00  0.00     0.417 C 
HETATM   15  F   UNL     1     -23.920  -4.580 -13.214  1.00  0.00    -0.166 F 
HETATM   16  F   UNL     1     -24.282  -2.496 -12.709  1.00  0.00    -0.166 F 
HETATM   17  F   UNL     1     -22.422  -3.072 -13.672  1.00  0.00    -0.166 F 
ENDBRANCH  11  14
ENDBRANCH   7   8
ENDBRANCH   3   7
BRANCH   4  18
HETATM   18  C   UNL     1     -21.522  -6.829  -3.422  1.00  0.00     0.047 C 
HETATM   19  C   UNL     1     -22.205  -6.151  -2.401  1.00  0.00     0.030 C 
HETATM   20  C   UNL     1     -22.231  -6.642  -1.097  1.00  0.00     0.003 C 
HETATM   21  C   UNL     1     -21.619  -7.852  -0.810  1.00  0.00     0.014 C 
HETATM   22  C   UNL     1     -20.878  -8.520  -1.794  1.00  0.00    -0.008 C 
HETATM   23  C   UNL     1     -20.250  -9.733  -1.508  1.00  0.00     0.100 C 
HETATM   24  C   UNL     1     -20.730  -7.968  -3.089  1.00  0.00     0.004 C 
HETATM   25  N   UNL     1     -19.384 -10.359  -2.331  1.00  0.00    -0.374 N 
HETATM   26  C   UNL     1     -19.135  -9.750  -3.503  1.00  0.00     0.088 C 
ATOM     27  HN  UNL     1     -18.944 -11.244  -2.078  1.00  0.00     0.164 HD
HETATM   28  C   UNL     1     -19.792  -8.603  -3.936  1.00  0.00     0.031 C 
ENDBRANCH   4  18
TORSDOF 4
BEGIN_RES ARG D 557
REMARK  4 active torsions:
REMARK  status: ('A' for Active; 'I' for Inactive)
REMARK    1  A    between atoms: CA   and  CB  
REMARK    2  A    between atoms: CB   and  CG  
REMARK    3  A    between atoms: CG   and  CD  
REMARK    4  A    between atoms: CD   and  NE  
REMARK       I    between atoms: NE   and  CZ  
REMARK       I    between atoms: CZ   and  NH1 
REMARK       I    between atoms: CZ   and  NH2 
ROOT
ATOM      1  CA  ARG D 557     -26.217   2.705 -17.014  1.00 35.49     0.159 C 
ENDROOT
BRANCH   1   2
ATOM      2  CB  ARG D 557     -26.789   1.319 -17.183  1.00 35.49     0.034 C 
BRANCH   2   3
ATOM      3  CG  ARG D 557     -28.178   1.121 -16.753  1.00 35.49     0.027 C 
BRANCH   3   4
ATOM      4  CD  ARG D 557     -28.723  -0.185 -17.189  1.00 35.49     0.116 C 
BRANCH   4   5
ATOM      5  NE  ARG D 557     -28.005  -1.292 -16.615  1.00 35.49    -0.212 N 
ATOM      6  CZ  ARG D 557     -28.271  -2.564 -16.809  1.00 35.49     0.666 C 
ATOM      7  NH1 ARG D 557     -29.271  -2.972 -17.568  1.00 35.49    -0.235 N 
ATOM      8  NH2 ARG D 557     -27.500  -3.435 -16.224  1.00 35.49    -0.235 N 
ATOM      9  HH  ARG D 557     -29.790  -2.417 -17.964  1.00 35.49     0.174 HD
ATOM     10  HH  ARG D 557     -29.395  -3.815 -17.660  1.00 35.49     0.174 HD
ATOM     11  HH  ARG D 557     -26.857  -3.142 -15.745  1.00 35.49     0.174 HD
ATOM     12  HH  ARG D 557     -27.638  -4.265 -16.328  1.00 35.49     0.174 HD
ATOM     13  HE  ARG D 557     -27.389  -1.120 -16.054  1.00 35.49     0.178 HD
ENDBRANCH   4   5
ENDBRANCH   3   4
ENDBRANCH   2   3
ENDBRANCH   1   2
END_RES ARG D 557
BEGIN_RES GLU D 570
REMARK  3 active torsions:
REMARK  status: ('A' for Active; 'I' for Inactive)
REMARK    5  A    between atoms: CA   and  CB  
REMARK    6  A    between atoms: CB   and  CG  
REMARK    7  A    between atoms: CG   and  CD  
ROOT
ATOM     14  CA  GLU D 570     -18.033  -6.348 -13.375  1.00 32.92     0.160 C 
ENDROOT
BRANCH  14  15
ATOM     15  CB  GLU D 570     -19.500  -6.345 -13.794  1.00 32.92     0.043 C 
BRANCH  15  16
ATOM     16  CG  GLU D 570     -19.809  -5.985 -15.202  1.00 32.92     0.100 C 
BRANCH  16  17
ATOM     17  CD  GLU D 570     -21.280  -5.733 -15.437  1.00 32.92     0.185 C 
ATOM     18  OE1 GLU D 570     -21.624  -4.771 -16.149  1.00 32.92    -0.647 OA
ATOM     19  OE2 GLU D 570     -22.099  -6.498 -14.888  1.00 32.92    -0.647 OA
ENDBRANCH  16  17
ENDBRANCH  15  16
ENDBRANCH  14  15
END_RES GLU D 570
ENDMDL
MODEL 5
REMARK VINA RESULT:     -10.6      1.439      1.979
REMARK  4 active torsions:
REMARK  status: ('A' for Active; 'I' for Inactive)
REMARK       I    between atoms: C_2  and  N_3 
REMARK       I    between atoms: C_2  and  N_15 
REMARK    1  A    between atoms: N_3  and  C_4 
REMARK    2  A    between atoms: C_4  and  C_5 
REMARK    3  A    between atoms: C_8  and  C_9 
REMARK    4  A    between atoms: N_15  and  C_16 
ROOT
HETATM    1  O   UNL     1     -19.795  -6.540  -7.436  1.00  0.00    -0.247 OA
HETATM    2  C   UNL     1     -20.635  -5.877  -6.841  1.00  0.00     0.321 C 
HETATM    3  N   UNL     1     -20.926  -6.117  -5.518  1.00  0.00    -0.339 N 
HETATM    4  N   UNL     1     -21.412  -4.861  -7.376  1.00  0.00    -0.308 N 
HETATM    5  H   UNL     1     -21.539  -5.501  -5.010  1.00  0.00     0.164 HD
HETATM    6  H   UNL     1     -22.239  -4.634  -6.851  1.00  0.00     0.170 HD
ENDROOT
BRANCH   3   7
HETATM    7  C   UNL     1     -20.246  -7.164  -4.776  1.00  0.00     0.162 C 
BRANCH   7   8
HETATM    8  C   UNL     1     -20.885  -7.416  -3.430  1.00  0.00    -0.040 A 
HETATM    9  C   UNL     1     -21.575  -6.397  -2.760  1.00  0.00     0.009 A 
HETATM   10  C   UNL     1     -22.211  -6.647  -1.538  1.00  0.00     0.017 A 
HETATM   11  C   UNL     1     -22.168  -7.926  -0.968  1.00  0.00     0.047 A 
HETATM   12  C   UNL     1     -21.475  -8.948  -1.639  1.00  0.00     0.017 A 
HETATM   13  C   UNL     1     -20.841  -8.696  -2.860  1.00  0.00     0.009 A 
BRANCH  11  14
HETATM   14  C   UNL     1     -22.861  -8.219   0.342  1.00  0.00     0.417 C 
HETATM   15  F   UNL     1     -23.491  -9.427   0.368  1.00  0.00    -0.166 F 
HETATM   16  F   UNL     1     -22.003  -8.223   1.400  1.00  0.00    -0.166 F 
HETATM   17  F   UNL     1     -23.815  -7.295   0.645  1.00  0.00    -0.166 F 
ENDBRANCH  11  14
ENDBRANCH   7   8
ENDBRANCH   3   7
BRANCH   4  18
HETATM   18  C   UNL     1     -21.400  -4.452  -8.748  1.00  0.00     0.047 C 
HETATM   19  C   UNL     1     -20.210  -4.494  -9.489  1.00  0.00     0.030 C 
HETATM   20  C   UNL     1     -20.209  -4.293 -10.869  1.00  0.00     0.003 C 
HETATM   21  C   UNL     1     -21.411  -4.104 -11.532  1.00  0.00     0.014 C 
HETATM   22  C   UNL     1     -22.607  -3.995 -10.811  1.00  0.00    -0.008 C 
HETATM   23  C   UNL     1     -23.819  -3.792 -11.472  1.00  0.00     0.100 C 
HETATM   24  C   UNL     1     -22.609  -4.064  -9.396  1.00  0.00     0.004 C 
HETATM   25  N   UNL     1     -24.987  -3.509 -10.861  1.00  0.00    -0.374 N 
HETATM   26  C   UNL     1     -24.948  -3.430  -9.519  1.00  0.00     0.088 C 
ATOM     27  HN  UNL     1     -25.849  -3.363 -11.386  1.00  0.00     0.164 HD
HETATM   28  C   UNL     1     -23.824  -3.727  -8.756  1.00  0.00     0.031 C 
ENDBRANCH   4  18
TORSDOF 4
BEGIN_RES ARG D 557
REMARK  4 active torsions:
REMARK  status: ('A' for Active; 'I' for Inactive)
REMARK    1  A    between atoms: CA   and  CB  
REMARK    2  A    between atoms: CB   and  CG  
REMARK    3  A    between atoms: CG   and  CD  
REMARK    4  A    between atoms: CD   and  NE  
REMARK       I    between atoms: NE   and  CZ  
REMARK       I    between atoms: CZ   and  NH1 
REMARK       I    between atoms: CZ   and  NH2 
ROOT
ATOM      1  CA  ARG D 557     -26.217   2.705 -17.014  1.00 35.49     0.159 C 
ENDROOT
BRANCH   1   2
ATOM      2  CB  ARG D 557     -26.789   1.319 -17.183  1.00 35.49     0.034 C 
BRANCH   2   3
ATOM      3  CG  ARG D 557     -25.832   0.206 -17.194  1.00 35.49     0.027 C 
BRANCH   3   4
ATOM      4  CD  ARG D 557     -24.628   0.489 -16.379  1.00 35.49     0.116 C 
BRANCH   4   5
ATOM      5  NE  ARG D 557     -24.639  -0.227 -15.130  1.00 35.49    -0.212 N 
ATOM      6  CZ  ARG D 557     -23.832  -1.211 -14.802  1.00 35.49     0.666 C 
ATOM      7  NH1 ARG D 557     -22.904  -1.671 -15.621  1.00 35.49    -0.235 N 
ATOM      8  NH2 ARG D 557     -23.971  -1.731 -13.617  1.00 35.49    -0.235 N 
ATOM      9  HH  ARG D 557     -22.794  -1.342 -16.405  1.00 35.49     0.174 HD
ATOM     10  HH  ARG D 557     -22.405  -2.313 -15.352  1.00 35.49     0.174 HD
ATOM     11  HH  ARG D 557     -24.573  -1.409 -13.107  1.00 35.49     0.174 HD
ATOM     12  HH  ARG D 557     -23.466  -2.365 -13.368  1.00 35.49     0.174 HD
ATOM     13  HE  ARG D 557     -25.253  -0.045 -14.571  1.00 35.49     0.178 HD
ENDBRANCH   4   5
ENDBRANCH   3   4
ENDBRANCH   2   3
ENDBRANCH   1   2
END_RES ARG D 557
BEGIN_RES GLU D 570
REMARK  3 active torsions:
REMARK  status: ('A' for Active; 'I' for Inactive)
REMARK    5  A    between atoms: CA   and  CB  
REMARK    6  A    between atoms: CB   and  CG  
REMARK    7  A    between atoms: CG   and  CD  
ROOT
ATOM     14  CA  GLU D 570     -18.033  -6.348 -13.375  1.00 32.92     0.160 C 
ENDROOT
BRANCH  14  15
ATOM     15  CB  GLU D 570     -19.500  -6.345 -13.794  1.00 32.92     0.043 C 
BRANCH  15  16
ATOM     16  CG  GLU D 570     -19.895  -5.433 -14.898  1.00 32.92     0.100 C 
BRANCH  16  17
ATOM     17  CD  GLU D 570     -21.317  -5.648 -15.360  1.00 32.92     0.185 C 
ATOM     18  OE1 GLU D 570     -21.981  -4.668 -15.750  1.00 32.92    -0.647 OA
ATOM     19  OE2 GLU D 570     -21.778  -6.805 -15.317  1.00 32.92    -0.647 OA
ENDBRANCH  16  17
ENDBRANCH  15  16
ENDBRANCH  14  15
END_RES GLU D 570
ENDMDL
MODEL 6
REMARK VINA RESULT:     -10.3      4.940      7.877
REMARK  4 active torsions:
REMARK  status: ('A' for Active; 'I' for Inactive)
REMARK       I    between atoms: C_2  and  N_3 
REMARK       I    between atoms: C_2  and  N_15 
REMARK    1  A    between atoms: N_3  and  C_4 
REMARK    2  A    between atoms: C_4  and  C_5 
REMARK    3  A    between atoms: C_8  and  C_9 
REMARK    4  A    between atoms: N_15  and  C_16 
ROOT
HETATM    1  O   UNL     1     -24.238  -5.937 -15.471  1.00  0.00    -0.247 OA
HETATM    2  C   UNL     1     -24.768  -5.064 -14.795  1.00  0.00     0.321 C 
HETATM    3  N   UNL     1     -24.130  -4.523 -13.702  1.00  0.00    -0.339 N 
HETATM    4  N   UNL     1     -26.034  -4.532 -14.984  1.00  0.00    -0.308 N 
HETATM    5  H   UNL     1     -24.528  -3.735 -13.218  1.00  0.00     0.164 HD
HETATM    6  H   UNL     1     -26.422  -4.059 -14.185  1.00  0.00     0.170 HD
ENDROOT
BRANCH   3   7
HETATM    7  C   UNL     1     -22.804  -4.966 -13.309  1.00  0.00     0.162 C 
BRANCH   7   8
HETATM    8  C   UNL     1     -22.530  -4.714 -11.844  1.00  0.00    -0.040 A 
HETATM    9  C   UNL     1     -23.552  -4.826 -10.892  1.00  0.00     0.009 A 
HETATM   10  C   UNL     1     -23.284  -4.644  -9.530  1.00  0.00     0.017 A 
HETATM   11  C   UNL     1     -21.984  -4.346  -9.099  1.00  0.00     0.047 A 
HETATM   12  C   UNL     1     -20.960  -4.232 -10.055  1.00  0.00     0.017 A 
HETATM   13  C   UNL     1     -21.230  -4.415 -11.414  1.00  0.00     0.009 A 
BRANCH  11  14
HETATM   14  C   UNL     1     -21.673  -4.161  -7.633  1.00  0.00     0.417 C 
HETATM   15  F   UNL     1     -20.534  -4.794  -7.233  1.00  0.00    -0.166 F 
HETATM   16  F   UNL     1     -21.509  -2.851  -7.293  1.00  0.00    -0.166 F 
HETATM   17  F   UNL     1     -22.664  -4.631  -6.826  1.00  0.00    -0.166 F 
ENDBRANCH  11  14
ENDBRANCH   7   8
ENDBRANCH   3   7
BRANCH   4  18
HETATM   18  C   UNL     1     -26.966  -4.962 -15.981  1.00  0.00     0.047 C 
HETATM   19  C   UNL     1     -27.029  -6.313 -16.357  1.00  0.00     0.030 C 
HETATM   20  C   UNL     1     -28.054  -6.790 -17.172  1.00  0.00     0.003 C 
HETATM   21  C   UNL     1     -29.064  -5.930 -17.575  1.00  0.00     0.014 C 
HETATM   22  C   UNL     1     -28.994  -4.565 -17.267  1.00  0.00    -0.008 C 
HETATM   23  C   UNL     1     -30.002  -3.693 -17.680  1.00  0.00     0.100 C 
HETATM   24  C   UNL     1     -27.891  -4.039 -16.552  1.00  0.00     0.004 C 
HETATM   25  N   UNL     1     -29.940  -2.349 -17.578  1.00  0.00    -0.374 N 
HETATM   26  C   UNL     1     -28.819  -1.848 -17.030  1.00  0.00     0.088 C 
ATOM     27  HN  UNL     1     -30.699  -1.748 -17.899  1.00  0.00     0.164 HD
HETATM   28  C   UNL     1     -27.807  -2.629 -16.482  1.00  0.00     0.031 C 
ENDBRANCH   4  18
TORSDOF 4
BEGIN_RES ARG D 557
REMARK  4 active torsions:
REMARK  status: ('A' for Active; 'I' for Inactive)
REMARK    1  A    between atoms: CA   and  CB  
REMARK    2  A    between atoms: CB   and  CG  
REMARK    3  A    between atoms: CG   and  CD  
REMARK    4  A    between atoms: CD   and  NE  
REMARK       I    between atoms: NE   and  CZ  
REMARK       I    between atoms: CZ   and  NH1 
REMARK       I    between atoms: CZ   and  NH2 
ROOT
ATOM      1  CA  ARG D 557     -26.217   2.705 -17.014  1.00 35.49     0.159 C 
ENDROOT
BRANCH   1   2
ATOM      2  CB  ARG D 557     -26.789   1.319 -17.183  1.00 35.49     0.034 C 
BRANCH   2   3
ATOM      3  CG  ARG D 557     -25.831   0.207 -17.204  1.00 35.49     0.027 C 
BRANCH   3   4
ATOM      4  CD  ARG D 557     -24.632   0.479 -16.378  1.00 35.49     0.116 C 
BRANCH   4   5
ATOM      5  NE  ARG D 557     -24.669  -0.223 -15.122  1.00 35.49    -0.212 N 
ATOM      6  CZ  ARG D 557     -23.859  -1.193 -14.760  1.00 35.49     0.666 C 
ATOM      7  NH1 ARG D 557     -22.903  -1.649 -15.548  1.00 35.49    -0.235 N 
ATOM      8  NH2 ARG D 557     -24.024  -1.701 -13.574  1.00 35.49    -0.235 N 
ATOM      9  HH  ARG D 557     -22.775  -1.328 -16.332  1.00 35.49     0.174 HD
ATOM     10  HH  ARG D 557     -22.403  -2.281 -15.257  1.00 35.49     0.174 HD
ATOM     11  HH  ARG D 557     -24.644  -1.381 -13.084  1.00 35.49     0.174 HD
ATOM     12  HH  ARG D 557     -23.518  -2.326 -13.303  1.00 35.49     0.174 HD
ATOM     13  HE  ARG D 557     -25.300  -0.042 -14.582  1.00 35.49     0.178 HD
ENDBRANCH   4   5
ENDBRANCH   3   4
ENDBRANCH   2   3
ENDBRANCH   1   2
END_RES ARG D 557
BEGIN_RES GLU D 570
REMARK  3 active torsions:
REMARK  status: ('A' for Active; 'I' for Inactive)
REMARK    5  A    between atoms: CA   and  CB  
REMARK    6  A    between atoms: CB   and  CG  
REMARK    7  A    between atoms: CG   and  CD  
ROOT
ATOM     14  CA  GLU D 570     -18.033  -6.348 -13.375  1.00 32.92     0.160 C 
ENDROOT
BRANCH  14  15
ATOM     15  CB  GLU D 570     -19.500  -6.345 -13.794  1.00 32.92     0.043 C 
BRANCH  15  16
ATOM     16  CG  GLU D 570     -20.066  -7.616 -14.315  1.00 32.92     0.100 C 
BRANCH  16  17
ATOM     17  CD  GLU D 570     -20.807  -7.440 -15.620  1.00 32.92     0.185 C 
ATOM     18  OE1 GLU D 570     -21.532  -8.366 -16.034  1.00 32.92    -0.647 OA
ATOM     19  OE2 GLU D 570     -20.648  -6.372 -16.243  1.00 32.92    -0.647 OA
ENDBRANCH  16  17
ENDBRANCH  15  16
ENDBRANCH  14  15
END_RES GLU D 570
ENDMDL
MODEL 7
REMARK VINA RESULT:     -10.2      4.554      7.996
REMARK  4 active torsions:
REMARK  status: ('A' for Active; 'I' for Inactive)
REMARK       I    between atoms: C_2  and  N_3 
REMARK       I    between atoms: C_2  and  N_15 
REMARK    1  A    between atoms: N_3  and  C_4 
REMARK    2  A    between atoms: C_4  and  C_5 
REMARK    3  A    between atoms: C_8  and  C_9 
REMARK    4  A    between atoms: N_15  and  C_16 
ROOT
HETATM    1  O   UNL     1     -22.813  -5.546  -5.823  1.00  0.00    -0.247 OA
HETATM    2  C   UNL     1     -21.615  -5.641  -6.056  1.00  0.00     0.321 C 
HETATM    3  N   UNL     1     -20.971  -4.733  -6.865  1.00  0.00    -0.339 N 
HETATM    4  N   UNL     1     -20.765  -6.638  -5.601  1.00  0.00    -0.308 N 
HETATM    5  H   UNL     1     -19.970  -4.758  -6.965  1.00  0.00     0.164 HD
HETATM    6  H   UNL     1     -19.906  -6.734  -6.116  1.00  0.00     0.170 HD
ENDROOT
BRANCH   3   7
HETATM    7  C   UNL     1     -21.688  -3.626  -7.473  1.00  0.00     0.162 C 
BRANCH   7   8
HETATM    8  C   UNL     1     -22.002  -3.882  -8.929  1.00  0.00    -0.040 A 
HETATM    9  C   UNL     1     -20.978  -3.958  -9.882  1.00  0.00     0.009 A 
HETATM   10  C   UNL     1     -21.267  -4.247 -11.222  1.00  0.00     0.017 A 
HETATM   11  C   UNL     1     -22.590  -4.466 -11.628  1.00  0.00     0.047 A 
HETATM   12  C   UNL     1     -23.618  -4.388 -10.671  1.00  0.00     0.017 A 
HETATM   13  C   UNL     1     -23.326  -4.100  -9.334  1.00  0.00     0.009 A 
BRANCH  11  14
HETATM   14  C   UNL     1     -22.920  -4.794 -13.065  1.00  0.00     0.417 C 
HETATM   15  F   UNL     1     -24.177  -4.419 -13.435  1.00  0.00    -0.166 F 
HETATM   16  F   UNL     1     -22.076  -4.189 -13.947  1.00  0.00    -0.166 F 
HETATM   17  F   UNL     1     -22.836  -6.127 -13.328  1.00  0.00    -0.166 F 
ENDBRANCH  11  14
ENDBRANCH   7   8
ENDBRANCH   3   7
BRANCH   4  18
HETATM   18  C   UNL     1     -21.166  -7.767  -4.819  1.00  0.00     0.047 C 
HETATM   19  C   UNL     1     -21.133  -9.058  -5.369  1.00  0.00     0.030 C 
HETATM   20  C   UNL     1     -21.326 -10.187  -4.576  1.00  0.00     0.003 C 
HETATM   21  C   UNL     1     -21.497 -10.041  -3.208  1.00  0.00     0.014 C 
HETATM   22  C   UNL     1     -21.597  -8.764  -2.641  1.00  0.00    -0.008 C 
HETATM   23  C   UNL     1     -21.781  -8.611  -1.266  1.00  0.00     0.100 C 
HETATM   24  C   UNL     1     -21.536  -7.605  -3.452  1.00  0.00     0.004 C 
HETATM   25  N   UNL     1     -22.055  -7.439  -0.657  1.00  0.00    -0.374 N 
HETATM   26  C   UNL     1     -22.142  -6.362  -1.457  1.00  0.00     0.088 C 
ATOM     27  HN  UNL     1     -22.187  -7.374   0.353  1.00  0.00     0.164 HD
HETATM   28  C   UNL     1     -21.863  -6.382  -2.819  1.00  0.00     0.031 C 
ENDBRANCH   4  18
TORSDOF 4
BEGIN_RES ARG D 557
REMARK  4 active torsions:
REMARK  status: ('A' for Active; 'I' for Inactive)
REMARK    1  A    between atoms: CA   and  CB  
REMARK    2  A    between atoms: CB   and  CG  
REMARK    3  A    between atoms: CG   and  CD  
REMARK    4  A    between atoms: CD   and  NE  
REMARK       I    between atoms: NE   and  CZ  
REMARK       I    between atoms: CZ   and  NH1 
REMARK       I    between atoms: CZ   and  NH2 
ROOT
ATOM      1  CA  ARG D 557     -26.217   2.705 -17.014  1.00 35.49     0.159 C 
ENDROOT
BRANCH   1   2
ATOM      2  CB  ARG D 557     -26.789   1.319 -17.183  1.00 35.49     0.034 C 
BRANCH   2   3
ATOM      3  CG  ARG D 557     -28.232   1.226 -17.437  1.00 35.49     0.027 C 
BRANCH   3   4
ATOM      4  CD  ARG D 557     -28.911   0.299 -16.502  1.00 35.49     0.116 C 
BRANCH   4   5
ATOM      5  NE  ARG D 557     -29.280  -0.938 -17.138  1.00 35.49    -0.212 N 
ATOM      6  CZ  ARG D 557     -28.639  -2.080 -17.025  1.00 35.49     0.666 C 
ATOM      7  NH1 ARG D 557     -27.543  -2.210 -16.301  1.00 35.49    -0.235 N 
ATOM      8  NH2 ARG D 557     -29.129  -3.108 -17.656  1.00 35.49    -0.235 N 
ATOM      9  HH  ARG D 557     -27.205  -1.548 -15.875  1.00 35.49     0.174 HD
ATOM     10  HH  ARG D 557     -27.170  -2.980 -16.262  1.00 35.49     0.174 HD
ATOM     11  HH  ARG D 557     -29.842  -2.996 -18.110  1.00 35.49     0.174 HD
ATOM     12  HH  ARG D 557     -28.746  -3.862 -17.604  1.00 35.49     0.174 HD
ATOM     13  HE  ARG D 557     -29.933  -0.928 -17.682  1.00 35.49     0.178 HD
ENDBRANCH   4   5
ENDBRANCH   3   4
ENDBRANCH   2   3
ENDBRANCH   1   2
END_RES ARG D 557
BEGIN_RES GLU D 570
REMARK  3 active torsions:
REMARK  status: ('A' for Active; 'I' for Inactive)
REMARK    5  A    between atoms: CA   and  CB  
REMARK    6  A    between atoms: CB   and  CG  
REMARK    7  A    between atoms: CG   and  CD  
ROOT
ATOM     14  CA  GLU D 570     -18.033  -6.348 -13.375  1.00 32.92     0.160 C 
ENDROOT
BRANCH  14  15
ATOM     15  CB  GLU D 570     -19.500  -6.345 -13.794  1.00 32.92     0.043 C 
BRANCH  15  16
ATOM     16  CG  GLU D 570     -19.797  -6.237 -15.246  1.00 32.92     0.100 C 
BRANCH  16  17
ATOM     17  CD  GLU D 570     -20.814  -7.251 -15.716  1.00 32.92     0.185 C 
ATOM     18  OE1 GLU D 570     -20.658  -8.450 -15.413  1.00 32.92    -0.647 OA
ATOM     19  OE2 GLU D 570     -21.767  -6.845 -16.409  1.00 32.92    -0.647 OA
ENDBRANCH  16  17
ENDBRANCH  15  16
ENDBRANCH  14  15
END_RES GLU D 570
ENDMDL
MODEL 8
REMARK VINA RESULT:      -9.9      7.088     10.145
REMARK  4 active torsions:
REMARK  status: ('A' for Active; 'I' for Inactive)
REMARK       I    between atoms: C_2  and  N_3 
REMARK       I    between atoms: C_2  and  N_15 
REMARK    1  A    between atoms: N_3  and  C_4 
REMARK    2  A    between atoms: C_4  and  C_5 
REMARK    3  A    between atoms: C_8  and  C_9 
REMARK    4  A    between atoms: N_15  and  C_16 
ROOT
HETATM    1  O   UNL     1     -23.589  -6.510 -12.949  1.00  0.00    -0.247 OA
HETATM    2  C   UNL     1     -23.375  -5.417 -13.458  1.00  0.00     0.321 C 
HETATM    3  N   UNL     1     -23.852  -5.109 -14.711  1.00  0.00    -0.339 N 
HETATM    4  N   UNL     1     -22.632  -4.384 -12.907  1.00  0.00    -0.308 N 
HETATM    5  H   UNL     1     -23.762  -4.175 -15.076  1.00  0.00     0.164 HD
HETATM    6  H   UNL     1     -22.310  -3.694 -13.564  1.00  0.00     0.170 HD
ENDROOT
BRANCH   3   7
HETATM    7  C   UNL     1     -24.629  -6.068 -15.477  1.00  0.00     0.162 C 
BRANCH   7   8
HETATM    8  C   UNL     1     -25.942  -5.489 -15.950  1.00  0.00    -0.040 A 
HETATM    9  C   UNL     1     -26.365  -4.224 -15.522  1.00  0.00     0.009 A 
HETATM   10  C   UNL     1     -27.558  -3.667 -16.002  1.00  0.00     0.017 A 
HETATM   11  C   UNL     1     -28.345  -4.371 -16.923  1.00  0.00     0.047 A 
HETATM   12  C   UNL     1     -27.921  -5.642 -17.350  1.00  0.00     0.017 A 
HETATM   13  C   UNL     1     -26.730  -6.195 -16.869  1.00  0.00     0.009 A 
BRANCH  11  14
HETATM   14  C   UNL     1     -29.626  -3.782 -17.464  1.00  0.00     0.417 C 
HETATM   15  F   UNL     1     -29.867  -4.103 -18.766  1.00  0.00    -0.166 F 
HETATM   16  F   UNL     1     -30.725  -4.189 -16.770  1.00  0.00    -0.166 F 
HETATM   17  F   UNL     1     -29.637  -2.421 -17.408  1.00  0.00    -0.166 F 
ENDBRANCH  11  14
ENDBRANCH   7   8
ENDBRANCH   3   7
BRANCH   4  18
HETATM   18  C   UNL     1     -21.936  -4.447 -11.658  1.00  0.00     0.047 C 
HETATM   19  C   UNL     1     -20.535  -4.529 -11.631  1.00  0.00     0.030 C 
HETATM   20  C   UNL     1     -19.825  -4.391 -10.440  1.00  0.00     0.003 C 
HETATM   21  C   UNL     1     -20.507  -4.110  -9.266  1.00  0.00     0.014 C 
HETATM   22  C   UNL     1     -21.907  -4.085  -9.252  1.00  0.00    -0.008 C 
HETATM   23  C   UNL     1     -22.600  -3.815  -8.071  1.00  0.00     0.100 C 
HETATM   24  C   UNL     1     -22.649  -4.355 -10.428  1.00  0.00     0.004 C 
HETATM   25  N   UNL     1     -23.935  -3.934  -7.922  1.00  0.00    -0.374 N 
HETATM   26  C   UNL     1     -24.618  -4.335  -9.008  1.00  0.00     0.088 C 
ATOM     27  HN  UNL     1     -24.400  -3.730  -7.037  1.00  0.00     0.164 HD
HETATM   28  C   UNL     1     -24.044  -4.518 -10.262  1.00  0.00     0.031 C 
ENDBRANCH   4  18
TORSDOF 4
BEGIN_RES ARG D 557
REMARK  4 active torsions:
REMARK  status: ('A' for Active; 'I' for Inactive)
REMARK    1  A    between atoms: CA   and  CB  
REMARK    2  A    between atoms: CB   and  CG  
REMARK    3  A    between atoms: CG   and  CD  
REMARK    4  A    between atoms: CD   and  NE  
REMARK       I    between atoms: NE   and  CZ  
REMARK       I    between atoms: CZ   and  NH1 
REMARK       I    between atoms: CZ   and  NH2 
ROOT
ATOM      1  CA  ARG D 557     -26.217   2.705 -17.014  1.00 35.49     0.159 C 
ENDROOT
BRANCH   1   2
ATOM      2  CB  ARG D 557     -26.789   1.319 -17.183  1.00 35.49     0.034 C 
BRANCH   2   3
ATOM      3  CG  ARG D 557     -25.832   0.206 -17.193  1.00 35.49     0.027 C 
BRANCH   3   4
ATOM      4  CD  ARG D 557     -24.709   0.419 -16.252  1.00 35.49     0.116 C 
BRANCH   4   5
ATOM      5  NE  ARG D 557     -24.860  -0.351 -15.045  1.00 35.49    -0.212 N 
ATOM      6  CZ  ARG D 557     -24.083  -1.338 -14.661  1.00 35.49     0.666 C 
ATOM      7  NH1 ARG D 557     -23.053  -1.750 -15.378  1.00 35.49    -0.235 N 
ATOM      8  NH2 ARG D 557     -24.356  -1.911 -13.525  1.00 35.49    -0.235 N 
ATOM      9  HH  ARG D 557     -22.854  -1.386 -16.128  1.00 35.49     0.174 HD
ATOM     10  HH  ARG D 557     -22.580  -2.397 -15.076  1.00 35.49     0.174 HD
ATOM     11  HH  ARG D 557     -25.022  -1.619 -13.080  1.00 35.49     0.174 HD
ATOM     12  HH  ARG D 557     -23.875  -2.549 -13.242  1.00 35.49     0.174 HD
ATOM     13  HE  ARG D 557     -25.541  -0.201 -14.558  1.00 35.49     0.178 HD
ENDBRANCH   4   5
ENDBRANCH   3   4
ENDBRANCH   2   3
ENDBRANCH   1   2
END_RES ARG D 557
BEGIN_RES GLU D 570
REMARK  3 active torsions:
REMARK  status: ('A' for Active; 'I' for Inactive)
REMARK    5  A    between atoms: CA   and  CB  
REMARK    6  A    between atoms: CB   and  CG  
REMARK    7  A    between atoms: CG   and  CD  
ROOT
ATOM     14  CA  GLU D 570     -18.033  -6.348 -13.375  1.00 32.92     0.160 C 
ENDROOT
BRANCH  14  15
ATOM     15  CB  GLU D 570     -19.500  -6.345 -13.794  1.00 32.92     0.043 C 
BRANCH  15  16
ATOM     16  CG  GLU D 570     -19.808  -6.005 -15.207  1.00 32.92     0.100 C 
BRANCH  16  17
ATOM     17  CD  GLU D 570     -20.752  -6.989 -15.858  1.00 32.92     0.185 C 
ATOM     18  OE1 GLU D 570     -20.851  -8.137 -15.384  1.00 32.92    -0.647 OA
ATOM     19  OE2 GLU D 570     -21.389  -6.612 -16.861  1.00 32.92    -0.647 OA
ENDBRANCH  16  17
ENDBRANCH  15  16
ENDBRANCH  14  15
END_RES GLU D 570
ENDMDL
MODEL 9
REMARK VINA RESULT:      -9.8      4.164      7.908
REMARK  4 active torsions:
REMARK  status: ('A' for Active; 'I' for Inactive)
REMARK       I    between atoms: C_2  and  N_3 
REMARK       I    between atoms: C_2  and  N_15 
REMARK    1  A    between atoms: N_3  and  C_4 
REMARK    2  A    between atoms: C_4  and  C_5 
REMARK    3  A    between atoms: C_8  and  C_9 
REMARK    4  A    between atoms: N_15  and  C_16 
ROOT
HETATM    1  O   UNL     1     -20.006  -7.383  -6.012  1.00  0.00    -0.247 OA
HETATM    2  C   UNL     1     -20.524  -6.547  -5.281  1.00  0.00     0.321 C 
HETATM    3  N   UNL     1     -20.365  -5.201  -5.514  1.00  0.00    -0.339 N 
HETATM    4  N   UNL     1     -21.281  -6.802  -4.148  1.00  0.00    -0.308 N 
HETATM    5  H   UNL     1     -20.879  -4.525  -4.973  1.00  0.00     0.164 HD
HETATM    6  H   UNL     1     -21.372  -6.027  -3.513  1.00  0.00     0.170 HD
ENDROOT
BRANCH   3   7
HETATM    7  C   UNL     1     -19.577  -4.719  -6.634  1.00  0.00     0.162 C 
BRANCH   7   8
HETATM    8  C   UNL     1     -20.436  -4.384  -7.832  1.00  0.00    -0.040 A 
HETATM    9  C   UNL     1     -19.959  -4.580  -9.135  1.00  0.00     0.009 A 
HETATM   10  C   UNL     1     -20.775  -4.319 -10.243  1.00  0.00     0.017 A 
HETATM   11  C   UNL     1     -22.086  -3.859 -10.062  1.00  0.00     0.047 A 
HETATM   12  C   UNL     1     -22.564  -3.661  -8.755  1.00  0.00     0.017 A 
HETATM   13  C   UNL     1     -21.747  -3.923  -7.650  1.00  0.00     0.009 A 
BRANCH  11  14
HETATM   14  C   UNL     1     -22.986  -3.586 -11.244  1.00  0.00     0.417 C 
HETATM   15  F   UNL     1     -22.388  -2.859 -12.229  1.00  0.00    -0.166 F 
HETATM   16  F   UNL     1     -23.428  -4.728 -11.841  1.00  0.00    -0.166 F 
HETATM   17  F   UNL     1     -24.106  -2.893 -10.897  1.00  0.00    -0.166 F 
ENDBRANCH  11  14
ENDBRANCH   7   8
ENDBRANCH   3   7
BRANCH   4  18
HETATM   18  C   UNL     1     -21.538  -8.101  -3.605  1.00  0.00     0.047 C 
HETATM   19  C   UNL     1     -21.547  -9.229  -4.439  1.00  0.00     0.030 C 
HETATM   20  C   UNL     1     -21.595 -10.518  -3.912  1.00  0.00     0.003 C 
HETATM   21  C   UNL     1     -21.577 -10.696  -2.537  1.00  0.00     0.014 C 
HETATM   22  C   UNL     1     -21.631  -9.589  -1.681  1.00  0.00    -0.008 C 
HETATM   23  C   UNL     1     -21.626  -9.762  -0.297  1.00  0.00     0.100 C 
HETATM   24  C   UNL     1     -21.717  -8.274  -2.201  1.00  0.00     0.004 C 
HETATM   25  N   UNL     1     -21.843  -8.777   0.599  1.00  0.00    -0.374 N 
HETATM   26  C   UNL     1     -22.071  -7.554   0.089  1.00  0.00     0.088 C 
ATOM     27  HN  UNL     1     -21.835  -8.950   1.604  1.00  0.00     0.164 HD
HETATM   28  C   UNL     1     -21.985  -7.249  -1.265  1.00  0.00     0.031 C 
ENDBRANCH   4  18
TORSDOF 4
BEGIN_RES ARG D 557
REMARK  4 active torsions:
REMARK  status: ('A' for Active; 'I' for Inactive)
REMARK    1  A    between atoms: CA   and  CB  
REMARK    2  A    between atoms: CB   and  CG  
REMARK    3  A    between atoms: CG   and  CD  
REMARK    4  A    between atoms: CD   and  NE  
REMARK       I    between atoms: NE   and  CZ  
REMARK       I    between atoms: CZ   and  NH1 
REMARK       I    between atoms: CZ   and  NH2 
ROOT
ATOM      1  CA  ARG D 557     -26.217   2.705 -17.014  1.00 35.49     0.159 C 
ENDROOT
BRANCH   1   2
ATOM      2  CB  ARG D 557     -26.789   1.319 -17.183  1.00 35.49     0.034 C 
BRANCH   2   3
ATOM      3  CG  ARG D 557     -25.954   0.200 -16.731  1.00 35.49     0.027 C 
BRANCH   3   4
ATOM      4  CD  ARG D 557     -26.749  -0.881 -16.104  1.00 35.49     0.116 C 
BRANCH   4   5
ATOM      5  NE  ARG D 557     -25.977  -1.644 -15.159  1.00 35.49    -0.212 N 
ATOM      6  CZ  ARG D 557     -26.079  -2.937 -14.950  1.00 35.49     0.666 C 
ATOM      7  NH1 ARG D 557     -26.942  -3.695 -15.601  1.00 35.49    -0.235 N 
ATOM      8  NH2 ARG D 557     -25.283  -3.467 -14.067  1.00 35.49    -0.235 N 
ATOM      9  HH  ARG D 557     -27.474  -3.367 -16.188  1.00 35.49     0.174 HD
ATOM     10  HH  ARG D 557     -26.962  -4.533 -15.425  1.00 35.49     0.174 HD
ATOM     11  HH  ARG D 557     -24.731  -2.955 -13.668  1.00 35.49     0.174 HD
ATOM     12  HH  ARG D 557     -25.317  -4.299 -13.908  1.00 35.49     0.174 HD
ATOM     13  HE  ARG D 557     -25.447  -1.223 -14.644  1.00 35.49     0.178 HD
ENDBRANCH   4   5
ENDBRANCH   3   4
ENDBRANCH   2   3
ENDBRANCH   1   2
END_RES ARG D 557
BEGIN_RES GLU D 570
REMARK  3 active torsions:
REMARK  status: ('A' for Active; 'I' for Inactive)
REMARK    5  A    between atoms: CA   and  CB  
REMARK    6  A    between atoms: CB   and  CG  
REMARK    7  A    between atoms: CG   and  CD  
ROOT
ATOM     14  CA  GLU D 570     -18.033  -6.348 -13.375  1.00 32.92     0.160 C 
ENDROOT
BRANCH  14  15
ATOM     15  CB  GLU D 570     -19.500  -6.345 -13.794  1.00 32.92     0.043 C 
BRANCH  15  16
ATOM     16  CG  GLU D 570     -19.798  -6.202 -15.243  1.00 32.92     0.100 C 
BRANCH  16  17
ATOM     17  CD  GLU D 570     -21.063  -5.420 -15.510  1.00 32.92     0.185 C 
ATOM     18  OE1 GLU D 570     -21.406  -5.208 -16.689  1.00 32.92    -0.647 OA
ATOM     19  OE2 GLU D 570     -21.709  -5.000 -14.529  1.00 32.92    -0.647 OA
ENDBRANCH  16  17
ENDBRANCH  15  16
ENDBRANCH  14  15
END_RES GLU D 570
ENDMDL
