MODEL 1
REMARK VINA RESULT:      -4.5      0.000      0.000
REMARK  5 active torsions:
REMARK  status: ('A' for Active; 'I' for Inactive)
REMARK    1  A    between atoms: C_2  and  C_3 
REMARK    2  A    between atoms: C_3  and  S_4 
REMARK    3  A    between atoms: S_4  and  S_5 
REMARK    4  A    between atoms: S_5  and  C_7 
REMARK    5  A    between atoms: C_7  and  C_8 
ROOT
HETATM    1  S   UNL     1     -24.074  -4.463 -10.317  1.00  0.00     0.081 S 
HETATM    2  O   UNL     1     -24.912  -3.295 -10.745  1.00  0.00    -0.246 OA
ENDROOT
BRANCH   1   3
HETATM    3  S   UNL     1     -23.284  -3.701  -8.612  1.00  0.00    -0.062 SA
BRANCH   3   4
HETATM    4  C   UNL     1     -21.923  -4.860  -8.305  1.00  0.00     0.114 C 
BRANCH   4   5
HETATM    5  C   UNL     1     -20.791  -4.133  -7.641  1.00  0.00    -0.026 C 
HETATM    6  C   UNL     1     -19.505  -4.504  -7.706  1.00  0.00     0.007 C 
ENDBRANCH   4   5
ENDBRANCH   3   4
ENDBRANCH   1   3
BRANCH   1   7
HETATM    7  C   UNL     1     -22.601  -4.545 -11.391  1.00  0.00     0.147 C 
BRANCH   7   8
HETATM    8  C   UNL     1     -21.860  -3.241 -11.374  1.00  0.00    -0.024 C 
HETATM    9  C   UNL     1     -20.529  -3.124 -11.274  1.00  0.00     0.008 C 
ENDBRANCH   7   8
ENDBRANCH   1   7
TORSDOF 5
BEGIN_RES ARG D 557
REMARK  4 active torsions:
REMARK  status: ('A' for Active; 'I' for Inactive)
REMARK    1  A    between atoms: CA   and  CB  
REMARK    2  A    between atoms: CB   and  CG  
REMARK    3  A    between atoms: CG   and  CD  
REMARK    4  A    between atoms: CD   and  NE  
REMARK       I    between atoms: NE   and  CZ  
REMARK       I    between atoms: CZ   and  NH1 
REMARK       I    between atoms: CZ   and  NH2 
ROOT
ATOM      1  CA  ARG D 557     -26.217   2.705 -17.014  1.00 35.49     0.159 C 
ENDROOT
BRANCH   1   2
ATOM      2  CB  ARG D 557     -26.789   1.319 -17.183  1.00 35.49     0.034 C 
BRANCH   2   3
ATOM      3  CG  ARG D 557     -25.836   0.203 -17.150  1.00 35.49     0.027 C 
BRANCH   3   4
ATOM      4  CD  ARG D 557     -24.779   0.393 -16.131  1.00 35.49     0.116 C 
BRANCH   4   5
ATOM      5  NE  ARG D 557     -24.950  -0.483 -15.002  1.00 35.49    -0.212 N 
ATOM      6  CZ  ARG D 557     -24.142  -1.460 -14.658  1.00 35.49     0.666 C 
ATOM      7  NH1 ARG D 557     -23.056  -1.758 -15.347  1.00 35.49    -0.235 N 
ATOM      8  NH2 ARG D 557     -24.442  -2.140 -13.589  1.00 35.49    -0.235 N 
ATOM      9  HH  ARG D 557     -22.838  -1.322 -16.052  1.00 35.49     0.174 HD
ATOM     10  HH  ARG D 557     -22.564  -2.404 -15.074  1.00 35.49     0.174 HD
ATOM     11  HH  ARG D 557     -25.145  -1.920 -13.160  1.00 35.49     0.174 HD
ATOM     12  HH  ARG D 557     -23.942  -2.775 -13.334  1.00 35.49     0.174 HD
ATOM     13  HE  ARG D 557     -25.663  -0.409 -14.543  1.00 35.49     0.178 HD
ENDBRANCH   4   5
ENDBRANCH   3   4
ENDBRANCH   2   3
ENDBRANCH   1   2
END_RES ARG D 557
BEGIN_RES GLU D 570
REMARK  3 active torsions:
REMARK  status: ('A' for Active; 'I' for Inactive)
REMARK    5  A    between atoms: CA   and  CB  
REMARK    6  A    between atoms: CB   and  CG  
REMARK    7  A    between atoms: CG   and  CD  
ROOT
ATOM     14  CA  GLU D 570     -18.033  -6.348 -13.375  1.00 32.92     0.160 C 
ENDROOT
BRANCH  14  15
ATOM     15  CB  GLU D 570     -19.500  -6.345 -13.794  1.00 32.92     0.043 C 
BRANCH  15  16
ATOM     16  CG  GLU D 570     -19.797  -6.257 -15.247  1.00 32.92     0.100 C 
BRANCH  16  17
ATOM     17  CD  GLU D 570     -20.994  -5.387 -15.553  1.00 32.92     0.185 C 
ATOM     18  OE1 GLU D 570     -21.521  -4.737 -14.629  1.00 32.92    -0.647 OA
ATOM     19  OE2 GLU D 570     -21.419  -5.368 -16.725  1.00 32.92    -0.647 OA
ENDBRANCH  16  17
ENDBRANCH  15  16
ENDBRANCH  14  15
END_RES GLU D 570
ENDMDL
MODEL 2
REMARK VINA RESULT:      -4.4      2.435      3.531
REMARK  5 active torsions:
REMARK  status: ('A' for Active; 'I' for Inactive)
REMARK    1  A    between atoms: C_2  and  C_3 
REMARK    2  A    between atoms: C_3  and  S_4 
REMARK    3  A    between atoms: S_4  and  S_5 
REMARK    4  A    between atoms: S_5  and  C_7 
REMARK    5  A    between atoms: C_7  and  C_8 
ROOT
HETATM    1  S   UNL     1     -23.677  -3.335  -9.687  1.00  0.00     0.081 S 
HETATM    2  O   UNL     1     -25.144  -3.029  -9.611  1.00  0.00    -0.246 OA
ENDROOT
BRANCH   1   3
HETATM    3  S   UNL     1     -23.723  -4.857 -11.026  1.00  0.00    -0.062 SA
BRANCH   3   4
HETATM    4  C   UNL     1     -22.396  -4.369 -12.162  1.00  0.00     0.114 C 
BRANCH   4   5
HETATM    5  C   UNL     1     -21.306  -3.688 -11.389  1.00  0.00    -0.026 C 
HETATM    6  C   UNL     1     -20.199  -4.294 -10.937  1.00  0.00     0.007 C 
ENDBRANCH   4   5
ENDBRANCH   3   4
ENDBRANCH   1   3
BRANCH   1   7
HETATM    7  C   UNL     1     -23.187  -4.211  -8.163  1.00  0.00     0.147 C 
BRANCH   7   8
HETATM    8  C   UNL     1     -21.873  -3.696  -7.656  1.00  0.00    -0.024 C 
HETATM    9  C   UNL     1     -20.869  -4.470  -7.220  1.00  0.00     0.008 C 
ENDBRANCH   7   8
ENDBRANCH   1   7
TORSDOF 5
BEGIN_RES ARG D 557
REMARK  4 active torsions:
REMARK  status: ('A' for Active; 'I' for Inactive)
REMARK    1  A    between atoms: CA   and  CB  
REMARK    2  A    between atoms: CB   and  CG  
REMARK    3  A    between atoms: CG   and  CD  
REMARK    4  A    between atoms: CD   and  NE  
REMARK       I    between atoms: NE   and  CZ  
REMARK       I    between atoms: CZ   and  NH1 
REMARK       I    between atoms: CZ   and  NH2 
ROOT
ATOM      1  CA  ARG D 557     -26.217   2.705 -17.014  1.00 35.49     0.159 C 
ENDROOT
BRANCH   1   2
ATOM      2  CB  ARG D 557     -26.789   1.319 -17.183  1.00 35.49     0.034 C 
BRANCH   2   3
ATOM      3  CG  ARG D 557     -28.231   1.226 -17.443  1.00 35.49     0.027 C 
BRANCH   3   4
ATOM      4  CD  ARG D 557     -28.916   0.308 -16.505  1.00 35.49     0.116 C 
BRANCH   4   5
ATOM      5  NE  ARG D 557     -29.299  -0.927 -17.138  1.00 35.49    -0.212 N 
ATOM      6  CZ  ARG D 557     -28.667  -2.074 -17.028  1.00 35.49     0.666 C 
ATOM      7  NH1 ARG D 557     -27.568  -2.213 -16.311  1.00 35.49    -0.235 N 
ATOM      8  NH2 ARG D 557     -29.169  -3.098 -17.655  1.00 35.49    -0.235 N 
ATOM      9  HH  ARG D 557     -27.221  -1.553 -15.888  1.00 35.49     0.174 HD
ATOM     10  HH  ARG D 557     -27.201  -2.986 -16.273  1.00 35.49     0.174 HD
ATOM     11  HH  ARG D 557     -29.884  -2.981 -18.105  1.00 35.49     0.174 HD
ATOM     12  HH  ARG D 557     -28.792  -3.856 -17.605  1.00 35.49     0.174 HD
ATOM     13  HE  ARG D 557     -29.955  -0.912 -17.678  1.00 35.49     0.178 HD
ENDBRANCH   4   5
ENDBRANCH   3   4
ENDBRANCH   2   3
ENDBRANCH   1   2
END_RES ARG D 557
BEGIN_RES GLU D 570
REMARK  3 active torsions:
REMARK  status: ('A' for Active; 'I' for Inactive)
REMARK    5  A    between atoms: CA   and  CB  
REMARK    6  A    between atoms: CB   and  CG  
REMARK    7  A    between atoms: CG   and  CD  
ROOT
ATOM     14  CA  GLU D 570     -18.033  -6.348 -13.375  1.00 32.92     0.160 C 
ENDROOT
BRANCH  14  15
ATOM     15  CB  GLU D 570     -19.500  -6.345 -13.794  1.00 32.92     0.043 C 
BRANCH  15  16
ATOM     16  CG  GLU D 570     -19.808  -6.004 -15.207  1.00 32.92     0.100 C 
BRANCH  16  17
ATOM     17  CD  GLU D 570     -21.279  -5.761 -15.448  1.00 32.92     0.185 C 
ATOM     18  OE1 GLU D 570     -21.640  -4.676 -15.944  1.00 32.92    -0.647 OA
ATOM     19  OE2 GLU D 570     -22.081  -6.658 -15.121  1.00 32.92    -0.647 OA
ENDBRANCH  16  17
ENDBRANCH  15  16
ENDBRANCH  14  15
END_RES GLU D 570
ENDMDL
MODEL 3
REMARK VINA RESULT:      -4.3      2.904      3.904
REMARK  5 active torsions:
REMARK  status: ('A' for Active; 'I' for Inactive)
REMARK    1  A    between atoms: C_2  and  C_3 
REMARK    2  A    between atoms: C_3  and  S_4 
REMARK    3  A    between atoms: S_4  and  S_5 
REMARK    4  A    between atoms: S_5  and  C_7 
REMARK    5  A    between atoms: C_7  and  C_8 
ROOT
HETATM    1  S   UNL     1     -24.204  -3.585 -13.856  1.00  0.00     0.081 S 
HETATM    2  O   UNL     1     -24.186  -2.460 -14.847  1.00  0.00    -0.246 OA
ENDROOT
BRANCH   1   3
HETATM    3  S   UNL     1     -23.062  -2.762 -12.397  1.00  0.00    -0.062 SA
BRANCH   3   4
HETATM    4  C   UNL     1     -22.081  -4.193 -11.867  1.00  0.00     0.114 C 
BRANCH   4   5
HETATM    5  C   UNL     1     -20.853  -3.716 -11.150  1.00  0.00    -0.026 C 
HETATM    6  C   UNL     1     -20.412  -4.207  -9.984  1.00  0.00     0.007 C 
ENDBRANCH   4   5
ENDBRANCH   3   4
ENDBRANCH   1   3
BRANCH   1   7
HETATM    7  C   UNL     1     -23.110  -4.913 -14.464  1.00  0.00     0.147 C 
BRANCH   7   8
HETATM    8  C   UNL     1     -23.830  -6.229 -14.477  1.00  0.00    -0.024 C 
HETATM    9  C   UNL     1     -24.301  -6.828 -15.579  1.00  0.00     0.008 C 
ENDBRANCH   7   8
ENDBRANCH   1   7
TORSDOF 5
BEGIN_RES ARG D 557
REMARK  4 active torsions:
REMARK  status: ('A' for Active; 'I' for Inactive)
REMARK    1  A    between atoms: CA   and  CB  
REMARK    2  A    between atoms: CB   and  CG  
REMARK    3  A    between atoms: CG   and  CD  
REMARK    4  A    between atoms: CD   and  NE  
REMARK       I    between atoms: NE   and  CZ  
REMARK       I    between atoms: CZ   and  NH1 
REMARK       I    between atoms: CZ   and  NH2 
ROOT
ATOM      1  CA  ARG D 557     -26.217   2.705 -17.014  1.00 35.49     0.159 C 
ENDROOT
BRANCH   1   2
ATOM      2  CB  ARG D 557     -26.789   1.319 -17.183  1.00 35.49     0.034 C 
BRANCH   2   3
ATOM      3  CG  ARG D 557     -28.231   1.226 -17.442  1.00 35.49     0.027 C 
BRANCH   3   4
ATOM      4  CD  ARG D 557     -28.896   0.222 -16.581  1.00 35.49     0.116 C 
BRANCH   4   5
ATOM      5  NE  ARG D 557     -27.989  -0.812 -16.154  1.00 35.49    -0.212 N 
ATOM      6  CZ  ARG D 557     -28.026  -2.070 -16.531  1.00 35.49     0.666 C 
ATOM      7  NH1 ARG D 557     -28.943  -2.535 -17.360  1.00 35.49    -0.235 N 
ATOM      8  NH2 ARG D 557     -27.110  -2.865 -16.060  1.00 35.49    -0.235 N 
ATOM      9  HH  ARG D 557     -29.554  -2.029 -17.684  1.00 35.49     0.174 HD
ATOM     10  HH  ARG D 557     -28.916  -3.365 -17.573  1.00 35.49     0.174 HD
ATOM     11  HH  ARG D 557     -26.527  -2.535 -15.532  1.00 35.49     0.174 HD
ATOM     12  HH  ARG D 557     -27.100  -3.683 -16.283  1.00 35.49     0.174 HD
ATOM     13  HE  ARG D 557     -27.410  -0.616 -15.563  1.00 35.49     0.178 HD
ENDBRANCH   4   5
ENDBRANCH   3   4
ENDBRANCH   2   3
ENDBRANCH   1   2
END_RES ARG D 557
BEGIN_RES GLU D 570
REMARK  3 active torsions:
REMARK  status: ('A' for Active; 'I' for Inactive)
REMARK    5  A    between atoms: CA   and  CB  
REMARK    6  A    between atoms: CB   and  CG  
REMARK    7  A    between atoms: CG   and  CD  
ROOT
ATOM     14  CA  GLU D 570     -18.033  -6.348 -13.375  1.00 32.92     0.160 C 
ENDROOT
BRANCH  14  15
ATOM     15  CB  GLU D 570     -19.500  -6.345 -13.794  1.00 32.92     0.043 C 
BRANCH  15  16
ATOM     16  CG  GLU D 570     -20.087  -7.635 -14.241  1.00 32.92     0.100 C 
BRANCH  16  17
ATOM     17  CD  GLU D 570     -20.620  -7.581 -15.654  1.00 32.92     0.185 C 
ATOM     18  OE1 GLU D 570     -20.551  -6.510 -16.287  1.00 32.92    -0.647 OA
ATOM     19  OE2 GLU D 570     -21.129  -8.616 -16.127  1.00 32.92    -0.647 OA
ENDBRANCH  16  17
ENDBRANCH  15  16
ENDBRANCH  14  15
END_RES GLU D 570
ENDMDL
MODEL 4
REMARK VINA RESULT:      -4.3      4.758      6.997
REMARK  5 active torsions:
REMARK  status: ('A' for Active; 'I' for Inactive)
REMARK    1  A    between atoms: C_2  and  C_3 
REMARK    2  A    between atoms: C_3  and  S_4 
REMARK    3  A    between atoms: S_4  and  S_5 
REMARK    4  A    between atoms: S_5  and  C_7 
REMARK    5  A    between atoms: C_7  and  C_8 
ROOT
HETATM    1  S   UNL     1     -27.468  -5.759 -16.665  1.00  0.00     0.081 S 
HETATM    2  O   UNL     1     -26.897  -4.412 -16.336  1.00  0.00    -0.246 OA
ENDROOT
BRANCH   1   3
HETATM    3  S   UNL     1     -29.162  -5.684 -15.553  1.00  0.00    -0.062 SA
BRANCH   3   4
HETATM    4  C   UNL     1     -30.434  -5.846 -16.837  1.00  0.00     0.114 C 
BRANCH   4   5
HETATM    5  C   UNL     1     -29.853  -6.551 -18.026  1.00  0.00    -0.026 C 
HETATM    6  C   UNL     1     -30.309  -7.709 -18.523  1.00  0.00     0.007 C 
ENDBRANCH   4   5
ENDBRANCH   3   4
ENDBRANCH   1   3
BRANCH   1   7
HETATM    7  C   UNL     1     -26.508  -7.031 -15.774  1.00  0.00     0.147 C 
BRANCH   7   8
HETATM    8  C   UNL     1     -25.045  -6.703 -15.798  1.00  0.00    -0.024 C 
HETATM    9  C   UNL     1     -24.101  -7.475 -16.354  1.00  0.00     0.008 C 
ENDBRANCH   7   8
ENDBRANCH   1   7
TORSDOF 5
BEGIN_RES ARG D 557
REMARK  4 active torsions:
REMARK  status: ('A' for Active; 'I' for Inactive)
REMARK    1  A    between atoms: CA   and  CB  
REMARK    2  A    between atoms: CB   and  CG  
REMARK    3  A    between atoms: CG   and  CD  
REMARK    4  A    between atoms: CD   and  NE  
REMARK       I    between atoms: NE   and  CZ  
REMARK       I    between atoms: CZ   and  NH1 
REMARK       I    between atoms: CZ   and  NH2 
ROOT
ATOM      1  CA  ARG D 557     -26.217   2.705 -17.014  1.00 35.49     0.159 C 
ENDROOT
BRANCH   1   2
ATOM      2  CB  ARG D 557     -26.789   1.319 -17.183  1.00 35.49     0.034 C 
BRANCH   2   3
ATOM      3  CG  ARG D 557     -25.857   0.196 -17.025  1.00 35.49     0.027 C 
BRANCH   3   4
ATOM      4  CD  ARG D 557     -26.181  -0.645 -15.849  1.00 35.49     0.116 C 
BRANCH   4   5
ATOM      5  NE  ARG D 557     -25.074  -0.748 -14.935  1.00 35.49    -0.212 N 
ATOM      6  CZ  ARG D 557     -24.657  -1.852 -14.356  1.00 35.49     0.666 C 
ATOM      7  NH1 ARG D 557     -25.241  -3.019 -14.551  1.00 35.49    -0.235 N 
ATOM      8  NH2 ARG D 557     -23.622  -1.763 -13.571  1.00 35.49    -0.235 N 
ATOM      9  HH  ARG D 557     -25.922  -3.101 -15.065  1.00 35.49     0.174 HD
ATOM     10  HH  ARG D 557     -24.923  -3.706 -14.149  1.00 35.49     0.174 HD
ATOM     11  HH  ARG D 557     -23.261  -0.998 -13.470  1.00 35.49     0.174 HD
ATOM     12  HH  ARG D 557     -23.322  -2.455 -13.183  1.00 35.49     0.174 HD
ATOM     13  HE  ARG D 557     -24.685  -0.031 -14.696  1.00 35.49     0.178 HD
ENDBRANCH   4   5
ENDBRANCH   3   4
ENDBRANCH   2   3
ENDBRANCH   1   2
END_RES ARG D 557
BEGIN_RES GLU D 570
REMARK  3 active torsions:
REMARK  status: ('A' for Active; 'I' for Inactive)
REMARK    5  A    between atoms: CA   and  CB  
REMARK    6  A    between atoms: CB   and  CG  
REMARK    7  A    between atoms: CG   and  CD  
ROOT
ATOM     14  CA  GLU D 570     -18.033  -6.348 -13.375  1.00 32.92     0.160 C 
ENDROOT
BRANCH  14  15
ATOM     15  CB  GLU D 570     -19.500  -6.345 -13.794  1.00 32.92     0.043 C 
BRANCH  15  16
ATOM     16  CG  GLU D 570     -20.442  -5.530 -12.984  1.00 32.92     0.100 C 
BRANCH  16  17
ATOM     17  CD  GLU D 570     -21.660  -5.090 -13.762  1.00 32.92     0.185 C 
ATOM     18  OE1 GLU D 570     -22.627  -4.602 -13.146  1.00 32.92    -0.647 OA
ATOM     19  OE2 GLU D 570     -21.654  -5.251 -14.998  1.00 32.92    -0.647 OA
ENDBRANCH  16  17
ENDBRANCH  15  16
ENDBRANCH  14  15
END_RES GLU D 570
ENDMDL
MODEL 5
REMARK VINA RESULT:      -4.3      4.408      6.429
REMARK  5 active torsions:
REMARK  status: ('A' for Active; 'I' for Inactive)
REMARK    1  A    between atoms: C_2  and  C_3 
REMARK    2  A    between atoms: C_3  and  S_4 
REMARK    3  A    between atoms: S_4  and  S_5 
REMARK    4  A    between atoms: S_5  and  C_7 
REMARK    5  A    between atoms: C_7  and  C_8 
ROOT
HETATM    1  S   UNL     1     -26.307  -6.208 -16.583  1.00  0.00     0.081 S 
HETATM    2  O   UNL     1     -26.497  -4.780 -16.166  1.00  0.00    -0.246 OA
ENDROOT
BRANCH   1   3
HETATM    3  S   UNL     1     -27.962  -7.024 -15.743  1.00  0.00    -0.062 SA
BRANCH   3   4
HETATM    4  C   UNL     1     -29.182  -5.709 -16.016  1.00  0.00     0.114 C 
BRANCH   4   5
HETATM    5  C   UNL     1     -29.647  -5.751 -17.442  1.00  0.00    -0.026 C 
HETATM    6  C   UNL     1     -29.359  -4.821 -18.364  1.00  0.00     0.007 C 
ENDBRANCH   4   5
ENDBRANCH   3   4
ENDBRANCH   1   3
BRANCH   1   7
HETATM    7  C   UNL     1     -24.986  -6.941 -15.559  1.00  0.00     0.147 C 
BRANCH   7   8
HETATM    8  C   UNL     1     -24.048  -5.879 -15.065  1.00  0.00    -0.024 C 
HETATM    9  C   UNL     1     -23.532  -5.834 -13.829  1.00  0.00     0.008 C 
ENDBRANCH   7   8
ENDBRANCH   1   7
TORSDOF 5
BEGIN_RES ARG D 557
REMARK  4 active torsions:
REMARK  status: ('A' for Active; 'I' for Inactive)
REMARK    1  A    between atoms: CA   and  CB  
REMARK    2  A    between atoms: CB   and  CG  
REMARK    3  A    between atoms: CG   and  CD  
REMARK    4  A    between atoms: CD   and  NE  
REMARK       I    between atoms: NE   and  CZ  
REMARK       I    between atoms: CZ   and  NH1 
REMARK       I    between atoms: CZ   and  NH2 
ROOT
ATOM      1  CA  ARG D 557     -26.217   2.705 -17.014  1.00 35.49     0.159 C 
ENDROOT
BRANCH   1   2
ATOM      2  CB  ARG D 557     -26.789   1.319 -17.183  1.00 35.49     0.034 C 
BRANCH   2   3
ATOM      3  CG  ARG D 557     -25.862   0.195 -17.003  1.00 35.49     0.027 C 
BRANCH   3   4
ATOM      4  CD  ARG D 557     -26.229  -0.660 -15.851  1.00 35.49     0.116 C 
BRANCH   4   5
ATOM      5  NE  ARG D 557     -25.105  -0.924 -14.992  1.00 35.49    -0.212 N 
ATOM      6  CZ  ARG D 557     -24.960  -1.977 -14.219  1.00 35.49     0.666 C 
ATOM      7  NH1 ARG D 557     -25.872  -2.929 -14.138  1.00 35.49    -0.235 N 
ATOM      8  NH2 ARG D 557     -23.864  -2.064 -13.522  1.00 35.49    -0.235 N 
ATOM      9  HH  ARG D 557     -26.599  -2.893 -14.589  1.00 35.49     0.174 HD
ATOM     10  HH  ARG D 557     -25.722  -3.593 -13.619  1.00 35.49     0.174 HD
ATOM     11  HH  ARG D 557     -23.290  -1.439 -13.600  1.00 35.49     0.174 HD
ATOM     12  HH  ARG D 557     -23.733  -2.731 -13.015  1.00 35.49     0.174 HD
ATOM     13  HE  ARG D 557     -24.503  -0.327 -14.927  1.00 35.49     0.178 HD
ENDBRANCH   4   5
ENDBRANCH   3   4
ENDBRANCH   2   3
ENDBRANCH   1   2
END_RES ARG D 557
BEGIN_RES GLU D 570
REMARK  3 active torsions:
REMARK  status: ('A' for Active; 'I' for Inactive)
REMARK    5  A    between atoms: CA   and  CB  
REMARK    6  A    between atoms: CB   and  CG  
REMARK    7  A    between atoms: CG   and  CD  
ROOT
ATOM     14  CA  GLU D 570     -18.033  -6.348 -13.375  1.00 32.92     0.160 C 
ENDROOT
BRANCH  14  15
ATOM     15  CB  GLU D 570     -19.500  -6.345 -13.794  1.00 32.92     0.043 C 
BRANCH  15  16
ATOM     16  CG  GLU D 570     -19.799  -6.178 -15.240  1.00 32.92     0.100 C 
BRANCH  16  17
ATOM     17  CD  GLU D 570     -20.636  -7.303 -15.802  1.00 32.92     0.185 C 
ATOM     18  OE1 GLU D 570     -21.284  -7.111 -16.849  1.00 32.92    -0.647 OA
ATOM     19  OE2 GLU D 570     -20.658  -8.383 -15.180  1.00 32.92    -0.647 OA
ENDBRANCH  16  17
ENDBRANCH  15  16
ENDBRANCH  14  15
END_RES GLU D 570
ENDMDL
MODEL 6
REMARK VINA RESULT:      -4.3      3.959      4.621
REMARK  5 active torsions:
REMARK  status: ('A' for Active; 'I' for Inactive)
REMARK    1  A    between atoms: C_2  and  C_3 
REMARK    2  A    between atoms: C_3  and  S_4 
REMARK    3  A    between atoms: S_4  and  S_5 
REMARK    4  A    between atoms: S_5  and  C_7 
REMARK    5  A    between atoms: C_7  and  C_8 
ROOT
HETATM    1  S   UNL     1     -21.610  -6.609  -5.213  1.00  0.00     0.081 S 
HETATM    2  O   UNL     1     -23.019  -6.149  -4.979  1.00  0.00    -0.246 OA
ENDROOT
BRANCH   1   3
HETATM    3  S   UNL     1     -21.201  -7.374  -3.380  1.00  0.00    -0.062 SA
BRANCH   3   4
HETATM    4  C   UNL     1     -22.050  -6.187  -2.304  1.00  0.00     0.114 C 
BRANCH   4   5
HETATM    5  C   UNL     1     -22.314  -6.824  -0.971  1.00  0.00    -0.026 C 
HETATM    6  C   UNL     1     -22.160  -8.129  -0.708  1.00  0.00     0.007 C 
ENDBRANCH   4   5
ENDBRANCH   3   4
ENDBRANCH   1   3
BRANCH   1   7
HETATM    7  C   UNL     1     -20.519  -5.146  -5.244  1.00  0.00     0.147 C 
BRANCH   7   8
HETATM    8  C   UNL     1     -20.405  -4.600  -6.637  1.00  0.00    -0.024 C 
HETATM    9  C   UNL     1     -21.231  -3.688  -7.166  1.00  0.00     0.008 C 
ENDBRANCH   7   8
ENDBRANCH   1   7
TORSDOF 5
BEGIN_RES ARG D 557
REMARK  4 active torsions:
REMARK  status: ('A' for Active; 'I' for Inactive)
REMARK    1  A    between atoms: CA   and  CB  
REMARK    2  A    between atoms: CB   and  CG  
REMARK    3  A    between atoms: CG   and  CD  
REMARK    4  A    between atoms: CD   and  NE  
REMARK       I    between atoms: NE   and  CZ  
REMARK       I    between atoms: CZ   and  NH1 
REMARK       I    between atoms: CZ   and  NH2 
ROOT
ATOM      1  CA  ARG D 557     -26.217   2.705 -17.014  1.00 35.49     0.159 C 
ENDROOT
BRANCH   1   2
ATOM      2  CB  ARG D 557     -26.789   1.319 -17.183  1.00 35.49     0.034 C 
BRANCH   2   3
ATOM      3  CG  ARG D 557     -25.863   0.195 -16.997  1.00 35.49     0.027 C 
BRANCH   3   4
ATOM      4  CD  ARG D 557     -26.277  -0.700 -15.892  1.00 35.49     0.116 C 
BRANCH   4   5
ATOM      5  NE  ARG D 557     -25.218  -0.913 -14.941  1.00 35.49    -0.212 N 
ATOM      6  CZ  ARG D 557     -24.918  -2.057 -14.368  1.00 35.49     0.666 C 
ATOM      7  NH1 ARG D 557     -25.593  -3.166 -14.605  1.00 35.49    -0.235 N 
ATOM      8  NH2 ARG D 557     -23.910  -2.070 -13.545  1.00 35.49    -0.235 N 
ATOM      9  HH  ARG D 557     -26.259  -3.181 -15.144  1.00 35.49     0.174 HD
ATOM     10  HH  ARG D 557     -25.351  -3.884 -14.204  1.00 35.49     0.174 HD
ATOM     11  HH  ARG D 557     -23.488  -1.340 -13.418  1.00 35.49     0.174 HD
ATOM     12  HH  ARG D 557     -23.684  -2.791 -13.160  1.00 35.49     0.174 HD
ATOM     13  HE  ARG D 557     -24.777  -0.235 -14.676  1.00 35.49     0.178 HD
ENDBRANCH   4   5
ENDBRANCH   3   4
ENDBRANCH   2   3
ENDBRANCH   1   2
END_RES ARG D 557
BEGIN_RES GLU D 570
REMARK  3 active torsions:
REMARK  status: ('A' for Active; 'I' for Inactive)
REMARK    5  A    between atoms: CA   and  CB  
REMARK    6  A    between atoms: CB   and  CG  
REMARK    7  A    between atoms: CG   and  CD  
ROOT
ATOM     14  CA  GLU D 570     -18.033  -6.348 -13.375  1.00 32.92     0.160 C 
ENDROOT
BRANCH  14  15
ATOM     15  CB  GLU D 570     -19.500  -6.345 -13.794  1.00 32.92     0.043 C 
BRANCH  15  16
ATOM     16  CG  GLU D 570     -20.448  -5.558 -12.963  1.00 32.92     0.100 C 
BRANCH  16  17
ATOM     17  CD  GLU D 570     -21.677  -5.122 -13.725  1.00 32.92     0.185 C 
ATOM     18  OE1 GLU D 570     -22.724  -4.877 -13.095  1.00 32.92    -0.647 OA
ATOM     19  OE2 GLU D 570     -21.598  -5.041 -14.967  1.00 32.92    -0.647 OA
ENDBRANCH  16  17
ENDBRANCH  15  16
ENDBRANCH  14  15
END_RES GLU D 570
ENDMDL
MODEL 7
REMARK VINA RESULT:      -4.2      4.684      5.956
REMARK  5 active torsions:
REMARK  status: ('A' for Active; 'I' for Inactive)
REMARK    1  A    between atoms: C_2  and  C_3 
REMARK    2  A    between atoms: C_3  and  S_4 
REMARK    3  A    between atoms: S_4  and  S_5 
REMARK    4  A    between atoms: S_5  and  C_7 
REMARK    5  A    between atoms: C_7  and  C_8 
ROOT
HETATM    1  S   UNL     1     -21.346  -6.727  -2.548  1.00  0.00     0.081 S 
HETATM    2  O   UNL     1     -22.595  -5.897  -2.556  1.00  0.00    -0.246 OA
ENDROOT
BRANCH   1   3
HETATM    3  S   UNL     1     -21.441  -7.490  -4.424  1.00  0.00    -0.062 SA
BRANCH   3   4
HETATM    4  C   UNL     1     -21.754  -5.993  -5.399  1.00  0.00     0.114 C 
BRANCH   4   5
HETATM    5  C   UNL     1     -20.533  -5.121  -5.376  1.00  0.00    -0.026 C 
HETATM    6  C   UNL     1     -19.799  -4.810  -6.453  1.00  0.00     0.007 C 
ENDBRANCH   4   5
ENDBRANCH   3   4
ENDBRANCH   1   3
BRANCH   1   7
HETATM    7  C   UNL     1     -21.646  -8.218  -1.538  1.00  0.00     0.147 C 
BRANCH   7   8
HETATM    8  C   UNL     1     -21.963  -7.842  -0.121  1.00  0.00    -0.024 C 
HETATM    9  C   UNL     1     -23.140  -8.065   0.480  1.00  0.00     0.008 C 
ENDBRANCH   7   8
ENDBRANCH   1   7
TORSDOF 5
BEGIN_RES ARG D 557
REMARK  4 active torsions:
REMARK  status: ('A' for Active; 'I' for Inactive)
REMARK    1  A    between atoms: CA   and  CB  
REMARK    2  A    between atoms: CB   and  CG  
REMARK    3  A    between atoms: CG   and  CD  
REMARK    4  A    between atoms: CD   and  NE  
REMARK       I    between atoms: NE   and  CZ  
REMARK       I    between atoms: CZ   and  NH1 
REMARK       I    between atoms: CZ   and  NH2 
ROOT
ATOM      1  CA  ARG D 557     -26.217   2.705 -17.014  1.00 35.49     0.159 C 
ENDROOT
BRANCH   1   2
ATOM      2  CB  ARG D 557     -26.789   1.319 -17.183  1.00 35.49     0.034 C 
BRANCH   2   3
ATOM      3  CG  ARG D 557     -25.864   0.195 -16.992  1.00 35.49     0.027 C 
BRANCH   3   4
ATOM      4  CD  ARG D 557     -26.293  -0.709 -15.900  1.00 35.49     0.116 C 
BRANCH   4   5
ATOM      5  NE  ARG D 557     -25.245  -0.935 -14.940  1.00 35.49    -0.212 N 
ATOM      6  CZ  ARG D 557     -24.969  -2.081 -14.360  1.00 35.49     0.666 C 
ATOM      7  NH1 ARG D 557     -25.659  -3.181 -14.598  1.00 35.49    -0.235 N 
ATOM      8  NH2 ARG D 557     -23.968  -2.107 -13.529  1.00 35.49    -0.235 N 
ATOM      9  HH  ARG D 557     -26.321  -3.187 -15.142  1.00 35.49     0.174 HD
ATOM     10  HH  ARG D 557     -25.431  -3.900 -14.192  1.00 35.49     0.174 HD
ATOM     11  HH  ARG D 557     -23.535  -1.383 -13.400  1.00 35.49     0.174 HD
ATOM     12  HH  ARG D 557     -23.756  -2.829 -13.138  1.00 35.49     0.174 HD
ATOM     13  HE  ARG D 557     -24.796  -0.263 -14.674  1.00 35.49     0.178 HD
ENDBRANCH   4   5
ENDBRANCH   3   4
ENDBRANCH   2   3
ENDBRANCH   1   2
END_RES ARG D 557
BEGIN_RES GLU D 570
REMARK  3 active torsions:
REMARK  status: ('A' for Active; 'I' for Inactive)
REMARK    5  A    between atoms: CA   and  CB  
REMARK    6  A    between atoms: CB   and  CG  
REMARK    7  A    between atoms: CG   and  CD  
ROOT
ATOM     14  CA  GLU D 570     -18.033  -6.348 -13.375  1.00 32.92     0.160 C 
ENDROOT
BRANCH  14  15
ATOM     15  CB  GLU D 570     -19.500  -6.345 -13.794  1.00 32.92     0.043 C 
BRANCH  15  16
ATOM     16  CG  GLU D 570     -20.449  -5.565 -12.959  1.00 32.92     0.100 C 
BRANCH  16  17
ATOM     17  CD  GLU D 570     -21.689  -5.144 -13.712  1.00 32.92     0.185 C 
ATOM     18  OE1 GLU D 570     -21.637  -5.037 -14.952  1.00 32.92    -0.647 OA
ATOM     19  OE2 GLU D 570     -22.720  -4.903 -13.053  1.00 32.92    -0.647 OA
ENDBRANCH  16  17
ENDBRANCH  15  16
ENDBRANCH  14  15
END_RES GLU D 570
ENDMDL
MODEL 8
REMARK VINA RESULT:      -4.1      4.154      5.440
REMARK  5 active torsions:
REMARK  status: ('A' for Active; 'I' for Inactive)
REMARK    1  A    between atoms: C_2  and  C_3 
REMARK    2  A    between atoms: C_3  and  S_4 
REMARK    3  A    between atoms: S_4  and  S_5 
REMARK    4  A    between atoms: S_5  and  C_7 
REMARK    5  A    between atoms: C_7  and  C_8 
ROOT
HETATM    1  S   UNL     1     -21.793  -6.783  -5.076  1.00  0.00     0.081 S 
HETATM    2  O   UNL     1     -21.277  -7.839  -6.007  1.00  0.00    -0.246 OA
ENDROOT
BRANCH   1   3
HETATM    3  S   UNL     1     -20.559  -5.257  -5.585  1.00  0.00    -0.062 SA
BRANCH   3   4
HETATM    4  C   UNL     1     -21.374  -4.627  -7.078  1.00  0.00     0.114 C 
BRANCH   4   5
HETATM    5  C   UNL     1     -20.337  -4.091  -8.022  1.00  0.00    -0.026 C 
HETATM    6  C   UNL     1     -20.329  -4.306  -9.345  1.00  0.00     0.007 C 
ENDBRANCH   4   5
ENDBRANCH   3   4
ENDBRANCH   1   3
BRANCH   1   7
HETATM    7  C   UNL     1     -21.215  -7.165  -3.387  1.00  0.00     0.147 C 
BRANCH   7   8
HETATM    8  C   UNL     1     -21.921  -6.307  -2.379  1.00  0.00    -0.024 C 
HETATM    9  C   UNL     1     -22.291  -6.717  -1.158  1.00  0.00     0.008 C 
ENDBRANCH   7   8
ENDBRANCH   1   7
TORSDOF 5
BEGIN_RES ARG D 557
REMARK  4 active torsions:
REMARK  status: ('A' for Active; 'I' for Inactive)
REMARK    1  A    between atoms: CA   and  CB  
REMARK    2  A    between atoms: CB   and  CG  
REMARK    3  A    between atoms: CG   and  CD  
REMARK    4  A    between atoms: CD   and  NE  
REMARK       I    between atoms: NE   and  CZ  
REMARK       I    between atoms: CZ   and  NH1 
REMARK       I    between atoms: CZ   and  NH2 
ROOT
ATOM      1  CA  ARG D 557     -26.217   2.705 -17.014  1.00 35.49     0.159 C 
ENDROOT
BRANCH   1   2
ATOM      2  CB  ARG D 557     -26.789   1.319 -17.183  1.00 35.49     0.034 C 
BRANCH   2   3
ATOM      3  CG  ARG D 557     -28.229   1.227 -17.453  1.00 35.49     0.027 C 
BRANCH   3   4
ATOM      4  CD  ARG D 557     -28.921   0.313 -16.516  1.00 35.49     0.116 C 
BRANCH   4   5
ATOM      5  NE  ARG D 557     -29.314  -0.918 -17.149  1.00 35.49    -0.212 N 
ATOM      6  CZ  ARG D 557     -28.691  -2.070 -17.042  1.00 35.49     0.666 C 
ATOM      7  NH1 ARG D 557     -27.591  -2.218 -16.326  1.00 35.49    -0.235 N 
ATOM      8  NH2 ARG D 557     -29.201  -3.090 -17.670  1.00 35.49    -0.235 N 
ATOM      9  HH  ARG D 557     -27.240  -1.561 -15.902  1.00 35.49     0.174 HD
ATOM     10  HH  ARG D 557     -27.230  -2.994 -16.290  1.00 35.49     0.174 HD
ATOM     11  HH  ARG D 557     -29.916  -2.966 -18.119  1.00 35.49     0.174 HD
ATOM     12  HH  ARG D 557     -28.829  -3.850 -17.621  1.00 35.49     0.174 HD
ATOM     13  HE  ARG D 557     -29.971  -0.898 -17.689  1.00 35.49     0.178 HD
ENDBRANCH   4   5
ENDBRANCH   3   4
ENDBRANCH   2   3
ENDBRANCH   1   2
END_RES ARG D 557
BEGIN_RES GLU D 570
REMARK  3 active torsions:
REMARK  status: ('A' for Active; 'I' for Inactive)
REMARK    5  A    between atoms: CA   and  CB  
REMARK    6  A    between atoms: CB   and  CG  
REMARK    7  A    between atoms: CG   and  CD  
ROOT
ATOM     14  CA  GLU D 570     -18.033  -6.348 -13.375  1.00 32.92     0.160 C 
ENDROOT
BRANCH  14  15
ATOM     15  CB  GLU D 570     -19.500  -6.345 -13.794  1.00 32.92     0.043 C 
BRANCH  15  16
ATOM     16  CG  GLU D 570     -20.436  -5.504 -13.003  1.00 32.92     0.100 C 
BRANCH  16  17
ATOM     17  CD  GLU D 570     -21.712  -5.185 -13.747  1.00 32.92     0.185 C 
ATOM     18  OE1 GLU D 570     -21.652  -4.898 -14.958  1.00 32.92    -0.647 OA
ATOM     19  OE2 GLU D 570     -22.782  -5.205 -13.107  1.00 32.92    -0.647 OA
ENDBRANCH  16  17
ENDBRANCH  15  16
ENDBRANCH  14  15
END_RES GLU D 570
ENDMDL
MODEL 9
REMARK VINA RESULT:      -4.1      5.086      7.103
REMARK  5 active torsions:
REMARK  status: ('A' for Active; 'I' for Inactive)
REMARK    1  A    between atoms: C_2  and  C_3 
REMARK    2  A    between atoms: C_3  and  S_4 
REMARK    3  A    between atoms: S_4  and  S_5 
REMARK    4  A    between atoms: S_5  and  C_7 
REMARK    5  A    between atoms: C_7  and  C_8 
ROOT
HETATM    1  S   UNL     1     -29.829  -4.146 -17.042  1.00  0.00     0.081 S 
HETATM    2  O   UNL     1     -30.717  -3.012 -17.460  1.00  0.00    -0.246 OA
ENDROOT
BRANCH   1   3
HETATM    3  S   UNL     1     -28.108  -3.124 -16.724  1.00  0.00    -0.062 SA
BRANCH   3   4
HETATM    4  C   UNL     1     -27.279  -4.194 -15.516  1.00  0.00     0.114 C 
BRANCH   4   5
HETATM    5  C   UNL     1     -26.731  -5.402 -16.217  1.00  0.00    -0.026 C 
HETATM    6  C   UNL     1     -26.962  -6.669 -15.844  1.00  0.00     0.007 C 
ENDBRANCH   4   5
ENDBRANCH   3   4
ENDBRANCH   1   3
BRANCH   1   7
HETATM    7  C   UNL     1     -29.400  -5.123 -18.524  1.00  0.00     0.147 C 
BRANCH   7   8
HETATM    8  C   UNL     1     -29.680  -6.579 -18.297  1.00  0.00    -0.024 C 
HETATM    9  C   UNL     1     -30.671  -7.052 -17.528  1.00  0.00     0.008 C 
ENDBRANCH   7   8
ENDBRANCH   1   7
TORSDOF 5
BEGIN_RES ARG D 557
REMARK  4 active torsions:
REMARK  status: ('A' for Active; 'I' for Inactive)
REMARK    1  A    between atoms: CA   and  CB  
REMARK    2  A    between atoms: CB   and  CG  
REMARK    3  A    between atoms: CG   and  CD  
REMARK    4  A    between atoms: CD   and  NE  
REMARK       I    between atoms: NE   and  CZ  
REMARK       I    between atoms: CZ   and  NH1 
REMARK       I    between atoms: CZ   and  NH2 
ROOT
ATOM      1  CA  ARG D 557     -26.217   2.705 -17.014  1.00 35.49     0.159 C 
ENDROOT
BRANCH   1   2
ATOM      2  CB  ARG D 557     -26.789   1.319 -17.183  1.00 35.49     0.034 C 
BRANCH   2   3
ATOM      3  CG  ARG D 557     -25.835   0.203 -17.160  1.00 35.49     0.027 C 
BRANCH   3   4
ATOM      4  CD  ARG D 557     -24.768   0.394 -16.150  1.00 35.49     0.116 C 
BRANCH   4   5
ATOM      5  NE  ARG D 557     -24.940  -0.468 -15.011  1.00 35.49    -0.212 N 
ATOM      6  CZ  ARG D 557     -24.132  -1.442 -14.657  1.00 35.49     0.666 C 
ATOM      7  NH1 ARG D 557     -23.047  -1.750 -15.344  1.00 35.49    -0.235 N 
ATOM      8  NH2 ARG D 557     -24.431  -2.109 -13.580  1.00 35.49    -0.235 N 
ATOM      9  HH  ARG D 557     -22.830  -1.323 -16.055  1.00 35.49     0.174 HD
ATOM     10  HH  ARG D 557     -22.557  -2.394 -15.064  1.00 35.49     0.174 HD
ATOM     11  HH  ARG D 557     -25.134  -1.884 -13.152  1.00 35.49     0.174 HD
ATOM     12  HH  ARG D 557     -23.932  -2.742 -13.318  1.00 35.49     0.174 HD
ATOM     13  HE  ARG D 557     -25.651  -0.388 -14.552  1.00 35.49     0.178 HD
ENDBRANCH   4   5
ENDBRANCH   3   4
ENDBRANCH   2   3
ENDBRANCH   1   2
END_RES ARG D 557
BEGIN_RES GLU D 570
REMARK  3 active torsions:
REMARK  status: ('A' for Active; 'I' for Inactive)
REMARK    5  A    between atoms: CA   and  CB  
REMARK    6  A    between atoms: CB   and  CG  
REMARK    7  A    between atoms: CG   and  CD  
ROOT
ATOM     14  CA  GLU D 570     -18.033  -6.348 -13.375  1.00 32.92     0.160 C 
ENDROOT
BRANCH  14  15
ATOM     15  CB  GLU D 570     -19.500  -6.345 -13.794  1.00 32.92     0.043 C 
BRANCH  15  16
ATOM     16  CG  GLU D 570     -20.444  -5.539 -12.977  1.00 32.92     0.100 C 
BRANCH  16  17
ATOM     17  CD  GLU D 570     -21.737  -5.236 -13.697  1.00 32.92     0.185 C 
ATOM     18  OE1 GLU D 570     -22.298  -4.142 -13.499  1.00 32.92    -0.647 OA
ATOM     19  OE2 GLU D 570     -22.203  -6.110 -14.455  1.00 32.92    -0.647 OA
ENDBRANCH  16  17
ENDBRANCH  15  16
ENDBRANCH  14  15
END_RES GLU D 570
ENDMDL
