MODEL 1
REMARK VINA RESULT:      -8.6      0.000      0.000
REMARK  6 active torsions:
REMARK  status: ('A' for Active; 'I' for Inactive)
REMARK    1  A    between atoms: C_2  and  N_3 
REMARK    2  A    between atoms: N_3  and  C_4 
REMARK    3  A    between atoms: N_3  and  C_17 
REMARK    4  A    between atoms: C_4  and  C_5 
REMARK    5  A    between atoms: C_5  and  N_6 
REMARK       I    between atoms: N_6  and  C_7 
REMARK       I    between atoms: C_7  and  N_9 
REMARK    6  A    between atoms: N_9  and  C_10 
ROOT
HETATM    1  N   UNL     1     -21.135  -5.682  -4.934  1.00  0.00    -0.341 N 
HETATM    2  C   UNL     1     -21.540  -6.674  -4.067  1.00  0.00     0.320 C 
HETATM    3  O   UNL     1     -22.294  -7.578  -4.408  1.00  0.00    -0.247 OA
HETATM    4  N   UNL     1     -21.059  -6.468  -2.792  1.00  0.00    -0.308 N 
HETATM    5  H   UNL     1     -20.168  -5.407  -4.808  1.00  0.00     0.164 HD
HETATM    6  H   UNL     1     -20.972  -5.490  -2.544  1.00  0.00     0.170 HD
ENDROOT
BRANCH   1   7
HETATM    7  C   UNL     1     -21.640  -5.698  -6.304  1.00  0.00     0.144 C 
BRANCH   7   8
HETATM    8  C   UNL     1     -21.829  -4.283  -6.897  1.00  0.00     0.142 C 
BRANCH   8   9
HETATM    9  N   UNL     1     -21.442  -4.222  -8.317  1.00  0.00    -0.380 N 
BRANCH   9  10
HETATM   10  C   UNL     1     -20.075  -4.585  -8.741  1.00  0.00     0.118 C 
HETATM   11  C   UNL     1     -18.926  -4.178  -7.839  1.00  0.00     0.026 C 
ENDBRANCH   9  10
BRANCH   9  12
HETATM   12  C   UNL     1     -22.381  -3.914  -9.314  1.00  0.00     0.030 A 
HETATM   13  C   UNL     1     -23.745  -3.734  -9.015  1.00  0.00     0.029 A 
HETATM   14  C   UNL     1     -24.704  -3.439  -9.992  1.00  0.00     0.003 A 
HETATM   15  C   UNL     1     -24.325  -3.312 -11.321  1.00  0.00     0.007 A 
HETATM   16  C   UNL     1     -22.987  -3.471 -11.672  1.00  0.00    -0.060 A 
HETATM   17  C   UNL     1     -22.550  -3.335 -13.101  1.00  0.00     0.048 C 
HETATM   18  C   UNL     1     -22.039  -3.769 -10.671  1.00  0.00     0.036 A 
ENDBRANCH   9  12
ENDBRANCH   8   9
ENDBRANCH   7   8
ENDBRANCH   1   7
BRANCH   4  19
HETATM   19  C   UNL     1     -21.406  -7.343  -1.734  1.00  0.00     0.053 A 
HETATM   20  C   UNL     1     -22.441  -7.006  -0.853  1.00  0.00     0.031 A 
HETATM   21  C   UNL     1     -22.758  -7.841   0.220  1.00  0.00     0.002 A 
HETATM   22  C   UNL     1     -22.050  -9.022   0.417  1.00  0.00     0.002 A 
HETATM   23  C   UNL     1     -21.034  -9.383  -0.470  1.00  0.00     0.021 A 
HETATM   24  C   UNL     1     -20.726  -8.555  -1.555  1.00  0.00     0.037 A 
HETATM   25 BR   UNL     1     -19.292  -9.067  -2.693  1.00  0.00    -0.049 Br
ENDBRANCH   4  19
TORSDOF 6
BEGIN_RES ARG D 557
REMARK  4 active torsions:
REMARK  status: ('A' for Active; 'I' for Inactive)
REMARK    1  A    between atoms: CA   and  CB  
REMARK    2  A    between atoms: CB   and  CG  
REMARK    3  A    between atoms: CG   and  CD  
REMARK    4  A    between atoms: CD   and  NE  
REMARK       I    between atoms: NE   and  CZ  
REMARK       I    between atoms: CZ   and  NH1 
REMARK       I    between atoms: CZ   and  NH2 
ROOT
ATOM      1  CA  ARG D 557     -26.217   2.705 -17.014  1.00 35.49     0.159 C 
ENDROOT
BRANCH   1   2
ATOM      2  CB  ARG D 557     -26.789   1.319 -17.183  1.00 35.49     0.034 C 
BRANCH   2   3
ATOM      3  CG  ARG D 557     -28.232   1.226 -17.436  1.00 35.49     0.027 C 
BRANCH   3   4
ATOM      4  CD  ARG D 557     -28.911   0.302 -16.498  1.00 35.49     0.116 C 
BRANCH   4   5
ATOM      5  NE  ARG D 557     -29.284  -0.935 -17.132  1.00 35.49    -0.212 N 
ATOM      6  CZ  ARG D 557     -28.643  -2.077 -17.023  1.00 35.49     0.666 C 
ATOM      7  NH1 ARG D 557     -27.542  -2.207 -16.307  1.00 35.49    -0.235 N 
ATOM      8  NH2 ARG D 557     -29.137  -3.105 -17.651  1.00 35.49    -0.235 N 
ATOM      9  HH  ARG D 557     -27.200  -1.545 -15.884  1.00 35.49     0.174 HD
ATOM     10  HH  ARG D 557     -27.168  -2.978 -16.271  1.00 35.49     0.174 HD
ATOM     11  HH  ARG D 557     -29.853  -2.993 -18.100  1.00 35.49     0.174 HD
ATOM     12  HH  ARG D 557     -28.753  -3.860 -17.602  1.00 35.49     0.174 HD
ATOM     13  HE  ARG D 557     -29.941  -0.925 -17.671  1.00 35.49     0.178 HD
ENDBRANCH   4   5
ENDBRANCH   3   4
ENDBRANCH   2   3
ENDBRANCH   1   2
END_RES ARG D 557
BEGIN_RES GLU D 570
REMARK  3 active torsions:
REMARK  status: ('A' for Active; 'I' for Inactive)
REMARK    5  A    between atoms: CA   and  CB  
REMARK    6  A    between atoms: CB   and  CG  
REMARK    7  A    between atoms: CG   and  CD  
ROOT
ATOM     14  CA  GLU D 570     -18.033  -6.348 -13.375  1.00 32.92     0.160 C 
ENDROOT
BRANCH  14  15
ATOM     15  CB  GLU D 570     -19.500  -6.345 -13.794  1.00 32.92     0.043 C 
BRANCH  15  16
ATOM     16  CG  GLU D 570     -19.797  -6.254 -15.247  1.00 32.92     0.100 C 
BRANCH  16  17
ATOM     17  CD  GLU D 570     -21.249  -5.951 -15.534  1.00 32.92     0.185 C 
ATOM     18  OE1 GLU D 570     -22.120  -6.764 -15.173  1.00 32.92    -0.647 OA
ATOM     19  OE2 GLU D 570     -21.516  -4.895 -16.142  1.00 32.92    -0.647 OA
ENDBRANCH  16  17
ENDBRANCH  15  16
ENDBRANCH  14  15
END_RES GLU D 570
ENDMDL
MODEL 2
REMARK VINA RESULT:      -8.5      2.515      7.822
REMARK  6 active torsions:
REMARK  status: ('A' for Active; 'I' for Inactive)
REMARK    1  A    between atoms: C_2  and  N_3 
REMARK    2  A    between atoms: N_3  and  C_4 
REMARK    3  A    between atoms: N_3  and  C_17 
REMARK    4  A    between atoms: C_4  and  C_5 
REMARK    5  A    between atoms: C_5  and  N_6 
REMARK       I    between atoms: N_6  and  C_7 
REMARK       I    between atoms: C_7  and  N_9 
REMARK    6  A    between atoms: N_9  and  C_10 
ROOT
HETATM    1  N   UNL     1     -21.540  -6.690  -4.655  1.00  0.00    -0.341 N 
HETATM    2  C   UNL     1     -21.594  -6.413  -6.004  1.00  0.00     0.320 C 
HETATM    3  O   UNL     1     -21.487  -7.286  -6.859  1.00  0.00    -0.247 OA
HETATM    4  N   UNL     1     -21.707  -5.062  -6.247  1.00  0.00    -0.308 N 
HETATM    5  H   UNL     1     -22.188  -6.140  -4.104  1.00  0.00     0.164 HD
HETATM    6  H   UNL     1     -21.230  -4.486  -5.563  1.00  0.00     0.170 HD
ENDROOT
BRANCH   1   7
HETATM    7  C   UNL     1     -21.322  -8.069  -4.229  1.00  0.00     0.144 C 
BRANCH   7   8
HETATM    8  C   UNL     1     -19.971  -8.274  -3.505  1.00  0.00     0.142 C 
BRANCH   8   9
HETATM    9  N   UNL     1     -20.094  -9.182  -2.352  1.00  0.00    -0.380 N 
BRANCH   9  10
HETATM   10  C   UNL     1     -19.043 -10.177  -2.060  1.00  0.00     0.118 C 
HETATM   11  C   UNL     1     -17.704 -10.011  -2.753  1.00  0.00     0.026 C 
ENDBRANCH   9  10
BRANCH   9  12
HETATM   12  C   UNL     1     -21.159  -9.064  -1.445  1.00  0.00     0.030 A 
HETATM   13  C   UNL     1     -21.360  -7.894  -0.688  1.00  0.00     0.029 A 
HETATM   14  C   UNL     1     -22.407  -7.755   0.232  1.00  0.00     0.003 A 
HETATM   15  C   UNL     1     -23.301  -8.798   0.429  1.00  0.00     0.007 A 
HETATM   16  C   UNL     1     -23.154  -9.976  -0.299  1.00  0.00    -0.060 A 
HETATM   17  C   UNL     1     -24.109 -11.117  -0.108  1.00  0.00     0.048 C 
HETATM   18  C   UNL     1     -22.092 -10.094  -1.220  1.00  0.00     0.036 A 
ENDBRANCH   9  12
ENDBRANCH   8   9
ENDBRANCH   7   8
ENDBRANCH   1   7
BRANCH   4  19
HETATM   19  C   UNL     1     -21.722  -4.560  -7.571  1.00  0.00     0.053 A 
HETATM   20  C   UNL     1     -22.940  -4.339  -8.227  1.00  0.00     0.031 A 
HETATM   21  C   UNL     1     -22.962  -3.887  -9.547  1.00  0.00     0.002 A 
HETATM   22  C   UNL     1     -21.770  -3.644 -10.221  1.00  0.00     0.002 A 
HETATM   23  C   UNL     1     -20.550  -3.833  -9.569  1.00  0.00     0.021 A 
HETATM   24  C   UNL     1     -20.526  -4.270  -8.241  1.00  0.00     0.037 A 
HETATM   25 BR   UNL     1     -18.834  -4.571  -7.427  1.00  0.00    -0.049 Br
ENDBRANCH   4  19
TORSDOF 6
BEGIN_RES ARG D 557
REMARK  4 active torsions:
REMARK  status: ('A' for Active; 'I' for Inactive)
REMARK    1  A    between atoms: CA   and  CB  
REMARK    2  A    between atoms: CB   and  CG  
REMARK    3  A    between atoms: CG   and  CD  
REMARK    4  A    between atoms: CD   and  NE  
REMARK       I    between atoms: NE   and  CZ  
REMARK       I    between atoms: CZ   and  NH1 
REMARK       I    between atoms: CZ   and  NH2 
ROOT
ATOM      1  CA  ARG D 557     -26.217   2.705 -17.014  1.00 35.49     0.159 C 
ENDROOT
BRANCH   1   2
ATOM      2  CB  ARG D 557     -26.789   1.319 -17.183  1.00 35.49     0.034 C 
BRANCH   2   3
ATOM      3  CG  ARG D 557     -25.836   0.203 -17.155  1.00 35.49     0.027 C 
BRANCH   3   4
ATOM      4  CD  ARG D 557     -24.748   0.414 -16.172  1.00 35.49     0.116 C 
BRANCH   4   5
ATOM      5  NE  ARG D 557     -24.891  -0.430 -15.016  1.00 35.49    -0.212 N 
ATOM      6  CZ  ARG D 557     -24.079  -1.404 -14.671  1.00 35.49     0.666 C 
ATOM      7  NH1 ARG D 557     -23.016  -1.728 -15.384  1.00 35.49    -0.235 N 
ATOM      8  NH2 ARG D 557     -24.351  -2.053 -13.576  1.00 35.49    -0.235 N 
ATOM      9  HH  ARG D 557     -22.817  -1.313 -16.107  1.00 35.49     0.174 HD
ATOM     10  HH  ARG D 557     -22.521  -2.370 -15.109  1.00 35.49     0.174 HD
ATOM     11  HH  ARG D 557     -25.039  -1.817 -13.131  1.00 35.49     0.174 HD
ATOM     12  HH  ARG D 557     -23.848  -2.685 -13.319  1.00 35.49     0.174 HD
ATOM     13  HE  ARG D 557     -25.589  -0.339 -14.538  1.00 35.49     0.178 HD
ENDBRANCH   4   5
ENDBRANCH   3   4
ENDBRANCH   2   3
ENDBRANCH   1   2
END_RES ARG D 557
BEGIN_RES GLU D 570
REMARK  3 active torsions:
REMARK  status: ('A' for Active; 'I' for Inactive)
REMARK    5  A    between atoms: CA   and  CB  
REMARK    6  A    between atoms: CB   and  CG  
REMARK    7  A    between atoms: CG   and  CD  
ROOT
ATOM     14  CA  GLU D 570     -18.033  -6.348 -13.375  1.00 32.92     0.160 C 
ENDROOT
BRANCH  14  15
ATOM     15  CB  GLU D 570     -19.500  -6.345 -13.794  1.00 32.92     0.043 C 
BRANCH  15  16
ATOM     16  CG  GLU D 570     -20.437  -5.509 -13.000  1.00 32.92     0.100 C 
BRANCH  16  17
ATOM     17  CD  GLU D 570     -21.745  -5.252 -13.711  1.00 32.92     0.185 C 
ATOM     18  OE1 GLU D 570     -22.289  -4.138 -13.593  1.00 32.92    -0.647 OA
ATOM     19  OE2 GLU D 570     -22.239  -6.181 -14.379  1.00 32.92    -0.647 OA
ENDBRANCH  16  17
ENDBRANCH  15  16
ENDBRANCH  14  15
END_RES GLU D 570
ENDMDL
MODEL 3
REMARK VINA RESULT:      -8.5      2.767      8.046
REMARK  6 active torsions:
REMARK  status: ('A' for Active; 'I' for Inactive)
REMARK    1  A    between atoms: C_2  and  N_3 
REMARK    2  A    between atoms: N_3  and  C_4 
REMARK    3  A    between atoms: N_3  and  C_17 
REMARK    4  A    between atoms: C_4  and  C_5 
REMARK    5  A    between atoms: C_5  and  N_6 
REMARK       I    between atoms: N_6  and  C_7 
REMARK       I    between atoms: C_7  and  N_9 
REMARK    6  A    between atoms: N_9  and  C_10 
ROOT
HETATM    1  N   UNL     1     -21.700  -5.502  -5.628  1.00  0.00    -0.341 N 
HETATM    2  C   UNL     1     -21.328  -5.501  -6.956  1.00  0.00     0.320 C 
HETATM    3  O   UNL     1     -20.478  -6.263  -7.401  1.00  0.00    -0.247 OA
HETATM    4  N   UNL     1     -21.968  -4.509  -7.666  1.00  0.00    -0.308 N 
HETATM    5  H   UNL     1     -22.692  -5.353  -5.487  1.00  0.00     0.164 HD
HETATM    6  H   UNL     1     -22.153  -3.675  -7.122  1.00  0.00     0.170 HD
ENDROOT
BRANCH   1   7
HETATM    7  C   UNL     1     -21.039  -6.430  -4.715  1.00  0.00     0.144 C 
BRANCH   7   8
HETATM    8  C   UNL     1     -21.781  -7.780  -4.579  1.00  0.00     0.142 C 
BRANCH   8   9
HETATM    9  N   UNL     1     -21.209  -8.620  -3.513  1.00  0.00    -0.380 N 
BRANCH   9  10
HETATM   10  C   UNL     1     -19.933  -9.331  -3.717  1.00  0.00     0.118 C 
HETATM   11  C   UNL     1     -18.876  -9.211  -2.634  1.00  0.00     0.026 C 
ENDBRANCH   9  10
BRANCH   9  12
HETATM   12  C   UNL     1     -21.807  -8.691  -2.245  1.00  0.00     0.030 A 
HETATM   13  C   UNL     1     -21.804  -7.593  -1.363  1.00  0.00     0.029 A 
HETATM   14  C   UNL     1     -22.383  -7.642  -0.088  1.00  0.00     0.003 A 
HETATM   15  C   UNL     1     -22.992  -8.807   0.354  1.00  0.00     0.007 A 
HETATM   16  C   UNL     1     -23.031  -9.922  -0.481  1.00  0.00    -0.060 A 
HETATM   17  C   UNL     1     -23.688 -11.193  -0.029  1.00  0.00     0.048 C 
HETATM   18  C   UNL     1     -22.441  -9.850  -1.760  1.00  0.00     0.036 A 
ENDBRANCH   9  12
ENDBRANCH   8   9
ENDBRANCH   7   8
ENDBRANCH   1   7
BRANCH   4  19
HETATM   19  C   UNL     1     -21.686  -4.299  -9.037  1.00  0.00     0.053 A 
HETATM   20  C   UNL     1     -20.381  -4.459  -9.521  1.00  0.00     0.031 A 
HETATM   21  C   UNL     1     -20.086  -4.208 -10.862  1.00  0.00     0.002 A 
HETATM   22  C   UNL     1     -21.092  -3.805 -11.733  1.00  0.00     0.002 A 
HETATM   23  C   UNL     1     -22.402  -3.669 -11.271  1.00  0.00     0.021 A 
HETATM   24  C   UNL     1     -22.703  -3.935  -9.931  1.00  0.00     0.037 A 
HETATM   25 BR   UNL     1     -24.491  -3.672  -9.344  1.00  0.00    -0.049 Br
ENDBRANCH   4  19
TORSDOF 6
BEGIN_RES ARG D 557
REMARK  4 active torsions:
REMARK  status: ('A' for Active; 'I' for Inactive)
REMARK    1  A    between atoms: CA   and  CB  
REMARK    2  A    between atoms: CB   and  CG  
REMARK    3  A    between atoms: CG   and  CD  
REMARK    4  A    between atoms: CD   and  NE  
REMARK       I    between atoms: NE   and  CZ  
REMARK       I    between atoms: CZ   and  NH1 
REMARK       I    between atoms: CZ   and  NH2 
ROOT
ATOM      1  CA  ARG D 557     -26.217   2.705 -17.014  1.00 35.49     0.159 C 
ENDROOT
BRANCH   1   2
ATOM      2  CB  ARG D 557     -26.789   1.319 -17.183  1.00 35.49     0.034 C 
BRANCH   2   3
ATOM      3  CG  ARG D 557     -25.835   0.203 -17.160  1.00 35.49     0.027 C 
BRANCH   3   4
ATOM      4  CD  ARG D 557     -24.753   0.406 -16.170  1.00 35.49     0.116 C 
BRANCH   4   5
ATOM      5  NE  ARG D 557     -24.897  -0.455 -15.026  1.00 35.49    -0.212 N 
ATOM      6  CZ  ARG D 557     -24.076  -1.422 -14.684  1.00 35.49     0.666 C 
ATOM      7  NH1 ARG D 557     -23.003  -1.724 -15.391  1.00 35.49    -0.235 N 
ATOM      8  NH2 ARG D 557     -24.351  -2.089 -13.601  1.00 35.49    -0.235 N 
ATOM      9  HH  ARG D 557     -22.801  -1.297 -16.106  1.00 35.49     0.174 HD
ATOM     10  HH  ARG D 557     -22.502  -2.364 -15.118  1.00 35.49     0.174 HD
ATOM     11  HH  ARG D 557     -25.047  -1.867 -13.160  1.00 35.49     0.174 HD
ATOM     12  HH  ARG D 557     -23.843  -2.718 -13.346  1.00 35.49     0.174 HD
ATOM     13  HE  ARG D 557     -25.601  -0.378 -14.554  1.00 35.49     0.178 HD
ENDBRANCH   4   5
ENDBRANCH   3   4
ENDBRANCH   2   3
ENDBRANCH   1   2
END_RES ARG D 557
BEGIN_RES GLU D 570
REMARK  3 active torsions:
REMARK  status: ('A' for Active; 'I' for Inactive)
REMARK    5  A    between atoms: CA   and  CB  
REMARK    6  A    between atoms: CB   and  CG  
REMARK    7  A    between atoms: CG   and  CD  
ROOT
ATOM     14  CA  GLU D 570     -18.033  -6.348 -13.375  1.00 32.92     0.160 C 
ENDROOT
BRANCH  14  15
ATOM     15  CB  GLU D 570     -19.500  -6.345 -13.794  1.00 32.92     0.043 C 
BRANCH  15  16
ATOM     16  CG  GLU D 570     -19.844  -5.680 -15.078  1.00 32.92     0.100 C 
BRANCH  16  17
ATOM     17  CD  GLU D 570     -21.316  -5.364 -15.202  1.00 32.92     0.185 C 
ATOM     18  OE1 GLU D 570     -21.685  -4.519 -16.039  1.00 32.92    -0.647 OA
ATOM     19  OE2 GLU D 570     -22.107  -5.957 -14.441  1.00 32.92    -0.647 OA
ENDBRANCH  16  17
ENDBRANCH  15  16
ENDBRANCH  14  15
END_RES GLU D 570
ENDMDL
MODEL 4
REMARK VINA RESULT:      -8.2      2.237      7.771
REMARK  6 active torsions:
REMARK  status: ('A' for Active; 'I' for Inactive)
REMARK    1  A    between atoms: C_2  and  N_3 
REMARK    2  A    between atoms: N_3  and  C_4 
REMARK    3  A    between atoms: N_3  and  C_17 
REMARK    4  A    between atoms: C_4  and  C_5 
REMARK    5  A    between atoms: C_5  and  N_6 
REMARK       I    between atoms: N_6  and  C_7 
REMARK       I    between atoms: C_7  and  N_9 
REMARK    6  A    between atoms: N_9  and  C_10 
ROOT
HETATM    1  N   UNL     1     -21.517  -5.256  -5.658  1.00  0.00    -0.341 N 
HETATM    2  C   UNL     1     -21.287  -5.333  -7.015  1.00  0.00     0.320 C 
HETATM    3  O   UNL     1     -20.602  -6.218  -7.516  1.00  0.00    -0.247 OA
HETATM    4  N   UNL     1     -21.850  -4.274  -7.691  1.00  0.00    -0.308 N 
HETATM    5  H   UNL     1     -22.459  -4.963  -5.424  1.00  0.00     0.164 HD
HETATM    6  H   UNL     1     -21.860  -3.411  -7.160  1.00  0.00     0.170 HD
ENDROOT
BRANCH   1   7
HETATM    7  C   UNL     1     -20.904  -6.252  -4.784  1.00  0.00     0.144 C 
BRANCH   7   8
HETATM    8  C   UNL     1     -21.795  -7.496  -4.563  1.00  0.00     0.142 C 
BRANCH   8   9
HETATM    9  N   UNL     1     -21.236  -8.402  -3.544  1.00  0.00    -0.380 N 
BRANCH   9  10
HETATM   10  C   UNL     1     -19.988  -9.146  -3.802  1.00  0.00     0.118 C 
HETATM   11  C   UNL     1     -18.904  -9.095  -2.741  1.00  0.00     0.026 C 
ENDBRANCH   9  10
BRANCH   9  12
HETATM   12  C   UNL     1     -21.816  -8.510  -2.271  1.00  0.00     0.030 A 
HETATM   13  C   UNL     1     -21.846  -7.422  -1.377  1.00  0.00     0.029 A 
HETATM   14  C   UNL     1     -22.408  -7.506  -0.097  1.00  0.00     0.003 A 
HETATM   15  C   UNL     1     -22.966  -8.699   0.340  1.00  0.00     0.007 A 
HETATM   16  C   UNL     1     -22.970  -9.806  -0.507  1.00  0.00    -0.060 A 
HETATM   17  C   UNL     1     -23.571 -11.106  -0.061  1.00  0.00     0.048 C 
HETATM   18  C   UNL     1     -22.398  -9.698  -1.792  1.00  0.00     0.036 A 
ENDBRANCH   9  12
ENDBRANCH   8   9
ENDBRANCH   7   8
ENDBRANCH   1   7
BRANCH   4  19
HETATM   19  C   UNL     1     -21.683  -4.132  -9.090  1.00  0.00     0.053 A 
HETATM   20  C   UNL     1     -20.402  -4.184  -9.655  1.00  0.00     0.031 A 
HETATM   21  C   UNL     1     -20.224  -3.999 -11.027  1.00  0.00     0.002 A 
HETATM   22  C   UNL     1     -21.325  -3.769 -11.847  1.00  0.00     0.002 A 
HETATM   23  C   UNL     1     -22.609  -3.743 -11.301  1.00  0.00     0.021 A 
HETATM   24  C   UNL     1     -22.790  -3.945  -9.929  1.00  0.00     0.037 A 
HETATM   25 BR   UNL     1     -24.555  -3.834  -9.233  1.00  0.00    -0.049 Br
ENDBRANCH   4  19
TORSDOF 6
BEGIN_RES ARG D 557
REMARK  4 active torsions:
REMARK  status: ('A' for Active; 'I' for Inactive)
REMARK    1  A    between atoms: CA   and  CB  
REMARK    2  A    between atoms: CB   and  CG  
REMARK    3  A    between atoms: CG   and  CD  
REMARK    4  A    between atoms: CD   and  NE  
REMARK       I    between atoms: NE   and  CZ  
REMARK       I    between atoms: CZ   and  NH1 
REMARK       I    between atoms: CZ   and  NH2 
ROOT
ATOM      1  CA  ARG D 557     -26.217   2.705 -17.014  1.00 35.49     0.159 C 
ENDROOT
BRANCH   1   2
ATOM      2  CB  ARG D 557     -26.789   1.319 -17.183  1.00 35.49     0.034 C 
BRANCH   2   3
ATOM      3  CG  ARG D 557     -28.233   1.226 -17.432  1.00 35.49     0.027 C 
BRANCH   3   4
ATOM      4  CD  ARG D 557     -28.908   0.297 -16.496  1.00 35.49     0.116 C 
BRANCH   4   5
ATOM      5  NE  ARG D 557     -29.312  -0.924 -17.142  1.00 35.49    -0.212 N 
ATOM      6  CZ  ARG D 557     -28.698  -2.083 -17.048  1.00 35.49     0.666 C 
ATOM      7  NH1 ARG D 557     -27.599  -2.247 -16.335  1.00 35.49    -0.235 N 
ATOM      8  NH2 ARG D 557     -29.218  -3.091 -17.685  1.00 35.49    -0.235 N 
ATOM      9  HH  ARG D 557     -27.241  -1.598 -15.906  1.00 35.49     0.174 HD
ATOM     10  HH  ARG D 557     -27.244  -3.026 -16.308  1.00 35.49     0.174 HD
ATOM     11  HH  ARG D 557     -29.933  -2.957 -18.132  1.00 35.49     0.174 HD
ATOM     12  HH  ARG D 557     -28.853  -3.855 -17.645  1.00 35.49     0.174 HD
ATOM     13  HE  ARG D 557     -29.970  -0.893 -17.680  1.00 35.49     0.178 HD
ENDBRANCH   4   5
ENDBRANCH   3   4
ENDBRANCH   2   3
ENDBRANCH   1   2
END_RES ARG D 557
BEGIN_RES GLU D 570
REMARK  3 active torsions:
REMARK  status: ('A' for Active; 'I' for Inactive)
REMARK    5  A    between atoms: CA   and  CB  
REMARK    6  A    between atoms: CB   and  CG  
REMARK    7  A    between atoms: CG   and  CD  
ROOT
ATOM     14  CA  GLU D 570     -18.033  -6.348 -13.375  1.00 32.92     0.160 C 
ENDROOT
BRANCH  14  15
ATOM     15  CB  GLU D 570     -19.500  -6.345 -13.794  1.00 32.92     0.043 C 
BRANCH  15  16
ATOM     16  CG  GLU D 570     -20.082  -7.631 -14.259  1.00 32.92     0.100 C 
BRANCH  16  17
ATOM     17  CD  GLU D 570     -21.195  -7.444 -15.263  1.00 32.92     0.185 C 
ATOM     18  OE1 GLU D 570     -21.153  -8.073 -16.338  1.00 32.92    -0.647 OA
ATOM     19  OE2 GLU D 570     -22.112  -6.648 -14.979  1.00 32.92    -0.647 OA
ENDBRANCH  16  17
ENDBRANCH  15  16
ENDBRANCH  14  15
END_RES GLU D 570
ENDMDL
MODEL 5
REMARK VINA RESULT:      -8.0      7.919     12.322
REMARK  6 active torsions:
REMARK  status: ('A' for Active; 'I' for Inactive)
REMARK    1  A    between atoms: C_2  and  N_3 
REMARK    2  A    between atoms: N_3  and  C_4 
REMARK    3  A    between atoms: N_3  and  C_17 
REMARK    4  A    between atoms: C_4  and  C_5 
REMARK    5  A    between atoms: C_5  and  N_6 
REMARK       I    between atoms: N_6  and  C_7 
REMARK       I    between atoms: C_7  and  N_9 
REMARK    6  A    between atoms: N_9  and  C_10 
ROOT
HETATM    1  N   UNL     1     -32.650  -4.530 -15.454  1.00  0.00    -0.341 N 
HETATM    2  C   UNL     1     -33.692  -3.927 -14.781  1.00  0.00     0.320 C 
HETATM    3  O   UNL     1     -34.627  -3.390 -15.364  1.00  0.00    -0.247 OA
HETATM    4  N   UNL     1     -33.501  -3.947 -13.417  1.00  0.00    -0.308 N 
HETATM    5  H   UNL     1     -32.323  -5.380 -15.012  1.00  0.00     0.164 HD
HETATM    6  H   UNL     1     -32.527  -3.883 -13.143  1.00  0.00     0.170 HD
ENDROOT
BRANCH   1   7
HETATM    7  C   UNL     1     -32.651  -4.506 -16.914  1.00  0.00     0.144 C 
BRANCH   7   8
HETATM    8  C   UNL     1     -31.239  -4.328 -17.518  1.00  0.00     0.142 C 
BRANCH   8   9
HETATM    9  N   UNL     1     -30.323  -5.409 -17.113  1.00  0.00    -0.380 N 
BRANCH   9  10
HETATM   10  C   UNL     1     -30.714  -6.824 -17.267  1.00  0.00     0.118 C 
HETATM   11  C   UNL     1     -30.315  -7.531 -18.548  1.00  0.00     0.026 C 
ENDBRANCH   9  10
BRANCH   9  12
HETATM   12  C   UNL     1     -29.023  -5.130 -16.664  1.00  0.00     0.030 A 
HETATM   13  C   UNL     1     -28.588  -3.811 -16.432  1.00  0.00     0.029 A 
HETATM   14  C   UNL     1     -27.292  -3.504 -15.997  1.00  0.00     0.003 A 
HETATM   15  C   UNL     1     -26.375  -4.521 -15.776  1.00  0.00     0.007 A 
HETATM   16  C   UNL     1     -26.754  -5.846 -15.982  1.00  0.00    -0.060 A 
HETATM   17  C   UNL     1     -25.783  -6.964 -15.747  1.00  0.00     0.048 C 
HETATM   18  C   UNL     1     -28.064  -6.131 -16.422  1.00  0.00     0.036 A 
ENDBRANCH   9  12
ENDBRANCH   8   9
ENDBRANCH   7   8
ENDBRANCH   1   7
BRANCH   4  19
HETATM   19  C   UNL     1     -34.428  -3.329 -12.544  1.00  0.00     0.053 A 
HETATM   20  C   UNL     1     -34.818  -2.001 -12.755  1.00  0.00     0.031 A 
HETATM   21  C   UNL     1     -35.696  -1.370 -11.872  1.00  0.00     0.002 A 
HETATM   22  C   UNL     1     -36.198  -2.064 -10.775  1.00  0.00     0.002 A 
HETATM   23  C   UNL     1     -35.839  -3.397 -10.569  1.00  0.00     0.021 A 
HETATM   24  C   UNL     1     -34.972  -4.035 -11.462  1.00  0.00     0.037 A 
HETATM   25 BR   UNL     1     -34.469  -5.830 -11.094  1.00  0.00    -0.049 Br
ENDBRANCH   4  19
TORSDOF 6
BEGIN_RES ARG D 557
REMARK  4 active torsions:
REMARK  status: ('A' for Active; 'I' for Inactive)
REMARK    1  A    between atoms: CA   and  CB  
REMARK    2  A    between atoms: CB   and  CG  
REMARK    3  A    between atoms: CG   and  CD  
REMARK    4  A    between atoms: CD   and  NE  
REMARK       I    between atoms: NE   and  CZ  
REMARK       I    between atoms: CZ   and  NH1 
REMARK       I    between atoms: CZ   and  NH2 
ROOT
ATOM      1  CA  ARG D 557     -26.217   2.705 -17.014  1.00 35.49     0.159 C 
ENDROOT
BRANCH   1   2
ATOM      2  CB  ARG D 557     -26.789   1.319 -17.183  1.00 35.49     0.034 C 
BRANCH   2   3
ATOM      3  CG  ARG D 557     -25.836   0.203 -17.150  1.00 35.49     0.027 C 
BRANCH   3   4
ATOM      4  CD  ARG D 557     -24.780   0.392 -16.130  1.00 35.49     0.116 C 
BRANCH   4   5
ATOM      5  NE  ARG D 557     -24.954  -0.483 -15.000  1.00 35.49    -0.212 N 
ATOM      6  CZ  ARG D 557     -24.145  -1.458 -14.653  1.00 35.49     0.666 C 
ATOM      7  NH1 ARG D 557     -23.056  -1.755 -15.338  1.00 35.49    -0.235 N 
ATOM      8  NH2 ARG D 557     -24.448  -2.138 -13.585  1.00 35.49    -0.235 N 
ATOM      9  HH  ARG D 557     -22.836  -1.320 -16.042  1.00 35.49     0.174 HD
ATOM     10  HH  ARG D 557     -22.564  -2.400 -15.062  1.00 35.49     0.174 HD
ATOM     11  HH  ARG D 557     -25.153  -1.919 -13.158  1.00 35.49     0.174 HD
ATOM     12  HH  ARG D 557     -23.947  -2.772 -13.327  1.00 35.49     0.174 HD
ATOM     13  HE  ARG D 557     -25.668  -0.410 -14.545  1.00 35.49     0.178 HD
ENDBRANCH   4   5
ENDBRANCH   3   4
ENDBRANCH   2   3
ENDBRANCH   1   2
END_RES ARG D 557
BEGIN_RES GLU D 570
REMARK  3 active torsions:
REMARK  status: ('A' for Active; 'I' for Inactive)
REMARK    5  A    between atoms: CA   and  CB  
REMARK    6  A    between atoms: CB   and  CG  
REMARK    7  A    between atoms: CG   and  CD  
ROOT
ATOM     14  CA  GLU D 570     -18.033  -6.348 -13.375  1.00 32.92     0.160 C 
ENDROOT
BRANCH  14  15
ATOM     15  CB  GLU D 570     -19.500  -6.345 -13.794  1.00 32.92     0.043 C 
BRANCH  15  16
ATOM     16  CG  GLU D 570     -20.447  -5.554 -12.966  1.00 32.92     0.100 C 
BRANCH  16  17
ATOM     17  CD  GLU D 570     -21.740  -5.244 -13.684  1.00 32.92     0.185 C 
ATOM     18  OE1 GLU D 570     -22.278  -4.134 -13.509  1.00 32.92    -0.647 OA
ATOM     19  OE2 GLU D 570     -22.229  -6.128 -14.415  1.00 32.92    -0.647 OA
ENDBRANCH  16  17
ENDBRANCH  15  16
ENDBRANCH  14  15
END_RES GLU D 570
ENDMDL
MODEL 6
REMARK VINA RESULT:      -7.7      2.641      4.098
REMARK  6 active torsions:
REMARK  status: ('A' for Active; 'I' for Inactive)
REMARK    1  A    between atoms: C_2  and  N_3 
REMARK    2  A    between atoms: N_3  and  C_4 
REMARK    3  A    between atoms: N_3  and  C_17 
REMARK    4  A    between atoms: C_4  and  C_5 
REMARK    5  A    between atoms: C_5  and  N_6 
REMARK       I    between atoms: N_6  and  C_7 
REMARK       I    between atoms: C_7  and  N_9 
REMARK    6  A    between atoms: N_9  and  C_10 
ROOT
HETATM    1  N   UNL     1     -21.933  -7.098  -1.799  1.00  0.00    -0.341 N 
HETATM    2  C   UNL     1     -21.832  -8.463  -1.639  1.00  0.00     0.320 C 
HETATM    3  O   UNL     1     -21.105  -9.156  -2.342  1.00  0.00    -0.247 OA
HETATM    4  N   UNL     1     -22.687  -8.930  -0.665  1.00  0.00    -0.308 N 
HETATM    5  H   UNL     1     -22.009  -6.594  -0.923  1.00  0.00     0.164 HD
HETATM    6  H   UNL     1     -23.553  -8.408  -0.601  1.00  0.00     0.170 HD
ENDROOT
BRANCH   1   7
HETATM    7  C   UNL     1     -21.163  -6.457  -2.860  1.00  0.00     0.144 C 
BRANCH   7   8
HETATM    8  C   UNL     1     -21.948  -6.328  -4.186  1.00  0.00     0.142 C 
BRANCH   8   9
HETATM    9  N   UNL     1     -21.162  -6.795  -5.342  1.00  0.00    -0.380 N 
BRANCH   9  10
HETATM   10  C   UNL     1     -20.837  -8.225  -5.502  1.00  0.00     0.118 C 
HETATM   11  C   UNL     1     -19.415  -8.663  -5.205  1.00  0.00     0.026 C 
ENDBRANCH   9  10
BRANCH   9  12
HETATM   12  C   UNL     1     -20.786  -5.914  -6.368  1.00  0.00     0.030 A 
HETATM   13  C   UNL     1     -19.538  -5.263  -6.363  1.00  0.00     0.029 A 
HETATM   14  C   UNL     1     -19.143  -4.370  -7.368  1.00  0.00     0.003 A 
HETATM   15  C   UNL     1     -19.997  -4.095  -8.426  1.00  0.00     0.007 A 
HETATM   16  C   UNL     1     -21.241  -4.718  -8.485  1.00  0.00    -0.060 A 
HETATM   17  C   UNL     1     -22.182  -4.440  -9.621  1.00  0.00     0.048 C 
HETATM   18  C   UNL     1     -21.618  -5.612  -7.462  1.00  0.00     0.036 A 
ENDBRANCH   9  12
ENDBRANCH   8   9
ENDBRANCH   7   8
ENDBRANCH   1   7
BRANCH   4  19
HETATM   19  C   UNL     1     -22.781 -10.314  -0.382  1.00  0.00     0.053 A 
HETATM   20  C   UNL     1     -23.794 -11.086  -0.965  1.00  0.00     0.031 A 
HETATM   21  C   UNL     1     -23.922 -12.441  -0.656  1.00  0.00     0.002 A 
HETATM   22  C   UNL     1     -23.034 -13.038   0.233  1.00  0.00     0.002 A 
HETATM   23  C   UNL     1     -22.003 -12.287   0.800  1.00  0.00     0.021 A 
HETATM   24  C   UNL     1     -21.864 -10.933   0.478  1.00  0.00     0.037 A 
HETATM   25 BR   UNL     1     -20.481  -9.947   1.330  1.00  0.00    -0.049 Br
ENDBRANCH   4  19
TORSDOF 6
BEGIN_RES ARG D 557
REMARK  4 active torsions:
REMARK  status: ('A' for Active; 'I' for Inactive)
REMARK    1  A    between atoms: CA   and  CB  
REMARK    2  A    between atoms: CB   and  CG  
REMARK    3  A    between atoms: CG   and  CD  
REMARK    4  A    between atoms: CD   and  NE  
REMARK       I    between atoms: NE   and  CZ  
REMARK       I    between atoms: CZ   and  NH1 
REMARK       I    between atoms: CZ   and  NH2 
ROOT
ATOM      1  CA  ARG D 557     -26.217   2.705 -17.014  1.00 35.49     0.159 C 
ENDROOT
BRANCH   1   2
ATOM      2  CB  ARG D 557     -26.789   1.319 -17.183  1.00 35.49     0.034 C 
BRANCH   2   3
ATOM      3  CG  ARG D 557     -25.836   0.203 -17.152  1.00 35.49     0.027 C 
BRANCH   3   4
ATOM      4  CD  ARG D 557     -24.752   0.413 -16.166  1.00 35.49     0.116 C 
BRANCH   4   5
ATOM      5  NE  ARG D 557     -24.893  -0.439 -15.015  1.00 35.49    -0.212 N 
ATOM      6  CZ  ARG D 557     -24.070  -1.403 -14.667  1.00 35.49     0.666 C 
ATOM      7  NH1 ARG D 557     -22.997  -1.708 -15.374  1.00 35.49    -0.235 N 
ATOM      8  NH2 ARG D 557     -24.343  -2.062 -13.579  1.00 35.49    -0.235 N 
ATOM      9  HH  ARG D 557     -22.797  -1.287 -16.092  1.00 35.49     0.174 HD
ATOM     10  HH  ARG D 557     -22.495  -2.345 -15.097  1.00 35.49     0.174 HD
ATOM     11  HH  ARG D 557     -25.038  -1.838 -13.139  1.00 35.49     0.174 HD
ATOM     12  HH  ARG D 557     -23.833  -2.688 -13.320  1.00 35.49     0.174 HD
ATOM     13  HE  ARG D 557     -25.596  -0.360 -14.543  1.00 35.49     0.178 HD
ENDBRANCH   4   5
ENDBRANCH   3   4
ENDBRANCH   2   3
ENDBRANCH   1   2
END_RES ARG D 557
BEGIN_RES GLU D 570
REMARK  3 active torsions:
REMARK  status: ('A' for Active; 'I' for Inactive)
REMARK    5  A    between atoms: CA   and  CB  
REMARK    6  A    between atoms: CB   and  CG  
REMARK    7  A    between atoms: CG   and  CD  
ROOT
ATOM     14  CA  GLU D 570     -18.033  -6.348 -13.375  1.00 32.92     0.160 C 
ENDROOT
BRANCH  14  15
ATOM     15  CB  GLU D 570     -19.500  -6.345 -13.794  1.00 32.92     0.043 C 
BRANCH  15  16
ATOM     16  CG  GLU D 570     -20.447  -5.557 -12.964  1.00 32.92     0.100 C 
BRANCH  16  17
ATOM     17  CD  GLU D 570     -21.738  -5.241 -13.683  1.00 32.92     0.185 C 
ATOM     18  OE1 GLU D 570     -22.222  -6.088 -14.458  1.00 32.92    -0.647 OA
ATOM     19  OE2 GLU D 570     -22.263  -4.128 -13.481  1.00 32.92    -0.647 OA
ENDBRANCH  16  17
ENDBRANCH  15  16
ENDBRANCH  14  15
END_RES GLU D 570
ENDMDL
MODEL 7
REMARK VINA RESULT:      -7.4      2.599      8.255
REMARK  6 active torsions:
REMARK  status: ('A' for Active; 'I' for Inactive)
REMARK    1  A    between atoms: C_2  and  N_3 
REMARK    2  A    between atoms: N_3  and  C_4 
REMARK    3  A    between atoms: N_3  and  C_17 
REMARK    4  A    between atoms: C_4  and  C_5 
REMARK    5  A    between atoms: C_5  and  N_6 
REMARK       I    between atoms: N_6  and  C_7 
REMARK       I    between atoms: C_7  and  N_9 
REMARK    6  A    between atoms: N_9  and  C_10 
ROOT
HETATM    1  N   UNL     1     -21.090  -6.798  -4.095  1.00  0.00    -0.341 N 
HETATM    2  C   UNL     1     -21.366  -6.553  -5.423  1.00  0.00     0.320 C 
HETATM    3  O   UNL     1     -21.293  -7.425  -6.282  1.00  0.00    -0.247 OA
HETATM    4  N   UNL     1     -21.650  -5.224  -5.651  1.00  0.00    -0.308 N 
HETATM    5  H   UNL     1     -21.705  -6.307  -3.458  1.00  0.00     0.164 HD
HETATM    6  H   UNL     1     -21.142  -4.591  -5.045  1.00  0.00     0.170 HD
ENDROOT
BRANCH   1   7
HETATM    7  C   UNL     1     -20.672  -8.140  -3.701  1.00  0.00     0.144 C 
BRANCH   7   8
HETATM    8  C   UNL     1     -21.822  -8.980  -3.097  1.00  0.00     0.142 C 
BRANCH   8   9
HETATM    9  N   UNL     1     -21.700  -9.113  -1.634  1.00  0.00    -0.380 N 
BRANCH   9  10
HETATM   10  C   UNL     1     -21.212  -7.987  -0.814  1.00  0.00     0.118 C 
HETATM   11  C   UNL     1     -21.843  -7.783   0.550  1.00  0.00     0.026 C 
ENDBRANCH   9  10
BRANCH   9  12
HETATM   12  C   UNL     1     -22.134 -10.272  -0.972  1.00  0.00     0.030 A 
HETATM   13  C   UNL     1     -23.491 -10.484  -0.663  1.00  0.00     0.029 A 
HETATM   14  C   UNL     1     -23.948 -11.625   0.008  1.00  0.00     0.003 A 
HETATM   15  C   UNL     1     -23.049 -12.607   0.399  1.00  0.00     0.007 A 
HETATM   16  C   UNL     1     -21.695 -12.453   0.112  1.00  0.00    -0.060 A 
HETATM   17  C   UNL     1     -20.703 -13.502   0.520  1.00  0.00     0.048 C 
HETATM   18  C   UNL     1     -21.257 -11.295  -0.564  1.00  0.00     0.036 A 
ENDBRANCH   9  12
ENDBRANCH   8   9
ENDBRANCH   7   8
ENDBRANCH   1   7
BRANCH   4  19
HETATM   19  C   UNL     1     -21.907  -4.749  -6.960  1.00  0.00     0.053 A 
HETATM   20  C   UNL     1     -23.225  -4.579  -7.402  1.00  0.00     0.031 A 
HETATM   21  C   UNL     1     -23.487  -4.156  -8.706  1.00  0.00     0.002 A 
HETATM   22  C   UNL     1     -22.435  -3.890  -9.576  1.00  0.00     0.002 A 
HETATM   23  C   UNL     1     -21.116  -4.029  -9.140  1.00  0.00     0.021 A 
HETATM   24  C   UNL     1     -20.852  -4.437  -7.828  1.00  0.00     0.037 A 
HETATM   25 BR   UNL     1     -19.038  -4.670  -7.311  1.00  0.00    -0.049 Br
ENDBRANCH   4  19
TORSDOF 6
BEGIN_RES ARG D 557
REMARK  4 active torsions:
REMARK  status: ('A' for Active; 'I' for Inactive)
REMARK    1  A    between atoms: CA   and  CB  
REMARK    2  A    between atoms: CB   and  CG  
REMARK    3  A    between atoms: CG   and  CD  
REMARK    4  A    between atoms: CD   and  NE  
REMARK       I    between atoms: NE   and  CZ  
REMARK       I    between atoms: CZ   and  NH1 
REMARK       I    between atoms: CZ   and  NH2 
ROOT
ATOM      1  CA  ARG D 557     -26.217   2.705 -17.014  1.00 35.49     0.159 C 
ENDROOT
BRANCH   1   2
ATOM      2  CB  ARG D 557     -26.789   1.319 -17.183  1.00 35.49     0.034 C 
BRANCH   2   3
ATOM      3  CG  ARG D 557     -25.838   0.202 -17.135  1.00 35.49     0.027 C 
BRANCH   3   4
ATOM      4  CD  ARG D 557     -24.751   0.428 -16.155  1.00 35.49     0.116 C 
BRANCH   4   5
ATOM      5  NE  ARG D 557     -24.860  -0.441 -15.013  1.00 35.49    -0.212 N 
ATOM      6  CZ  ARG D 557     -24.022  -1.403 -14.697  1.00 35.49     0.666 C 
ATOM      7  NH1 ARG D 557     -22.963  -1.691 -15.431  1.00 35.49    -0.235 N 
ATOM      8  NH2 ARG D 557     -24.266  -2.079 -13.612  1.00 35.49    -0.235 N 
ATOM      9  HH  ARG D 557     -22.782  -1.257 -16.148  1.00 35.49     0.174 HD
ATOM     10  HH  ARG D 557     -22.450  -2.327 -15.174  1.00 35.49     0.174 HD
ATOM     11  HH  ARG D 557     -24.954  -1.867 -13.154  1.00 35.49     0.174 HD
ATOM     12  HH  ARG D 557     -23.746  -2.705 -13.374  1.00 35.49     0.174 HD
ATOM     13  HE  ARG D 557     -25.553  -0.374 -14.525  1.00 35.49     0.178 HD
ENDBRANCH   4   5
ENDBRANCH   3   4
ENDBRANCH   2   3
ENDBRANCH   1   2
END_RES ARG D 557
BEGIN_RES GLU D 570
REMARK  3 active torsions:
REMARK  status: ('A' for Active; 'I' for Inactive)
REMARK    5  A    between atoms: CA   and  CB  
REMARK    6  A    between atoms: CB   and  CG  
REMARK    7  A    between atoms: CG   and  CD  
ROOT
ATOM     14  CA  GLU D 570     -18.033  -6.348 -13.375  1.00 32.92     0.160 C 
ENDROOT
BRANCH  14  15
ATOM     15  CB  GLU D 570     -19.500  -6.345 -13.794  1.00 32.92     0.043 C 
BRANCH  15  16
ATOM     16  CG  GLU D 570     -19.807  -6.013 -15.209  1.00 32.92     0.100 C 
BRANCH  16  17
ATOM     17  CD  GLU D 570     -21.130  -5.301 -15.374  1.00 32.92     0.185 C 
ATOM     18  OE1 GLU D 570     -21.531  -5.027 -16.521  1.00 32.92    -0.647 OA
ATOM     19  OE2 GLU D 570     -21.764  -5.000 -14.343  1.00 32.92    -0.647 OA
ENDBRANCH  16  17
ENDBRANCH  15  16
ENDBRANCH  14  15
END_RES GLU D 570
ENDMDL
MODEL 8
REMARK VINA RESULT:      -7.2      8.072     13.994
REMARK  6 active torsions:
REMARK  status: ('A' for Active; 'I' for Inactive)
REMARK    1  A    between atoms: C_2  and  N_3 
REMARK    2  A    between atoms: N_3  and  C_4 
REMARK    3  A    between atoms: N_3  and  C_17 
REMARK    4  A    between atoms: C_4  and  C_5 
REMARK    5  A    between atoms: C_5  and  N_6 
REMARK       I    between atoms: N_6  and  C_7 
REMARK       I    between atoms: C_7  and  N_9 
REMARK    6  A    between atoms: N_9  and  C_10 
ROOT
HETATM    1  N   UNL     1     -34.014  -3.323 -16.286  1.00  0.00    -0.341 N 
HETATM    2  C   UNL     1     -32.790  -3.577 -16.866  1.00  0.00     0.320 C 
HETATM    3  O   UNL     1     -32.343  -2.897 -17.783  1.00  0.00    -0.247 OA
HETATM    4  N   UNL     1     -32.197  -4.705 -16.340  1.00  0.00    -0.308 N 
HETATM    5  H   UNL     1     -34.023  -3.466 -15.283  1.00  0.00     0.164 HD
HETATM    6  H   UNL     1     -32.860  -5.420 -16.064  1.00  0.00     0.170 HD
ENDROOT
BRANCH   1   7
HETATM    7  C   UNL     1     -34.818  -2.218 -16.799  1.00  0.00     0.144 C 
BRANCH   7   8
HETATM    8  C   UNL     1     -35.916  -1.757 -15.812  1.00  0.00     0.142 C 
BRANCH   8   9
HETATM    9  N   UNL     1     -35.389  -0.834 -14.791  1.00  0.00    -0.380 N 
BRANCH   9  10
HETATM   10  C   UNL     1     -34.856   0.488 -15.174  1.00  0.00     0.118 C 
HETATM   11  C   UNL     1     -35.841   1.528 -15.673  1.00  0.00     0.026 C 
ENDBRANCH   9  10
BRANCH   9  12
HETATM   12  C   UNL     1     -35.467  -1.142 -13.424  1.00  0.00     0.030 A 
HETATM   13  C   UNL     1     -36.355  -0.468 -12.563  1.00  0.00     0.029 A 
HETATM   14  C   UNL     1     -36.444  -0.748 -11.194  1.00  0.00     0.003 A 
HETATM   15  C   UNL     1     -35.635  -1.724 -10.630  1.00  0.00     0.007 A 
HETATM   16  C   UNL     1     -34.744  -2.428 -11.437  1.00  0.00    -0.060 A 
HETATM   17  C   UNL     1     -33.862  -3.492 -10.854  1.00  0.00     0.048 C 
HETATM   18  C   UNL     1     -34.671  -2.129 -12.814  1.00  0.00     0.036 A 
ENDBRANCH   9  12
ENDBRANCH   8   9
ENDBRANCH   7   8
ENDBRANCH   1   7
BRANCH   4  19
HETATM   19  C   UNL     1     -30.958  -5.174 -16.838  1.00  0.00     0.053 A 
HETATM   20  C   UNL     1     -29.780  -4.461 -16.582  1.00  0.00     0.031 A 
HETATM   21  C   UNL     1     -28.561  -4.892 -17.108  1.00  0.00     0.002 A 
HETATM   22  C   UNL     1     -28.507  -6.044 -17.886  1.00  0.00     0.002 A 
HETATM   23  C   UNL     1     -29.669  -6.780 -18.124  1.00  0.00     0.021 A 
HETATM   24  C   UNL     1     -30.888  -6.358 -17.585  1.00  0.00     0.037 A 
HETATM   25 BR   UNL     1     -32.447  -7.365 -17.997  1.00  0.00    -0.049 Br
ENDBRANCH   4  19
TORSDOF 6
BEGIN_RES ARG D 557
REMARK  4 active torsions:
REMARK  status: ('A' for Active; 'I' for Inactive)
REMARK    1  A    between atoms: CA   and  CB  
REMARK    2  A    between atoms: CB   and  CG  
REMARK    3  A    between atoms: CG   and  CD  
REMARK    4  A    between atoms: CD   and  NE  
REMARK       I    between atoms: NE   and  CZ  
REMARK       I    between atoms: CZ   and  NH1 
REMARK       I    between atoms: CZ   and  NH2 
ROOT
ATOM      1  CA  ARG D 557     -26.217   2.705 -17.014  1.00 35.49     0.159 C 
ENDROOT
BRANCH   1   2
ATOM      2  CB  ARG D 557     -26.789   1.319 -17.183  1.00 35.49     0.034 C 
BRANCH   2   3
ATOM      3  CG  ARG D 557     -25.864   0.195 -16.994  1.00 35.49     0.027 C 
BRANCH   3   4
ATOM      4  CD  ARG D 557     -26.287  -0.707 -15.899  1.00 35.49     0.116 C 
BRANCH   4   5
ATOM      5  NE  ARG D 557     -25.231  -0.940 -14.950  1.00 35.49    -0.212 N 
ATOM      6  CZ  ARG D 557     -24.971  -2.083 -14.355  1.00 35.49     0.666 C 
ATOM      7  NH1 ARG D 557     -25.688  -3.171 -14.566  1.00 35.49    -0.235 N 
ATOM      8  NH2 ARG D 557     -23.958  -2.118 -13.538  1.00 35.49    -0.235 N 
ATOM      9  HH  ARG D 557     -26.358  -3.171 -15.101  1.00 35.49     0.174 HD
ATOM     10  HH  ARG D 557     -25.470  -3.889 -14.152  1.00 35.49     0.174 HD
ATOM     11  HH  ARG D 557     -23.508  -1.402 -13.428  1.00 35.49     0.174 HD
ATOM     12  HH  ARG D 557     -23.757  -2.839 -13.139  1.00 35.49     0.174 HD
ATOM     13  HE  ARG D 557     -24.764  -0.275 -14.700  1.00 35.49     0.178 HD
ENDBRANCH   4   5
ENDBRANCH   3   4
ENDBRANCH   2   3
ENDBRANCH   1   2
END_RES ARG D 557
BEGIN_RES GLU D 570
REMARK  3 active torsions:
REMARK  status: ('A' for Active; 'I' for Inactive)
REMARK    5  A    between atoms: CA   and  CB  
REMARK    6  A    between atoms: CB   and  CG  
REMARK    7  A    between atoms: CG   and  CD  
ROOT
ATOM     14  CA  GLU D 570     -18.033  -6.348 -13.375  1.00 32.92     0.160 C 
ENDROOT
BRANCH  14  15
ATOM     15  CB  GLU D 570     -19.500  -6.345 -13.794  1.00 32.92     0.043 C 
BRANCH  15  16
ATOM     16  CG  GLU D 570     -20.437  -5.511 -12.998  1.00 32.92     0.100 C 
BRANCH  16  17
ATOM     17  CD  GLU D 570     -21.685  -5.135 -13.762  1.00 32.92     0.185 C 
ATOM     18  OE1 GLU D 570     -21.614  -4.970 -14.995  1.00 32.92    -0.647 OA
ATOM     19  OE2 GLU D 570     -22.743  -4.987 -13.119  1.00 32.92    -0.647 OA
ENDBRANCH  16  17
ENDBRANCH  15  16
ENDBRANCH  14  15
END_RES GLU D 570
ENDMDL
MODEL 9
REMARK VINA RESULT:      -7.2      4.054      7.580
REMARK  6 active torsions:
REMARK  status: ('A' for Active; 'I' for Inactive)
REMARK    1  A    between atoms: C_2  and  N_3 
REMARK    2  A    between atoms: N_3  and  C_4 
REMARK    3  A    between atoms: N_3  and  C_17 
REMARK    4  A    between atoms: C_4  and  C_5 
REMARK    5  A    between atoms: C_5  and  N_6 
REMARK       I    between atoms: N_6  and  C_7 
REMARK       I    between atoms: C_7  and  N_9 
REMARK    6  A    between atoms: N_9  and  C_10 
ROOT
HETATM    1  N   UNL     1     -18.475 -11.233  -0.585  1.00  0.00    -0.341 N 
HETATM    2  C   UNL     1     -18.157 -11.333  -1.922  1.00  0.00     0.320 C 
HETATM    3  O   UNL     1     -18.873 -11.920  -2.726  1.00  0.00    -0.247 OA
HETATM    4  N   UNL     1     -16.932 -10.769  -2.202  1.00  0.00    -0.308 N 
HETATM    5  H   UNL     1     -18.240 -10.334  -0.181  1.00  0.00     0.164 HD
HETATM    6  H   UNL     1     -16.263 -10.855  -1.445  1.00  0.00     0.170 HD
ENDROOT
BRANCH   1   7
HETATM    7  C   UNL     1     -19.699 -11.869  -0.105  1.00  0.00     0.144 C 
BRANCH   7   8
HETATM    8  C   UNL     1     -20.761 -10.854   0.378  1.00  0.00     0.142 C 
BRANCH   8   9
HETATM    9  N   UNL     1     -21.702 -10.487  -0.694  1.00  0.00    -0.380 N 
BRANCH   9  10
HETATM   10  C   UNL     1     -22.693 -11.460  -1.193  1.00  0.00     0.118 C 
HETATM   11  C   UNL     1     -24.104 -11.375  -0.644  1.00  0.00     0.026 C 
ENDBRANCH   9  10
BRANCH   9  12
HETATM   12  C   UNL     1     -21.750  -9.179  -1.202  1.00  0.00     0.030 A 
HETATM   13  C   UNL     1     -22.274  -8.111  -0.448  1.00  0.00     0.029 A 
HETATM   14  C   UNL     1     -22.345  -6.800  -0.936  1.00  0.00     0.003 A 
HETATM   15  C   UNL     1     -21.887  -6.509  -2.213  1.00  0.00     0.007 A 
HETATM   16  C   UNL     1     -21.352  -7.526  -3.000  1.00  0.00    -0.060 A 
HETATM   17  C   UNL     1     -20.846  -7.237  -4.382  1.00  0.00     0.048 C 
HETATM   18  C   UNL     1     -21.291  -8.839  -2.488  1.00  0.00     0.036 A 
ENDBRANCH   9  12
ENDBRANCH   8   9
ENDBRANCH   7   8
ENDBRANCH   1   7
BRANCH   4  19
HETATM   19  C   UNL     1     -16.390 -10.815  -3.509  1.00  0.00     0.053 A 
HETATM   20  C   UNL     1     -16.795  -9.883  -4.473  1.00  0.00     0.031 A 
HETATM   21  C   UNL     1     -16.301  -9.950  -5.776  1.00  0.00     0.002 A 
HETATM   22  C   UNL     1     -15.392 -10.943  -6.126  1.00  0.00     0.002 A 
HETATM   23  C   UNL     1     -14.959 -11.861  -5.168  1.00  0.00     0.021 A 
HETATM   24  C   UNL     1     -15.441 -11.785  -3.857  1.00  0.00     0.037 A 
HETATM   25 BR   UNL     1     -14.864 -13.101  -2.613  1.00  0.00    -0.049 Br
ENDBRANCH   4  19
TORSDOF 6
BEGIN_RES ARG D 557
REMARK  4 active torsions:
REMARK  status: ('A' for Active; 'I' for Inactive)
REMARK    1  A    between atoms: CA   and  CB  
REMARK    2  A    between atoms: CB   and  CG  
REMARK    3  A    between atoms: CG   and  CD  
REMARK    4  A    between atoms: CD   and  NE  
REMARK       I    between atoms: NE   and  CZ  
REMARK       I    between atoms: CZ   and  NH1 
REMARK       I    between atoms: CZ   and  NH2 
ROOT
ATOM      1  CA  ARG D 557     -26.217   2.705 -17.014  1.00 35.49     0.159 C 
ENDROOT
BRANCH   1   2
ATOM      2  CB  ARG D 557     -26.789   1.319 -17.183  1.00 35.49     0.034 C 
BRANCH   2   3
ATOM      3  CG  ARG D 557     -25.863   0.195 -17.000  1.00 35.49     0.027 C 
BRANCH   3   4
ATOM      4  CD  ARG D 557     -26.257  -0.684 -15.876  1.00 35.49     0.116 C 
BRANCH   4   5
ATOM      5  NE  ARG D 557     -25.184  -0.878 -14.937  1.00 35.49    -0.212 N 
ATOM      6  CZ  ARG D 557     -24.861  -2.015 -14.363  1.00 35.49     0.666 C 
ATOM      7  NH1 ARG D 557     -25.523  -3.135 -14.587  1.00 35.49    -0.235 N 
ATOM      8  NH2 ARG D 557     -23.843  -2.011 -13.552  1.00 35.49    -0.235 N 
ATOM      9  HH  ARG D 557     -26.195  -3.162 -15.118  1.00 35.49     0.174 HD
ATOM     10  HH  ARG D 557     -25.265  -3.848 -14.187  1.00 35.49     0.174 HD
ATOM     11  HH  ARG D 557     -23.430  -1.275 -13.432  1.00 35.49     0.174 HD
ATOM     12  HH  ARG D 557     -23.602  -2.727 -13.166  1.00 35.49     0.174 HD
ATOM     13  HE  ARG D 557     -24.750  -0.193 -14.679  1.00 35.49     0.178 HD
ENDBRANCH   4   5
ENDBRANCH   3   4
ENDBRANCH   2   3
ENDBRANCH   1   2
END_RES ARG D 557
BEGIN_RES GLU D 570
REMARK  3 active torsions:
REMARK  status: ('A' for Active; 'I' for Inactive)
REMARK    5  A    between atoms: CA   and  CB  
REMARK    6  A    between atoms: CB   and  CG  
REMARK    7  A    between atoms: CG   and  CD  
ROOT
ATOM     14  CA  GLU D 570     -18.033  -6.348 -13.375  1.00 32.92     0.160 C 
ENDROOT
BRANCH  14  15
ATOM     15  CB  GLU D 570     -19.500  -6.345 -13.794  1.00 32.92     0.043 C 
BRANCH  15  16
ATOM     16  CG  GLU D 570     -20.448  -5.562 -12.960  1.00 32.92     0.100 C 
BRANCH  16  17
ATOM     17  CD  GLU D 570     -21.693  -5.150 -13.712  1.00 32.92     0.185 C 
ATOM     18  OE1 GLU D 570     -21.667  -5.126 -14.958  1.00 32.92    -0.647 OA
ATOM     19  OE2 GLU D 570     -22.699  -4.832 -13.048  1.00 32.92    -0.647 OA
ENDBRANCH  16  17
ENDBRANCH  15  16
ENDBRANCH  14  15
END_RES GLU D 570
ENDMDL
