MODEL 1
REMARK VINA RESULT:      -8.4      0.000      0.000
REMARK  22 active torsions:
REMARK  status: ('A' for Active; 'I' for Inactive)
REMARK    1  A    between atoms: C_2  and  C_3 
REMARK    2  A    between atoms: C_3  and  C_4 
REMARK    3  A    between atoms: C_4  and  C_5 
REMARK    4  A    between atoms: C_5  and  C_6 
REMARK    5  A    between atoms: C_6  and  C_7 
REMARK    6  A    between atoms: C_7  and  C_8 
REMARK    7  A    between atoms: C_7  and  C_31 
REMARK    8  A    between atoms: C_8  and  C_9 
REMARK    9  A    between atoms: C_10  and  C_11 
REMARK   10  A    between atoms: C_11  and  C_12 
REMARK   11  A    between atoms: C_12  and  C_13 
REMARK   12  A    between atoms: C_13  and  C_14 
REMARK   13  A    between atoms: C_14  and  C_15 
REMARK   14  A    between atoms: C_15  and  C_16 
REMARK   15  A    between atoms: C_16  and  C_17 
REMARK   16  A    between atoms: C_17  and  C_18 
REMARK       I    between atoms: C_18  and  N_20 
REMARK   17  A    between atoms: N_20  and  C_21 
REMARK   18  A    between atoms: C_21  and  C_22 
REMARK   19  A    between atoms: C_25  and  O_26 
REMARK   20  A    between atoms: C_27  and  O_28 
REMARK   21  A    between atoms: C_31  and  C_33 
REMARK   22  A    between atoms: C_33  and  C_34 
ROOT
HETATM    1  C   UNL     1     -21.662  -8.804   0.650  1.00  0.00     0.004 C 
ENDROOT
BRANCH   1   2
HETATM    2  C   UNL     1     -20.603  -9.805   1.100  1.00  0.00     0.027 C 
BRANCH   2   3
HETATM    3  C   UNL     1     -20.488 -10.992   0.197  1.00  0.00    -0.031 C 
HETATM    4  C   UNL     1     -19.432 -11.172  -0.605  1.00  0.00    -0.030 C 
BRANCH   4   5
HETATM    5  C   UNL     1     -19.385 -12.184  -1.710  1.00  0.00     0.039 C 
BRANCH   5   6
HETATM    6  C   UNL     1     -19.340 -11.510  -3.097  1.00  0.00     0.059 C 
BRANCH   6   7
HETATM    7  C   UNL     1     -19.411  -9.963  -3.026  1.00  0.00     0.012 C 
BRANCH   7   8
HETATM    8  C   UNL     1     -18.212  -9.206  -3.596  1.00  0.00     0.001 C 
BRANCH   8   9
HETATM    9  C   UNL     1     -16.883  -9.613  -2.962  1.00  0.00     0.000 C 
BRANCH   9  10
HETATM   10  C   UNL     1     -15.782  -9.634  -4.021  1.00  0.00    -0.000 C 
BRANCH  10  11
HETATM   11  C   UNL     1     -16.335  -9.947  -5.407  1.00  0.00    -0.005 C 
HETATM   12  C   UNL     1     -16.090 -11.403  -5.769  1.00  0.00     0.005 C 
ENDBRANCH  10  11
ENDBRANCH   9  10
ENDBRANCH   8   9
ENDBRANCH   7   8
ENDBRANCH   6   7
BRANCH   6  13
HETATM   13  C   UNL     1     -20.471 -12.023  -4.008  1.00  0.00     0.135 C 
HETATM   14  O   UNL     1     -20.314 -13.001  -4.749  1.00  0.00    -0.297 OA
BRANCH  13  15
HETATM   15  C   UNL     1     -21.827 -11.347  -3.935  1.00  0.00     0.117 C 
BRANCH  15  16
HETATM   16  C   UNL     1     -22.647 -11.780  -2.746  1.00  0.00    -0.051 A 
HETATM   17  C   UNL     1     -22.684 -13.124  -2.356  1.00  0.00     0.007 A 
HETATM   18  C   UNL     1     -23.394 -13.508  -1.218  1.00  0.00     0.001 A 
HETATM   19  C   UNL     1     -24.067 -12.553  -0.457  1.00  0.00     0.000 A 
HETATM   20  C   UNL     1     -24.043 -11.216  -0.843  1.00  0.00     0.001 A 
HETATM   21  C   UNL     1     -23.339 -10.829  -1.982  1.00  0.00     0.007 A 
ENDBRANCH  15  16
ENDBRANCH  13  15
ENDBRANCH   6  13
ENDBRANCH   5   6
ENDBRANCH   4   5
ENDBRANCH   2   3
ENDBRANCH   1   2
BRANCH   1  22
HETATM   22  C   UNL     1     -21.268  -8.112  -0.658  1.00  0.00     0.000 C 
BRANCH  22  23
HETATM   23  C   UNL     1     -22.319  -7.096  -1.096  1.00  0.00     0.000 C 
BRANCH  23  24
HETATM   24  C   UNL     1     -21.860  -6.251  -2.272  1.00  0.00     0.000 C 
BRANCH  24  25
HETATM   25  C   UNL     1     -21.625  -7.155  -3.482  1.00  0.00     0.009 C 
BRANCH  25  26
HETATM   26  C   UNL     1     -21.556  -6.320  -4.746  1.00  0.00     0.103 C 
BRANCH  26  27
HETATM   27  C   UNL     1     -21.155  -7.123  -5.963  1.00  0.00     0.217 C 
HETATM   28  O   UNL     1     -21.051  -8.348  -5.976  1.00  0.00    -0.274 OA
HETATM   29  N   UNL     1     -20.904  -6.414  -7.106  1.00  0.00    -0.357 N 
HETATM   30  H   UNL     1     -20.597  -6.982  -7.885  1.00  0.00     0.162 HD
BRANCH  29  31
HETATM   31  C   UNL     1     -20.850  -4.973  -7.231  1.00  0.00     0.161 C 
BRANCH  31  32
HETATM   32  C   UNL     1     -21.111  -4.496  -8.640  1.00  0.00    -0.038 A 
HETATM   33  C   UNL     1     -20.102  -4.510  -9.613  1.00  0.00     0.012 A 
HETATM   34  C   UNL     1     -20.371  -4.099 -10.919  1.00  0.00     0.040 A 
HETATM   35  C   UNL     1     -21.655  -3.680 -11.260  1.00  0.00     0.099 A 
HETATM   36  C   UNL     1     -22.683  -3.649 -10.308  1.00  0.00     0.101 A 
HETATM   37  C   UNL     1     -22.401  -4.063  -9.002  1.00  0.00     0.048 A 
BRANCH  35  38
HETATM   38  O   UNL     1     -21.923  -3.294 -12.547  1.00  0.00    -0.358 OA
HETATM   39  H   UNL     1     -21.865  -2.328 -12.605  1.00  0.00     0.217 HD
ENDBRANCH  35  38
BRANCH  36  40
HETATM   40  O   UNL     1     -23.905  -3.214 -10.748  1.00  0.00    -0.353 OA
HETATM   41  C   UNL     1     -24.974  -3.202  -9.815  1.00  0.00     0.210 C 
ENDBRANCH  36  40
ENDBRANCH  31  32
ENDBRANCH  29  31
ENDBRANCH  26  27
ENDBRANCH  25  26
ENDBRANCH  24  25
ENDBRANCH  23  24
ENDBRANCH  22  23
ENDBRANCH   1  22
TORSDOF 22
BEGIN_RES ARG D 557
REMARK  4 active torsions:
REMARK  status: ('A' for Active; 'I' for Inactive)
REMARK    1  A    between atoms: CA   and  CB  
REMARK    2  A    between atoms: CB   and  CG  
REMARK    3  A    between atoms: CG   and  CD  
REMARK    4  A    between atoms: CD   and  NE  
REMARK       I    between atoms: NE   and  CZ  
REMARK       I    between atoms: CZ   and  NH1 
REMARK       I    between atoms: CZ   and  NH2 
ROOT
ATOM      1  CA  ARG D 557     -26.217   2.705 -17.014  1.00 35.49     0.159 C 
ENDROOT
BRANCH   1   2
ATOM      2  CB  ARG D 557     -26.789   1.319 -17.183  1.00 35.49     0.034 C 
BRANCH   2   3
ATOM      3  CG  ARG D 557     -25.836   0.203 -17.154  1.00 35.49     0.027 C 
BRANCH   3   4
ATOM      4  CD  ARG D 557     -24.775   0.393 -16.139  1.00 35.49     0.116 C 
BRANCH   4   5
ATOM      5  NE  ARG D 557     -24.960  -0.462 -14.996  1.00 35.49    -0.212 N 
ATOM      6  CZ  ARG D 557     -24.162  -1.441 -14.632  1.00 35.49     0.666 C 
ATOM      7  NH1 ARG D 557     -23.076  -1.761 -15.312  1.00 35.49    -0.235 N 
ATOM      8  NH2 ARG D 557     -24.473  -2.100 -13.554  1.00 35.49    -0.235 N 
ATOM      9  HH  ARG D 557     -22.851  -1.340 -16.023  1.00 35.49     0.174 HD
ATOM     10  HH  ARG D 557     -22.592  -2.408 -15.025  1.00 35.49     0.174 HD
ATOM     11  HH  ARG D 557     -25.176  -1.866 -13.131  1.00 35.49     0.174 HD
ATOM     12  HH  ARG D 557     -23.980  -2.736 -13.285  1.00 35.49     0.174 HD
ATOM     13  HE  ARG D 557     -25.673  -0.374 -14.542  1.00 35.49     0.178 HD
ENDBRANCH   4   5
ENDBRANCH   3   4
ENDBRANCH   2   3
ENDBRANCH   1   2
END_RES ARG D 557
BEGIN_RES GLU D 570
REMARK  3 active torsions:
REMARK  status: ('A' for Active; 'I' for Inactive)
REMARK    5  A    between atoms: CA   and  CB  
REMARK    6  A    between atoms: CB   and  CG  
REMARK    7  A    between atoms: CG   and  CD  
ROOT
ATOM     14  CA  GLU D 570     -18.033  -6.348 -13.375  1.00 32.92     0.160 C 
ENDROOT
BRANCH  14  15
ATOM     15  CB  GLU D 570     -19.500  -6.345 -13.794  1.00 32.92     0.043 C 
BRANCH  15  16
ATOM     16  CG  GLU D 570     -19.813  -5.936 -15.188  1.00 32.92     0.100 C 
BRANCH  16  17
ATOM     17  CD  GLU D 570     -21.216  -5.397 -15.343  1.00 32.92     0.185 C 
ATOM     18  OE1 GLU D 570     -21.999  -5.462 -14.376  1.00 32.92    -0.647 OA
ATOM     19  OE2 GLU D 570     -21.540  -4.920 -16.448  1.00 32.92    -0.647 OA
ENDBRANCH  16  17
ENDBRANCH  15  16
ENDBRANCH  14  15
END_RES GLU D 570
ENDMDL
MODEL 2
REMARK VINA RESULT:      -8.0      2.725      5.837
REMARK  22 active torsions:
REMARK  status: ('A' for Active; 'I' for Inactive)
REMARK    1  A    between atoms: C_2  and  C_3 
REMARK    2  A    between atoms: C_3  and  C_4 
REMARK    3  A    between atoms: C_4  and  C_5 
REMARK    4  A    between atoms: C_5  and  C_6 
REMARK    5  A    between atoms: C_6  and  C_7 
REMARK    6  A    between atoms: C_7  and  C_8 
REMARK    7  A    between atoms: C_7  and  C_31 
REMARK    8  A    between atoms: C_8  and  C_9 
REMARK    9  A    between atoms: C_10  and  C_11 
REMARK   10  A    between atoms: C_11  and  C_12 
REMARK   11  A    between atoms: C_12  and  C_13 
REMARK   12  A    between atoms: C_13  and  C_14 
REMARK   13  A    between atoms: C_14  and  C_15 
REMARK   14  A    between atoms: C_15  and  C_16 
REMARK   15  A    between atoms: C_16  and  C_17 
REMARK   16  A    between atoms: C_17  and  C_18 
REMARK       I    between atoms: C_18  and  N_20 
REMARK   17  A    between atoms: N_20  and  C_21 
REMARK   18  A    between atoms: C_21  and  C_22 
REMARK   19  A    between atoms: C_25  and  O_26 
REMARK   20  A    between atoms: C_27  and  O_28 
REMARK   21  A    between atoms: C_31  and  C_33 
REMARK   22  A    between atoms: C_33  and  C_34 
ROOT
HETATM    1  C   UNL     1     -21.812  -4.112  -7.280  1.00  0.00     0.004 C 
ENDROOT
BRANCH   1   2
HETATM    2  C   UNL     1     -20.619  -4.379  -6.367  1.00  0.00     0.027 C 
BRANCH   2   3
HETATM    3  C   UNL     1     -20.794  -5.587  -5.503  1.00  0.00    -0.031 C 
HETATM    4  C   UNL     1     -20.190  -6.749  -5.780  1.00  0.00    -0.030 C 
BRANCH   4   5
HETATM    5  C   UNL     1     -20.532  -8.048  -5.115  1.00  0.00     0.039 C 
BRANCH   5   6
HETATM    6  C   UNL     1     -19.329  -8.623  -4.338  1.00  0.00     0.059 C 
BRANCH   6   7
HETATM    7  C   UNL     1     -18.353  -9.428  -5.233  1.00  0.00     0.012 C 
BRANCH   7   8
HETATM    8  C   UNL     1     -18.813 -10.826  -5.645  1.00  0.00     0.001 C 
BRANCH   8   9
HETATM    9  C   UNL     1     -17.862 -11.933  -5.194  1.00  0.00     0.000 C 
BRANCH   9  10
HETATM   10  C   UNL     1     -16.526 -11.332  -4.761  1.00  0.00    -0.000 C 
BRANCH  10  11
HETATM   11  C   UNL     1     -16.144 -11.759  -3.348  1.00  0.00    -0.005 C 
HETATM   12  C   UNL     1     -15.620 -10.575  -2.551  1.00  0.00     0.005 C 
ENDBRANCH  10  11
ENDBRANCH   9  10
ENDBRANCH   8   9
ENDBRANCH   7   8
ENDBRANCH   6   7
BRANCH   6  13
HETATM   13  C   UNL     1     -19.790  -9.515  -3.169  1.00  0.00     0.135 C 
HETATM   14  O   UNL     1     -18.993  -9.948  -2.329  1.00  0.00    -0.297 OA
BRANCH  13  15
HETATM   15  C   UNL     1     -21.271  -9.805  -3.017  1.00  0.00     0.117 C 
BRANCH  15  16
HETATM   16  C   UNL     1     -21.878  -9.186  -1.783  1.00  0.00    -0.051 A 
HETATM   17  C   UNL     1     -21.728  -7.819  -1.524  1.00  0.00     0.007 A 
HETATM   18  C   UNL     1     -22.345  -7.239  -0.414  1.00  0.00     0.001 A 
HETATM   19  C   UNL     1     -23.120  -8.020   0.443  1.00  0.00     0.000 A 
HETATM   20  C   UNL     1     -23.267  -9.383   0.197  1.00  0.00     0.001 A 
HETATM   21  C   UNL     1     -22.649  -9.965  -0.908  1.00  0.00     0.007 A 
ENDBRANCH  15  16
ENDBRANCH  13  15
ENDBRANCH   6  13
ENDBRANCH   5   6
ENDBRANCH   4   5
ENDBRANCH   2   3
ENDBRANCH   1   2
BRANCH   1  22
HETATM   22  C   UNL     1     -21.657  -4.811  -8.633  1.00  0.00     0.000 C 
BRANCH  22  23
HETATM   23  C   UNL     1     -20.339  -4.441  -9.310  1.00  0.00     0.000 C 
BRANCH  23  24
HETATM   24  C   UNL     1     -20.544  -3.719 -10.631  1.00  0.00     0.000 C 
BRANCH  24  25
HETATM   25  C   UNL     1     -21.861  -4.176 -11.258  1.00  0.00     0.009 C 
BRANCH  25  26
HETATM   26  C   UNL     1     -22.653  -2.973 -11.732  1.00  0.00     0.103 C 
BRANCH  26  27
HETATM   27  C   UNL     1     -24.126  -3.068 -11.400  1.00  0.00     0.217 C 
HETATM   28  O   UNL     1     -24.567  -3.208 -10.261  1.00  0.00    -0.274 OA
HETATM   29  N   UNL     1     -24.994  -2.983 -12.454  1.00  0.00    -0.357 N 
HETATM   30  H   UNL     1     -25.966  -3.094 -12.196  1.00  0.00     0.162 HD
BRANCH  29  31
HETATM   31  C   UNL     1     -24.646  -2.952 -13.858  1.00  0.00     0.161 C 
BRANCH  31  32
HETATM   32  C   UNL     1     -24.675  -4.319 -14.499  1.00  0.00    -0.038 A 
HETATM   33  C   UNL     1     -23.586  -5.195 -14.399  1.00  0.00     0.012 A 
HETATM   34  C   UNL     1     -23.644  -6.467 -14.969  1.00  0.00     0.040 A 
HETATM   35  C   UNL     1     -24.798  -6.873 -15.635  1.00  0.00     0.099 A 
HETATM   36  C   UNL     1     -25.901  -6.017 -15.758  1.00  0.00     0.101 A 
HETATM   37  C   UNL     1     -25.831  -4.743 -15.183  1.00  0.00     0.048 A 
BRANCH  35  38
HETATM   38  O   UNL     1     -24.862  -8.129 -16.178  1.00  0.00    -0.358 OA
HETATM   39  H   UNL     1     -25.770  -8.459 -16.106  1.00  0.00     0.217 HD
ENDBRANCH  35  38
BRANCH  36  40
HETATM   40  O   UNL     1     -26.982  -6.513 -16.438  1.00  0.00    -0.353 OA
HETATM   41  C   UNL     1     -28.141  -6.837 -15.686  1.00  0.00     0.210 C 
ENDBRANCH  36  40
ENDBRANCH  31  32
ENDBRANCH  29  31
ENDBRANCH  26  27
ENDBRANCH  25  26
ENDBRANCH  24  25
ENDBRANCH  23  24
ENDBRANCH  22  23
ENDBRANCH   1  22
TORSDOF 22
BEGIN_RES ARG D 557
REMARK  4 active torsions:
REMARK  status: ('A' for Active; 'I' for Inactive)
REMARK    1  A    between atoms: CA   and  CB  
REMARK    2  A    between atoms: CB   and  CG  
REMARK    3  A    between atoms: CG   and  CD  
REMARK    4  A    between atoms: CD   and  NE  
REMARK       I    between atoms: NE   and  CZ  
REMARK       I    between atoms: CZ   and  NH1 
REMARK       I    between atoms: CZ   and  NH2 
ROOT
ATOM      1  CA  ARG D 557     -26.217   2.705 -17.014  1.00 35.49     0.159 C 
ENDROOT
BRANCH   1   2
ATOM      2  CB  ARG D 557     -26.789   1.319 -17.183  1.00 35.49     0.034 C 
BRANCH   2   3
ATOM      3  CG  ARG D 557     -28.213   1.230 -17.529  1.00 35.49     0.027 C 
BRANCH   3   4
ATOM      4  CD  ARG D 557     -28.967   0.361 -16.596  1.00 35.49     0.116 C 
BRANCH   4   5
ATOM      5  NE  ARG D 557     -29.298  -0.909 -17.187  1.00 35.49    -0.212 N 
ATOM      6  CZ  ARG D 557     -28.632  -2.030 -17.021  1.00 35.49     0.666 C 
ATOM      7  NH1 ARG D 557     -27.542  -2.105 -16.280  1.00 35.49    -0.235 N 
ATOM      8  NH2 ARG D 557     -29.089  -3.094 -17.616  1.00 35.49    -0.235 N 
ATOM      9  HH  ARG D 557     -27.224  -1.418 -15.878  1.00 35.49     0.174 HD
ATOM     10  HH  ARG D 557     -27.151  -2.864 -16.207  1.00 35.49     0.174 HD
ATOM     11  HH  ARG D 557     -29.800  -3.017 -18.082  1.00 35.49     0.174 HD
ATOM     12  HH  ARG D 557     -28.689  -3.836 -17.530  1.00 35.49     0.174 HD
ATOM     13  HE  ARG D 557     -29.945  -0.937 -17.738  1.00 35.49     0.178 HD
ENDBRANCH   4   5
ENDBRANCH   3   4
ENDBRANCH   2   3
ENDBRANCH   1   2
END_RES ARG D 557
BEGIN_RES GLU D 570
REMARK  3 active torsions:
REMARK  status: ('A' for Active; 'I' for Inactive)
REMARK    5  A    between atoms: CA   and  CB  
REMARK    6  A    between atoms: CB   and  CG  
REMARK    7  A    between atoms: CG   and  CD  
ROOT
ATOM     14  CA  GLU D 570     -18.033  -6.348 -13.375  1.00 32.92     0.160 C 
ENDROOT
BRANCH  14  15
ATOM     15  CB  GLU D 570     -19.500  -6.345 -13.794  1.00 32.92     0.043 C 
BRANCH  15  16
ATOM     16  CG  GLU D 570     -19.796  -6.279 -15.248  1.00 32.92     0.100 C 
BRANCH  16  17
ATOM     17  CD  GLU D 570     -20.506  -7.510 -15.762  1.00 32.92     0.185 C 
ATOM     18  OE1 GLU D 570     -20.963  -7.506 -16.921  1.00 32.92    -0.647 OA
ATOM     19  OE2 GLU D 570     -20.622  -8.483 -14.990  1.00 32.92    -0.647 OA
ENDBRANCH  16  17
ENDBRANCH  15  16
ENDBRANCH  14  15
END_RES GLU D 570
ENDMDL
MODEL 3
REMARK VINA RESULT:      -7.9      1.864      4.325
REMARK  22 active torsions:
REMARK  status: ('A' for Active; 'I' for Inactive)
REMARK    1  A    between atoms: C_2  and  C_3 
REMARK    2  A    between atoms: C_3  and  C_4 
REMARK    3  A    between atoms: C_4  and  C_5 
REMARK    4  A    between atoms: C_5  and  C_6 
REMARK    5  A    between atoms: C_6  and  C_7 
REMARK    6  A    between atoms: C_7  and  C_8 
REMARK    7  A    between atoms: C_7  and  C_31 
REMARK    8  A    between atoms: C_8  and  C_9 
REMARK    9  A    between atoms: C_10  and  C_11 
REMARK   10  A    between atoms: C_11  and  C_12 
REMARK   11  A    between atoms: C_12  and  C_13 
REMARK   12  A    between atoms: C_13  and  C_14 
REMARK   13  A    between atoms: C_14  and  C_15 
REMARK   14  A    between atoms: C_15  and  C_16 
REMARK   15  A    between atoms: C_16  and  C_17 
REMARK   16  A    between atoms: C_17  and  C_18 
REMARK       I    between atoms: C_18  and  N_20 
REMARK   17  A    between atoms: N_20  and  C_21 
REMARK   18  A    between atoms: C_21  and  C_22 
REMARK   19  A    between atoms: C_25  and  O_26 
REMARK   20  A    between atoms: C_27  and  O_28 
REMARK   21  A    between atoms: C_31  and  C_33 
REMARK   22  A    between atoms: C_33  and  C_34 
ROOT
HETATM    1  C   UNL     1     -22.523  -7.677   0.381  1.00  0.00     0.004 C 
ENDROOT
BRANCH   1   2
HETATM    2  C   UNL     1     -21.586  -8.547   1.212  1.00  0.00     0.027 C 
BRANCH   2   3
HETATM    3  C   UNL     1     -20.856  -9.572   0.403  1.00  0.00    -0.031 C 
HETATM    4  C   UNL     1     -20.602 -10.797   0.876  1.00  0.00    -0.030 C 
BRANCH   4   5
HETATM    5  C   UNL     1     -19.657 -11.764   0.228  1.00  0.00     0.039 C 
BRANCH   5   6
HETATM    6  C   UNL     1     -19.532 -11.507  -1.288  1.00  0.00     0.059 C 
BRANCH   6   7
HETATM    7  C   UNL     1     -19.921 -12.735  -2.149  1.00  0.00     0.012 C 
BRANCH   7   8
HETATM    8  C   UNL     1     -21.347 -12.751  -2.697  1.00  0.00     0.001 C 
BRANCH   8   9
HETATM    9  C   UNL     1     -21.807 -11.393  -3.224  1.00  0.00     0.000 C 
BRANCH   9  10
HETATM   10  C   UNL     1     -23.076 -10.950  -2.498  1.00  0.00    -0.000 C 
BRANCH  10  11
HETATM   11  C   UNL     1     -23.371 -11.829  -1.287  1.00  0.00    -0.005 C 
HETATM   12  C   UNL     1     -24.148 -11.054  -0.236  1.00  0.00     0.005 C 
ENDBRANCH  10  11
ENDBRANCH   9  10
ENDBRANCH   8   9
ENDBRANCH   7   8
ENDBRANCH   6   7
BRANCH   6  13
HETATM   13  C   UNL     1     -18.107 -11.060  -1.666  1.00  0.00     0.135 C 
HETATM   14  O   UNL     1     -17.107 -11.650  -1.242  1.00  0.00    -0.297 OA
BRANCH  13  15
HETATM   15  C   UNL     1     -17.941  -9.908  -2.639  1.00  0.00     0.117 C 
BRANCH  15  16
HETATM   16  C   UNL     1     -17.285 -10.310  -3.935  1.00  0.00    -0.051 A 
HETATM   17  C   UNL     1     -16.017  -9.821  -4.275  1.00  0.00     0.007 A 
HETATM   18  C   UNL     1     -15.388 -10.246  -5.446  1.00  0.00     0.001 A 
HETATM   19  C   UNL     1     -16.017 -11.167  -6.284  1.00  0.00     0.000 A 
HETATM   20  C   UNL     1     -17.281 -11.651  -5.958  1.00  0.00     0.001 A 
HETATM   21  C   UNL     1     -17.914 -11.224  -4.792  1.00  0.00     0.007 A 
ENDBRANCH  15  16
ENDBRANCH  13  15
ENDBRANCH   6  13
ENDBRANCH   5   6
ENDBRANCH   4   5
ENDBRANCH   2   3
ENDBRANCH   1   2
BRANCH   1  22
HETATM   22  C   UNL     1     -22.140  -7.688  -1.102  1.00  0.00     0.000 C 
BRANCH  22  23
HETATM   23  C   UNL     1     -22.235  -6.295  -1.718  1.00  0.00     0.000 C 
BRANCH  23  24
HETATM   24  C   UNL     1     -21.409  -6.159  -2.986  1.00  0.00     0.000 C 
BRANCH  24  25
HETATM   25  C   UNL     1     -21.534  -7.440  -3.810  1.00  0.00     0.009 C 
BRANCH  25  26
HETATM   26  C   UNL     1     -21.583  -7.103  -5.288  1.00  0.00     0.103 C 
BRANCH  26  27
HETATM   27  C   UNL     1     -20.242  -7.245  -5.971  1.00  0.00     0.217 C 
HETATM   28  O   UNL     1     -19.489  -8.204  -5.816  1.00  0.00    -0.274 OA
HETATM   29  N   UNL     1     -19.876  -6.231  -6.813  1.00  0.00    -0.357 N 
HETATM   30  H   UNL     1     -18.955  -6.342  -7.217  1.00  0.00     0.162 HD
BRANCH  29  31
HETATM   31  C   UNL     1     -20.574  -4.977  -7.007  1.00  0.00     0.161 C 
BRANCH  31  32
HETATM   32  C   UNL     1     -20.968  -4.742  -8.445  1.00  0.00    -0.038 A 
HETATM   33  C   UNL     1     -20.005  -4.649  -9.459  1.00  0.00     0.012 A 
HETATM   34  C   UNL     1     -20.389  -4.466 -10.788  1.00  0.00     0.040 A 
HETATM   35  C   UNL     1     -21.742  -4.384 -11.110  1.00  0.00     0.099 A 
HETATM   36  C   UNL     1     -22.728  -4.467 -10.118  1.00  0.00     0.101 A 
HETATM   37  C   UNL     1     -22.331  -4.650  -8.789  1.00  0.00     0.048 A 
BRANCH  35  38
HETATM   38  O   UNL     1     -22.119  -4.223 -12.417  1.00  0.00    -0.358 OA
HETATM   39  H   UNL     1     -21.843  -5.001 -12.924  1.00  0.00     0.217 HD
ENDBRANCH  35  38
BRANCH  36  40
HETATM   40  O   UNL     1     -24.027  -4.368 -10.543  1.00  0.00    -0.353 OA
HETATM   41  C   UNL     1     -24.854  -3.404  -9.912  1.00  0.00     0.210 C 
ENDBRANCH  36  40
ENDBRANCH  31  32
ENDBRANCH  29  31
ENDBRANCH  26  27
ENDBRANCH  25  26
ENDBRANCH  24  25
ENDBRANCH  23  24
ENDBRANCH  22  23
ENDBRANCH   1  22
TORSDOF 22
BEGIN_RES ARG D 557
REMARK  4 active torsions:
REMARK  status: ('A' for Active; 'I' for Inactive)
REMARK    1  A    between atoms: CA   and  CB  
REMARK    2  A    between atoms: CB   and  CG  
REMARK    3  A    between atoms: CG   and  CD  
REMARK    4  A    between atoms: CD   and  NE  
REMARK       I    between atoms: NE   and  CZ  
REMARK       I    between atoms: CZ   and  NH1 
REMARK       I    between atoms: CZ   and  NH2 
ROOT
ATOM      1  CA  ARG D 557     -26.217   2.705 -17.014  1.00 35.49     0.159 C 
ENDROOT
BRANCH   1   2
ATOM      2  CB  ARG D 557     -26.789   1.319 -17.183  1.00 35.49     0.034 C 
BRANCH   2   3
ATOM      3  CG  ARG D 557     -28.238   1.224 -17.396  1.00 35.49     0.027 C 
BRANCH   3   4
ATOM      4  CD  ARG D 557     -28.886   0.279 -16.457  1.00 35.49     0.116 C 
BRANCH   4   5
ATOM      5  NE  ARG D 557     -29.272  -0.948 -17.103  1.00 35.49    -0.212 N 
ATOM      6  CZ  ARG D 557     -28.636  -2.094 -17.018  1.00 35.49     0.666 C 
ATOM      7  NH1 ARG D 557     -27.527  -2.239 -16.317  1.00 35.49    -0.235 N 
ATOM      8  NH2 ARG D 557     -29.142  -3.111 -17.654  1.00 35.49    -0.235 N 
ATOM      9  HH  ARG D 557     -27.177  -1.584 -15.889  1.00 35.49     0.174 HD
ATOM     10  HH  ARG D 557     -27.156  -3.012 -16.296  1.00 35.49     0.174 HD
ATOM     11  HH  ARG D 557     -29.863  -2.989 -18.093  1.00 35.49     0.174 HD
ATOM     12  HH  ARG D 557     -28.762  -3.868 -17.620  1.00 35.49     0.174 HD
ATOM     13  HE  ARG D 557     -29.936  -0.927 -17.634  1.00 35.49     0.178 HD
ENDBRANCH   4   5
ENDBRANCH   3   4
ENDBRANCH   2   3
ENDBRANCH   1   2
END_RES ARG D 557
BEGIN_RES GLU D 570
REMARK  3 active torsions:
REMARK  status: ('A' for Active; 'I' for Inactive)
REMARK    5  A    between atoms: CA   and  CB  
REMARK    6  A    between atoms: CB   and  CG  
REMARK    7  A    between atoms: CG   and  CD  
ROOT
ATOM     14  CA  GLU D 570     -18.033  -6.348 -13.375  1.00 32.92     0.160 C 
ENDROOT
BRANCH  14  15
ATOM     15  CB  GLU D 570     -19.500  -6.345 -13.794  1.00 32.92     0.043 C 
BRANCH  15  16
ATOM     16  CG  GLU D 570     -19.929  -7.359 -14.792  1.00 32.92     0.100 C 
BRANCH  16  17
ATOM     17  CD  GLU D 570     -21.356  -7.167 -15.251  1.00 32.92     0.185 C 
ATOM     18  OE1 GLU D 570     -21.775  -7.831 -16.218  1.00 32.92    -0.647 OA
ATOM     19  OE2 GLU D 570     -22.057  -6.331 -14.647  1.00 32.92    -0.647 OA
ENDBRANCH  16  17
ENDBRANCH  15  16
ENDBRANCH  14  15
END_RES GLU D 570
ENDMDL
MODEL 4
REMARK VINA RESULT:      -7.8      1.508      2.998
REMARK  22 active torsions:
REMARK  status: ('A' for Active; 'I' for Inactive)
REMARK    1  A    between atoms: C_2  and  C_3 
REMARK    2  A    between atoms: C_3  and  C_4 
REMARK    3  A    between atoms: C_4  and  C_5 
REMARK    4  A    between atoms: C_5  and  C_6 
REMARK    5  A    between atoms: C_6  and  C_7 
REMARK    6  A    between atoms: C_7  and  C_8 
REMARK    7  A    between atoms: C_7  and  C_31 
REMARK    8  A    between atoms: C_8  and  C_9 
REMARK    9  A    between atoms: C_10  and  C_11 
REMARK   10  A    between atoms: C_11  and  C_12 
REMARK   11  A    between atoms: C_12  and  C_13 
REMARK   12  A    between atoms: C_13  and  C_14 
REMARK   13  A    between atoms: C_14  and  C_15 
REMARK   14  A    between atoms: C_15  and  C_16 
REMARK   15  A    between atoms: C_16  and  C_17 
REMARK   16  A    between atoms: C_17  and  C_18 
REMARK       I    between atoms: C_18  and  N_20 
REMARK   17  A    between atoms: N_20  and  C_21 
REMARK   18  A    between atoms: C_21  and  C_22 
REMARK   19  A    between atoms: C_25  and  O_26 
REMARK   20  A    between atoms: C_27  and  O_28 
REMARK   21  A    between atoms: C_31  and  C_33 
REMARK   22  A    between atoms: C_33  and  C_34 
ROOT
HETATM    1  C   UNL     1     -22.302  -8.274   0.525  1.00  0.00     0.004 C 
ENDROOT
BRANCH   1   2
HETATM    2  C   UNL     1     -23.409  -9.286   0.246  1.00  0.00     0.027 C 
BRANCH   2   3
HETATM    3  C   UNL     1     -22.914 -10.543  -0.393  1.00  0.00    -0.031 C 
HETATM    4  C   UNL     1     -23.072 -10.782  -1.700  1.00  0.00    -0.030 C 
BRANCH   4   5
HETATM    5  C   UNL     1     -22.841 -12.118  -2.340  1.00  0.00     0.039 C 
BRANCH   5   6
HETATM    6  C   UNL     1     -21.523 -12.144  -3.143  1.00  0.00     0.059 C 
BRANCH   6   7
HETATM    7  C   UNL     1     -20.791 -10.779  -3.158  1.00  0.00     0.012 C 
BRANCH   7   8
HETATM    8  C   UNL     1     -19.323 -10.795  -2.733  1.00  0.00     0.001 C 
BRANCH   8   9
HETATM    9  C   UNL     1     -18.695  -9.404  -2.673  1.00  0.00     0.000 C 
BRANCH   9  10
HETATM   10  C   UNL     1     -17.228  -9.472  -3.092  1.00  0.00    -0.000 C 
BRANCH  10  11
HETATM   11  C   UNL     1     -16.808 -10.893  -3.454  1.00  0.00    -0.005 C 
HETATM   12  C   UNL     1     -15.701 -10.878  -4.495  1.00  0.00     0.005 C 
ENDBRANCH  10  11
ENDBRANCH   9  10
ENDBRANCH   8   9
ENDBRANCH   7   8
ENDBRANCH   6   7
BRANCH   6  13
HETATM   13  C   UNL     1     -21.758 -12.605  -4.594  1.00  0.00     0.135 C 
HETATM   14  O   UNL     1     -22.207 -13.728  -4.854  1.00  0.00    -0.297 OA
BRANCH  13  15
HETATM   15  C   UNL     1     -21.495 -11.623  -5.720  1.00  0.00     0.117 C 
BRANCH  15  16
HETATM   16  C   UNL     1     -20.377 -12.050  -6.636  1.00  0.00    -0.051 A 
HETATM   17  C   UNL     1     -19.057 -11.658  -6.382  1.00  0.00     0.007 A 
HETATM   18  C   UNL     1     -18.018 -12.109  -7.197  1.00  0.00     0.001 A 
HETATM   19  C   UNL     1     -18.288 -12.958  -8.269  1.00  0.00     0.000 A 
HETATM   20  C   UNL     1     -19.599 -13.346  -8.535  1.00  0.00     0.001 A 
HETATM   21  C   UNL     1     -20.639 -12.894  -7.725  1.00  0.00     0.007 A 
ENDBRANCH  15  16
ENDBRANCH  13  15
ENDBRANCH   6  13
ENDBRANCH   5   6
ENDBRANCH   4   5
ENDBRANCH   2   3
ENDBRANCH   1   2
BRANCH   1  22
HETATM   22  C   UNL     1     -21.640  -7.789  -0.768  1.00  0.00     0.000 C 
BRANCH  22  23
HETATM   23  C   UNL     1     -22.244  -6.473  -1.251  1.00  0.00     0.000 C 
BRANCH  23  24
HETATM   24  C   UNL     1     -21.739  -6.068  -2.625  1.00  0.00     0.000 C 
BRANCH  24  25
HETATM   25  C   UNL     1     -21.477  -7.323  -3.458  1.00  0.00     0.009 C 
BRANCH  25  26
HETATM   26  C   UNL     1     -21.824  -7.063  -4.910  1.00  0.00     0.103 C 
BRANCH  26  27
HETATM   27  C   UNL     1     -20.672  -7.338  -5.851  1.00  0.00     0.217 C 
HETATM   28  O   UNL     1     -19.966  -8.342  -5.798  1.00  0.00    -0.274 OA
HETATM   29  N   UNL     1     -20.433  -6.395  -6.813  1.00  0.00    -0.357 N 
HETATM   30  H   UNL     1     -19.629  -6.594  -7.394  1.00  0.00     0.162 HD
BRANCH  29  31
HETATM   31  C   UNL     1     -21.076  -5.104  -6.934  1.00  0.00     0.161 C 
BRANCH  31  32
HETATM   32  C   UNL     1     -21.195  -4.639  -8.365  1.00  0.00    -0.038 A 
HETATM   33  C   UNL     1     -20.112  -4.724  -9.251  1.00  0.00     0.012 A 
HETATM   34  C   UNL     1     -20.250  -4.322 -10.580  1.00  0.00     0.040 A 
HETATM   35  C   UNL     1     -21.477  -3.841 -11.032  1.00  0.00     0.099 A 
HETATM   36  C   UNL     1     -22.575  -3.739 -10.169  1.00  0.00     0.101 A 
HETATM   37  C   UNL     1     -22.425  -4.144  -8.838  1.00  0.00     0.048 A 
BRANCH  35  38
HETATM   38  O   UNL     1     -21.616  -3.464 -12.342  1.00  0.00    -0.358 OA
HETATM   39  H   UNL     1     -20.754  -3.185 -12.684  1.00  0.00     0.217 HD
ENDBRANCH  35  38
BRANCH  36  40
HETATM   40  O   UNL     1     -23.733  -3.247 -10.714  1.00  0.00    -0.353 OA
HETATM   41  C   UNL     1     -24.908  -3.301  -9.922  1.00  0.00     0.210 C 
ENDBRANCH  36  40
ENDBRANCH  31  32
ENDBRANCH  29  31
ENDBRANCH  26  27
ENDBRANCH  25  26
ENDBRANCH  24  25
ENDBRANCH  23  24
ENDBRANCH  22  23
ENDBRANCH   1  22
TORSDOF 22
BEGIN_RES ARG D 557
REMARK  4 active torsions:
REMARK  status: ('A' for Active; 'I' for Inactive)
REMARK    1  A    between atoms: CA   and  CB  
REMARK    2  A    between atoms: CB   and  CG  
REMARK    3  A    between atoms: CG   and  CD  
REMARK    4  A    between atoms: CD   and  NE  
REMARK       I    between atoms: NE   and  CZ  
REMARK       I    between atoms: CZ   and  NH1 
REMARK       I    between atoms: CZ   and  NH2 
ROOT
ATOM      1  CA  ARG D 557     -26.217   2.705 -17.014  1.00 35.49     0.159 C 
ENDROOT
BRANCH   1   2
ATOM      2  CB  ARG D 557     -26.789   1.319 -17.183  1.00 35.49     0.034 C 
BRANCH   2   3
ATOM      3  CG  ARG D 557     -25.869   0.195 -16.975  1.00 35.49     0.027 C 
BRANCH   3   4
ATOM      4  CD  ARG D 557     -26.290  -0.680 -15.857  1.00 35.49     0.116 C 
BRANCH   4   5
ATOM      5  NE  ARG D 557     -25.231  -0.896 -14.907  1.00 35.49    -0.212 N 
ATOM      6  CZ  ARG D 557     -24.930  -2.042 -14.339  1.00 35.49     0.666 C 
ATOM      7  NH1 ARG D 557     -25.604  -3.151 -14.579  1.00 35.49    -0.235 N 
ATOM      8  NH2 ARG D 557     -23.921  -2.057 -13.516  1.00 35.49    -0.235 N 
ATOM      9  HH  ARG D 557     -26.269  -3.164 -15.119  1.00 35.49     0.174 HD
ATOM     10  HH  ARG D 557     -25.360  -3.870 -14.181  1.00 35.49     0.174 HD
ATOM     11  HH  ARG D 557     -23.500  -1.327 -13.386  1.00 35.49     0.174 HD
ATOM     12  HH  ARG D 557     -23.694  -2.779 -13.133  1.00 35.49     0.174 HD
ATOM     13  HE  ARG D 557     -24.791  -0.219 -14.639  1.00 35.49     0.178 HD
ENDBRANCH   4   5
ENDBRANCH   3   4
ENDBRANCH   2   3
ENDBRANCH   1   2
END_RES ARG D 557
BEGIN_RES GLU D 570
REMARK  3 active torsions:
REMARK  status: ('A' for Active; 'I' for Inactive)
REMARK    5  A    between atoms: CA   and  CB  
REMARK    6  A    between atoms: CB   and  CG  
REMARK    7  A    between atoms: CG   and  CD  
ROOT
ATOM     14  CA  GLU D 570     -18.033  -6.348 -13.375  1.00 32.92     0.160 C 
ENDROOT
BRANCH  14  15
ATOM     15  CB  GLU D 570     -19.500  -6.345 -13.794  1.00 32.92     0.043 C 
BRANCH  15  16
ATOM     16  CG  GLU D 570     -19.796  -6.277 -15.248  1.00 32.92     0.100 C 
BRANCH  16  17
ATOM     17  CD  GLU D 570     -21.209  -5.828 -15.541  1.00 32.92     0.185 C 
ATOM     18  OE1 GLU D 570     -21.797  -5.102 -14.717  1.00 32.92    -0.647 OA
ATOM     19  OE2 GLU D 570     -21.740  -6.221 -16.599  1.00 32.92    -0.647 OA
ENDBRANCH  16  17
ENDBRANCH  15  16
ENDBRANCH  14  15
END_RES GLU D 570
ENDMDL
MODEL 5
REMARK VINA RESULT:      -7.8      1.746      3.663
REMARK  22 active torsions:
REMARK  status: ('A' for Active; 'I' for Inactive)
REMARK    1  A    between atoms: C_2  and  C_3 
REMARK    2  A    between atoms: C_3  and  C_4 
REMARK    3  A    between atoms: C_4  and  C_5 
REMARK    4  A    between atoms: C_5  and  C_6 
REMARK    5  A    between atoms: C_6  and  C_7 
REMARK    6  A    between atoms: C_7  and  C_8 
REMARK    7  A    between atoms: C_7  and  C_31 
REMARK    8  A    between atoms: C_8  and  C_9 
REMARK    9  A    between atoms: C_10  and  C_11 
REMARK   10  A    between atoms: C_11  and  C_12 
REMARK   11  A    between atoms: C_12  and  C_13 
REMARK   12  A    between atoms: C_13  and  C_14 
REMARK   13  A    between atoms: C_14  and  C_15 
REMARK   14  A    between atoms: C_15  and  C_16 
REMARK   15  A    between atoms: C_16  and  C_17 
REMARK   16  A    between atoms: C_17  and  C_18 
REMARK       I    between atoms: C_18  and  N_20 
REMARK   17  A    between atoms: N_20  and  C_21 
REMARK   18  A    between atoms: C_21  and  C_22 
REMARK   19  A    between atoms: C_25  and  O_26 
REMARK   20  A    between atoms: C_27  and  O_28 
REMARK   21  A    between atoms: C_31  and  C_33 
REMARK   22  A    between atoms: C_33  and  C_34 
ROOT
HETATM    1  C   UNL     1     -22.593  -7.890  -0.419  1.00  0.00     0.004 C 
ENDROOT
BRANCH   1   2
HETATM    2  C   UNL     1     -22.104  -7.888   1.026  1.00  0.00     0.027 C 
BRANCH   2   3
HETATM    3  C   UNL     1     -21.158  -9.005   1.333  1.00  0.00    -0.031 C 
HETATM    4  C   UNL     1     -20.647  -9.784   0.372  1.00  0.00    -0.030 C 
BRANCH   4   5
HETATM    5  C   UNL     1     -19.918 -11.066   0.635  1.00  0.00     0.039 C 
BRANCH   5   6
HETATM    6  C   UNL     1     -20.317 -12.165  -0.372  1.00  0.00     0.059 C 
BRANCH   6   7
HETATM    7  C   UNL     1     -20.284 -13.590   0.235  1.00  0.00     0.012 C 
BRANCH   7   8
HETATM    8  C   UNL     1     -21.636 -14.194   0.614  1.00  0.00     0.001 C 
BRANCH   8   9
HETATM    9  C   UNL     1     -22.609 -13.175   1.205  1.00  0.00     0.000 C 
BRANCH   9  10
HETATM   10  C   UNL     1     -23.740 -12.897   0.217  1.00  0.00    -0.000 C 
BRANCH  10  11
HETATM   11  C   UNL     1     -23.896 -11.406  -0.062  1.00  0.00    -0.005 C 
HETATM   12  C   UNL     1     -23.681 -11.108  -1.537  1.00  0.00     0.005 C 
ENDBRANCH  10  11
ENDBRANCH   9  10
ENDBRANCH   8   9
ENDBRANCH   7   8
ENDBRANCH   6   7
BRANCH   6  13
HETATM   13  C   UNL     1     -19.421 -12.131  -1.625  1.00  0.00     0.135 C 
HETATM   14  O   UNL     1     -18.498 -11.317  -1.741  1.00  0.00    -0.297 OA
BRANCH  13  15
HETATM   15  C   UNL     1     -19.643 -13.172  -2.705  1.00  0.00     0.117 C 
BRANCH  15  16
HETATM   16  C   UNL     1     -20.302 -12.619  -3.942  1.00  0.00    -0.051 A 
HETATM   17  C   UNL     1     -19.533 -12.089  -4.985  1.00  0.00     0.007 A 
HETATM   18  C   UNL     1     -20.145 -11.636  -6.154  1.00  0.00     0.001 A 
HETATM   19  C   UNL     1     -21.530 -11.714  -6.294  1.00  0.00     0.000 A 
HETATM   20  C   UNL     1     -22.304 -12.230  -5.259  1.00  0.00     0.001 A 
HETATM   21  C   UNL     1     -21.696 -12.679  -4.088  1.00  0.00     0.007 A 
ENDBRANCH  15  16
ENDBRANCH  13  15
ENDBRANCH   6  13
ENDBRANCH   5   6
ENDBRANCH   4   5
ENDBRANCH   2   3
ENDBRANCH   1   2
BRANCH   1  22
HETATM   22  C   UNL     1     -22.280  -6.568  -1.125  1.00  0.00     0.000 C 
BRANCH  22  23
HETATM   23  C   UNL     1     -21.577  -6.796  -2.461  1.00  0.00     0.000 C 
BRANCH  23  24
HETATM   24  C   UNL     1     -20.909  -8.157  -2.544  1.00  0.00     0.000 C 
BRANCH  24  25
HETATM   25  C   UNL     1     -21.371  -8.871  -3.814  1.00  0.00     0.009 C 
BRANCH  25  26
HETATM   26  C   UNL     1     -21.616  -7.859  -4.916  1.00  0.00     0.103 C 
BRANCH  26  27
HETATM   27  C   UNL     1     -20.396  -7.614  -5.776  1.00  0.00     0.217 C 
HETATM   28  O   UNL     1     -19.377  -8.299  -5.734  1.00  0.00    -0.274 OA
HETATM   29  N   UNL     1     -20.466  -6.561  -6.646  1.00  0.00    -0.357 N 
HETATM   30  H   UNL     1     -19.615  -6.404  -7.171  1.00  0.00     0.162 HD
BRANCH  29  31
HETATM   31  C   UNL     1     -21.526  -5.580  -6.730  1.00  0.00     0.161 C 
BRANCH  31  32
HETATM   32  C   UNL     1     -21.482  -4.777  -8.007  1.00  0.00    -0.038 A 
HETATM   33  C   UNL     1     -20.265  -4.456  -8.626  1.00  0.00     0.012 A 
HETATM   34  C   UNL     1     -20.245  -3.742  -9.824  1.00  0.00     0.040 A 
HETATM   35  C   UNL     1     -21.445  -3.353 -10.416  1.00  0.00     0.099 A 
HETATM   36  C   UNL     1     -22.676  -3.652  -9.819  1.00  0.00     0.101 A 
HETATM   37  C   UNL     1     -22.684  -4.368  -8.617  1.00  0.00     0.048 A 
BRANCH  35  38
HETATM   38  O   UNL     1     -21.425  -2.668 -11.602  1.00  0.00    -0.358 OA
HETATM   39  H   UNL     1     -20.984  -3.211 -12.273  1.00  0.00     0.217 HD
ENDBRANCH  35  38
BRANCH  36  40
HETATM   40  O   UNL     1     -23.794  -3.217 -10.481  1.00  0.00    -0.353 OA
HETATM   41  C   UNL     1     -25.026  -3.239  -9.778  1.00  0.00     0.210 C 
ENDBRANCH  36  40
ENDBRANCH  31  32
ENDBRANCH  29  31
ENDBRANCH  26  27
ENDBRANCH  25  26
ENDBRANCH  24  25
ENDBRANCH  23  24
ENDBRANCH  22  23
ENDBRANCH   1  22
TORSDOF 22
BEGIN_RES ARG D 557
REMARK  4 active torsions:
REMARK  status: ('A' for Active; 'I' for Inactive)
REMARK    1  A    between atoms: CA   and  CB  
REMARK    2  A    between atoms: CB   and  CG  
REMARK    3  A    between atoms: CG   and  CD  
REMARK    4  A    between atoms: CD   and  NE  
REMARK       I    between atoms: NE   and  CZ  
REMARK       I    between atoms: CZ   and  NH1 
REMARK       I    between atoms: CZ   and  NH2 
ROOT
ATOM      1  CA  ARG D 557     -26.217   2.705 -17.014  1.00 35.49     0.159 C 
ENDROOT
BRANCH   1   2
ATOM      2  CB  ARG D 557     -26.789   1.319 -17.183  1.00 35.49     0.034 C 
BRANCH   2   3
ATOM      3  CG  ARG D 557     -25.863   0.195 -16.996  1.00 35.49     0.027 C 
BRANCH   3   4
ATOM      4  CD  ARG D 557     -26.267  -0.688 -15.878  1.00 35.49     0.116 C 
BRANCH   4   5
ATOM      5  NE  ARG D 557     -25.192  -0.910 -14.947  1.00 35.49    -0.212 N 
ATOM      6  CZ  ARG D 557     -24.955  -2.028 -14.299  1.00 35.49     0.666 C 
ATOM      7  NH1 ARG D 557     -25.717  -3.098 -14.430  1.00 35.49    -0.235 N 
ATOM      8  NH2 ARG D 557     -23.921  -2.057 -13.509  1.00 35.49    -0.235 N 
ATOM      9  HH  ARG D 557     -26.401  -3.103 -14.946  1.00 35.49     0.174 HD
ATOM     10  HH  ARG D 557     -25.512  -3.801 -13.984  1.00 35.49     0.174 HD
ATOM     11  HH  ARG D 557     -23.443  -1.353 -13.450  1.00 35.49     0.174 HD
ATOM     12  HH  ARG D 557     -23.735  -2.762 -13.077  1.00 35.49     0.174 HD
ATOM     13  HE  ARG D 557     -24.694  -0.249 -14.747  1.00 35.49     0.178 HD
ENDBRANCH   4   5
ENDBRANCH   3   4
ENDBRANCH   2   3
ENDBRANCH   1   2
END_RES ARG D 557
BEGIN_RES GLU D 570
REMARK  3 active torsions:
REMARK  status: ('A' for Active; 'I' for Inactive)
REMARK    5  A    between atoms: CA   and  CB  
REMARK    6  A    between atoms: CB   and  CG  
REMARK    7  A    between atoms: CG   and  CD  
ROOT
ATOM     14  CA  GLU D 570     -18.033  -6.348 -13.375  1.00 32.92     0.160 C 
ENDROOT
BRANCH  14  15
ATOM     15  CB  GLU D 570     -19.500  -6.345 -13.794  1.00 32.92     0.043 C 
BRANCH  15  16
ATOM     16  CG  GLU D 570     -20.438  -5.514 -12.996  1.00 32.92     0.100 C 
BRANCH  16  17
ATOM     17  CD  GLU D 570     -21.688  -5.140 -13.758  1.00 32.92     0.185 C 
ATOM     18  OE1 GLU D 570     -22.754  -4.982 -13.132  1.00 32.92    -0.647 OA
ATOM     19  OE2 GLU D 570     -21.604  -5.020 -14.996  1.00 32.92    -0.647 OA
ENDBRANCH  16  17
ENDBRANCH  15  16
ENDBRANCH  14  15
END_RES GLU D 570
ENDMDL
MODEL 6
REMARK VINA RESULT:      -7.8      1.646      3.387
REMARK  22 active torsions:
REMARK  status: ('A' for Active; 'I' for Inactive)
REMARK    1  A    between atoms: C_2  and  C_3 
REMARK    2  A    between atoms: C_3  and  C_4 
REMARK    3  A    between atoms: C_4  and  C_5 
REMARK    4  A    between atoms: C_5  and  C_6 
REMARK    5  A    between atoms: C_6  and  C_7 
REMARK    6  A    between atoms: C_7  and  C_8 
REMARK    7  A    between atoms: C_7  and  C_31 
REMARK    8  A    between atoms: C_8  and  C_9 
REMARK    9  A    between atoms: C_10  and  C_11 
REMARK   10  A    between atoms: C_11  and  C_12 
REMARK   11  A    between atoms: C_12  and  C_13 
REMARK   12  A    between atoms: C_13  and  C_14 
REMARK   13  A    between atoms: C_14  and  C_15 
REMARK   14  A    between atoms: C_15  and  C_16 
REMARK   15  A    between atoms: C_16  and  C_17 
REMARK   16  A    between atoms: C_17  and  C_18 
REMARK       I    between atoms: C_18  and  N_20 
REMARK   17  A    between atoms: N_20  and  C_21 
REMARK   18  A    between atoms: C_21  and  C_22 
REMARK   19  A    between atoms: C_25  and  O_26 
REMARK   20  A    between atoms: C_27  and  O_28 
REMARK   21  A    between atoms: C_31  and  C_33 
REMARK   22  A    between atoms: C_33  and  C_34 
ROOT
HETATM    1  C   UNL     1     -22.124  -8.177   0.785  1.00  0.00     0.004 C 
ENDROOT
BRANCH   1   2
HETATM    2  C   UNL     1     -23.450  -8.921   0.659  1.00  0.00     0.027 C 
BRANCH   2   3
HETATM    3  C   UNL     1     -23.450  -9.953  -0.422  1.00  0.00    -0.031 C 
HETATM    4  C   UNL     1     -23.667 -11.248  -0.164  1.00  0.00    -0.030 C 
BRANCH   4   5
HETATM    5  C   UNL     1     -23.417 -12.350  -1.150  1.00  0.00     0.039 C 
BRANCH   5   6
HETATM    6  C   UNL     1     -22.228 -12.025  -2.078  1.00  0.00     0.059 C 
BRANCH   6   7
HETATM    7  C   UNL     1     -22.346 -12.683  -3.475  1.00  0.00     0.012 C 
BRANCH   7   8
HETATM    8  C   UNL     1     -22.081 -11.773  -4.674  1.00  0.00     0.001 C 
BRANCH   8   9
HETATM    9  C   UNL     1     -21.071 -12.355  -5.663  1.00  0.00     0.000 C 
BRANCH   9  10
HETATM   10  C   UNL     1     -19.939 -13.049  -4.908  1.00  0.00    -0.000 C 
BRANCH  10  11
HETATM   11  C   UNL     1     -18.569 -12.608  -5.412  1.00  0.00    -0.005 C 
HETATM   12  C   UNL     1     -18.708 -11.565  -6.509  1.00  0.00     0.005 C 
ENDBRANCH  10  11
ENDBRANCH   9  10
ENDBRANCH   8   9
ENDBRANCH   7   8
ENDBRANCH   6   7
BRANCH   6  13
HETATM   13  C   UNL     1     -20.888 -12.440  -1.439  1.00  0.00     0.135 C 
HETATM   14  O   UNL     1     -20.507 -13.616  -1.436  1.00  0.00    -0.297 OA
BRANCH  13  15
HETATM   15  C   UNL     1     -19.991 -11.359  -0.865  1.00  0.00     0.117 C 
BRANCH  15  16
HETATM   16  C   UNL     1     -19.025 -10.787  -1.871  1.00  0.00    -0.051 A 
HETATM   17  C   UNL     1     -19.434  -9.792  -2.767  1.00  0.00     0.007 A 
HETATM   18  C   UNL     1     -18.519  -9.222  -3.653  1.00  0.00     0.001 A 
HETATM   19  C   UNL     1     -17.188  -9.637  -3.648  1.00  0.00     0.000 A 
HETATM   20  C   UNL     1     -16.775 -10.632  -2.766  1.00  0.00     0.001 A 
HETATM   21  C   UNL     1     -17.688 -11.207  -1.884  1.00  0.00     0.007 A 
ENDBRANCH  15  16
ENDBRANCH  13  15
ENDBRANCH   6  13
ENDBRANCH   5   6
ENDBRANCH   4   5
ENDBRANCH   2   3
ENDBRANCH   1   2
BRANCH   1  22
HETATM   22  C   UNL     1     -21.559  -7.793  -0.585  1.00  0.00     0.000 C 
BRANCH  22  23
HETATM   23  C   UNL     1     -22.302  -6.603  -1.187  1.00  0.00     0.000 C 
BRANCH  23  24
HETATM   24  C   UNL     1     -21.603  -6.036  -2.411  1.00  0.00     0.000 C 
BRANCH  24  25
HETATM   25  C   UNL     1     -21.678  -7.051  -3.551  1.00  0.00     0.009 C 
BRANCH  25  26
HETATM   26  C   UNL     1     -21.759  -6.329  -4.882  1.00  0.00     0.103 C 
BRANCH  26  27
HETATM   27  C   UNL     1     -21.218  -7.149  -6.033  1.00  0.00     0.217 C 
HETATM   28  O   UNL     1     -21.128  -8.374  -6.021  1.00  0.00    -0.274 OA
HETATM   29  N   UNL     1     -20.820  -6.453  -7.141  1.00  0.00    -0.357 N 
HETATM   30  H   UNL     1     -20.424  -7.032  -7.871  1.00  0.00     0.162 HD
BRANCH  29  31
HETATM   31  C   UNL     1     -20.733  -5.014  -7.271  1.00  0.00     0.161 C 
BRANCH  31  32
HETATM   32  C   UNL     1     -21.018  -4.534  -8.674  1.00  0.00    -0.038 A 
HETATM   33  C   UNL     1     -20.028  -4.554  -9.666  1.00  0.00     0.012 A 
HETATM   34  C   UNL     1     -20.318  -4.139 -10.966  1.00  0.00     0.040 A 
HETATM   35  C   UNL     1     -21.605  -3.710 -11.283  1.00  0.00     0.099 A 
HETATM   36  C   UNL     1     -22.614  -3.672 -10.311  1.00  0.00     0.101 A 
HETATM   37  C   UNL     1     -22.311  -4.090  -9.011  1.00  0.00     0.048 A 
BRANCH  35  38
HETATM   38  O   UNL     1     -21.894  -3.320 -12.564  1.00  0.00    -0.358 OA
HETATM   39  H   UNL     1     -22.072  -2.367 -12.571  1.00  0.00     0.217 HD
ENDBRANCH  35  38
BRANCH  36  40
HETATM   40  O   UNL     1     -23.841  -3.227 -10.727  1.00  0.00    -0.353 OA
HETATM   41  C   UNL     1     -24.895  -3.219  -9.777  1.00  0.00     0.210 C 
ENDBRANCH  36  40
ENDBRANCH  31  32
ENDBRANCH  29  31
ENDBRANCH  26  27
ENDBRANCH  25  26
ENDBRANCH  24  25
ENDBRANCH  23  24
ENDBRANCH  22  23
ENDBRANCH   1  22
TORSDOF 22
BEGIN_RES ARG D 557
REMARK  4 active torsions:
REMARK  status: ('A' for Active; 'I' for Inactive)
REMARK    1  A    between atoms: CA   and  CB  
REMARK    2  A    between atoms: CB   and  CG  
REMARK    3  A    between atoms: CG   and  CD  
REMARK    4  A    between atoms: CD   and  NE  
REMARK       I    between atoms: NE   and  CZ  
REMARK       I    between atoms: CZ   and  NH1 
REMARK       I    between atoms: CZ   and  NH2 
ROOT
ATOM      1  CA  ARG D 557     -26.217   2.705 -17.014  1.00 35.49     0.159 C 
ENDROOT
BRANCH   1   2
ATOM      2  CB  ARG D 557     -26.789   1.319 -17.183  1.00 35.49     0.034 C 
BRANCH   2   3
ATOM      3  CG  ARG D 557     -28.251   1.212 -17.256  1.00 35.49     0.027 C 
BRANCH   3   4
ATOM      4  CD  ARG D 557     -28.756  -0.041 -16.650  1.00 35.49     0.116 C 
BRANCH   4   5
ATOM      5  NE  ARG D 557     -27.706  -0.804 -16.027  1.00 35.49    -0.212 N 
ATOM      6  CZ  ARG D 557     -27.515  -2.098 -16.160  1.00 35.49     0.666 C 
ATOM      7  NH1 ARG D 557     -28.304  -2.860 -16.894  1.00 35.49    -0.235 N 
ATOM      8  NH2 ARG D 557     -26.498  -2.620 -15.539  1.00 35.49    -0.235 N 
ATOM      9  HH  ARG D 557     -28.978  -2.537 -17.313  1.00 35.49     0.174 HD
ATOM     10  HH  ARG D 557     -28.129  -3.697 -16.945  1.00 35.49     0.174 HD
ATOM     11  HH  ARG D 557     -26.001  -2.103 -15.078  1.00 35.49     0.174 HD
ATOM     12  HH  ARG D 557     -26.340  -3.451 -15.603  1.00 35.49     0.174 HD
ATOM     13  HE  ARG D 557     -27.194  -0.405 -15.479  1.00 35.49     0.178 HD
ENDBRANCH   4   5
ENDBRANCH   3   4
ENDBRANCH   2   3
ENDBRANCH   1   2
END_RES ARG D 557
BEGIN_RES GLU D 570
REMARK  3 active torsions:
REMARK  status: ('A' for Active; 'I' for Inactive)
REMARK    5  A    between atoms: CA   and  CB  
REMARK    6  A    between atoms: CB   and  CG  
REMARK    7  A    between atoms: CG   and  CD  
ROOT
ATOM     14  CA  GLU D 570     -18.033  -6.348 -13.375  1.00 32.92     0.160 C 
ENDROOT
BRANCH  14  15
ATOM     15  CB  GLU D 570     -19.500  -6.345 -13.794  1.00 32.92     0.043 C 
BRANCH  15  16
ATOM     16  CG  GLU D 570     -19.796  -6.278 -15.248  1.00 32.92     0.100 C 
BRANCH  16  17
ATOM     17  CD  GLU D 570     -20.803  -7.314 -15.693  1.00 32.92     0.185 C 
ATOM     18  OE1 GLU D 570     -20.608  -8.510 -15.403  1.00 32.92    -0.647 OA
ATOM     19  OE2 GLU D 570     -21.788  -6.927 -16.352  1.00 32.92    -0.647 OA
ENDBRANCH  16  17
ENDBRANCH  15  16
ENDBRANCH  14  15
END_RES GLU D 570
ENDMDL
MODEL 7
REMARK VINA RESULT:      -7.7      2.684      7.299
REMARK  22 active torsions:
REMARK  status: ('A' for Active; 'I' for Inactive)
REMARK    1  A    between atoms: C_2  and  C_3 
REMARK    2  A    between atoms: C_3  and  C_4 
REMARK    3  A    between atoms: C_4  and  C_5 
REMARK    4  A    between atoms: C_5  and  C_6 
REMARK    5  A    between atoms: C_6  and  C_7 
REMARK    6  A    between atoms: C_7  and  C_8 
REMARK    7  A    between atoms: C_7  and  C_31 
REMARK    8  A    between atoms: C_8  and  C_9 
REMARK    9  A    between atoms: C_10  and  C_11 
REMARK   10  A    between atoms: C_11  and  C_12 
REMARK   11  A    between atoms: C_12  and  C_13 
REMARK   12  A    between atoms: C_13  and  C_14 
REMARK   13  A    between atoms: C_14  and  C_15 
REMARK   14  A    between atoms: C_15  and  C_16 
REMARK   15  A    between atoms: C_16  and  C_17 
REMARK   16  A    between atoms: C_17  and  C_18 
REMARK       I    between atoms: C_18  and  N_20 
REMARK   17  A    between atoms: N_20  and  C_21 
REMARK   18  A    between atoms: C_21  and  C_22 
REMARK   19  A    between atoms: C_25  and  O_26 
REMARK   20  A    between atoms: C_27  and  O_28 
REMARK   21  A    between atoms: C_31  and  C_33 
REMARK   22  A    between atoms: C_33  and  C_34 
ROOT
HETATM    1  C   UNL     1     -22.836  -9.146   0.267  1.00  0.00     0.004 C 
ENDROOT
BRANCH   1   2
HETATM    2  C   UNL     1     -23.000  -7.638   0.103  1.00  0.00     0.027 C 
BRANCH   2   3
HETATM    3  C   UNL     1     -21.979  -7.027  -0.801  1.00  0.00    -0.031 C 
HETATM    4  C   UNL     1     -22.313  -6.465  -1.969  1.00  0.00    -0.030 C 
BRANCH   4   5
HETATM    5  C   UNL     1     -21.322  -6.080  -3.026  1.00  0.00     0.039 C 
BRANCH   5   6
HETATM    6  C   UNL     1     -21.056  -7.242  -4.007  1.00  0.00     0.059 C 
BRANCH   6   7
HETATM    7  C   UNL     1     -20.053  -8.287  -3.457  1.00  0.00     0.012 C 
BRANCH   7   8
HETATM    8  C   UNL     1     -20.571  -9.719  -3.333  1.00  0.00     0.001 C 
BRANCH   8   9
HETATM    9  C   UNL     1     -22.095  -9.818  -3.389  1.00  0.00     0.000 C 
BRANCH   9  10
HETATM   10  C   UNL     1     -22.539 -11.248  -3.088  1.00  0.00    -0.000 C 
BRANCH  10  11
HETATM   11  C   UNL     1     -21.621 -12.276  -3.741  1.00  0.00    -0.005 C 
HETATM   12  C   UNL     1     -22.281 -12.887  -4.965  1.00  0.00     0.005 C 
ENDBRANCH  10  11
ENDBRANCH   9  10
ENDBRANCH   8   9
ENDBRANCH   7   8
ENDBRANCH   6   7
BRANCH   6  13
HETATM   13  C   UNL     1     -20.549  -6.724  -5.366  1.00  0.00     0.135 C 
HETATM   14  O   UNL     1     -20.242  -7.497  -6.282  1.00  0.00    -0.297 OA
BRANCH  13  15
HETATM   15  C   UNL     1     -20.494  -5.227  -5.599  1.00  0.00     0.117 C 
BRANCH  15  16
HETATM   16  C   UNL     1     -20.928  -4.820  -6.984  1.00  0.00    -0.051 A 
HETATM   17  C   UNL     1     -22.277  -4.572  -7.264  1.00  0.00     0.007 A 
HETATM   18  C   UNL     1     -22.665  -4.135  -8.532  1.00  0.00     0.001 A 
HETATM   19  C   UNL     1     -21.709  -3.938  -9.527  1.00  0.00     0.000 A 
HETATM   20  C   UNL     1     -20.366  -4.191  -9.259  1.00  0.00     0.001 A 
HETATM   21  C   UNL     1     -19.976  -4.632  -7.996  1.00  0.00     0.007 A 
ENDBRANCH  15  16
ENDBRANCH  13  15
ENDBRANCH   6  13
ENDBRANCH   5   6
ENDBRANCH   4   5
ENDBRANCH   2   3
ENDBRANCH   1   2
BRANCH   1  22
HETATM   22  C   UNL     1     -21.361  -9.559   0.257  1.00  0.00     0.000 C 
BRANCH  22  23
HETATM   23  C   UNL     1     -21.184 -11.021   0.661  1.00  0.00     0.000 C 
BRANCH  23  24
HETATM   24  C   UNL     1     -20.268 -11.780  -0.284  1.00  0.00     0.000 C 
BRANCH  24  25
HETATM   25  C   UNL     1     -18.837 -11.733   0.253  1.00  0.00     0.009 C 
BRANCH  25  26
HETATM   26  C   UNL     1     -17.940 -12.622  -0.585  1.00  0.00     0.103 C 
BRANCH  26  27
HETATM   27  C   UNL     1     -16.499 -12.162  -0.599  1.00  0.00     0.217 C 
HETATM   28  O   UNL     1     -15.949 -11.594   0.342  1.00  0.00    -0.274 OA
HETATM   29  N   UNL     1     -15.790 -12.414  -1.742  1.00  0.00    -0.357 N 
HETATM   30  H   UNL     1     -14.845 -12.053  -1.728  1.00  0.00     0.162 HD
BRANCH  29  31
HETATM   31  C   UNL     1     -16.314 -12.947  -2.982  1.00  0.00     0.161 C 
BRANCH  31  32
HETATM   32  C   UNL     1     -16.758 -11.870  -3.942  1.00  0.00    -0.038 A 
HETATM   33  C   UNL     1     -16.043 -10.671  -4.074  1.00  0.00     0.012 A 
HETATM   34  C   UNL     1     -16.448  -9.701  -4.991  1.00  0.00     0.040 A 
HETATM   35  C   UNL     1     -17.567  -9.930  -5.789  1.00  0.00     0.099 A 
HETATM   36  C   UNL     1     -18.305 -11.116  -5.676  1.00  0.00     0.101 A 
HETATM   37  C   UNL     1     -17.890 -12.081  -4.752  1.00  0.00     0.048 A 
BRANCH  35  38
HETATM   38  O   UNL     1     -17.953  -8.986  -6.703  1.00  0.00    -0.358 OA
HETATM   39  H   UNL     1     -17.204  -8.399  -6.887  1.00  0.00     0.217 HD
ENDBRANCH  35  38
BRANCH  36  40
HETATM   40  O   UNL     1     -19.391 -11.237  -6.504  1.00  0.00    -0.353 OA
HETATM   41  C   UNL     1     -19.423 -12.345  -7.388  1.00  0.00     0.210 C 
ENDBRANCH  36  40
ENDBRANCH  31  32
ENDBRANCH  29  31
ENDBRANCH  26  27
ENDBRANCH  25  26
ENDBRANCH  24  25
ENDBRANCH  23  24
ENDBRANCH  22  23
ENDBRANCH   1  22
TORSDOF 22
BEGIN_RES ARG D 557
REMARK  4 active torsions:
REMARK  status: ('A' for Active; 'I' for Inactive)
REMARK    1  A    between atoms: CA   and  CB  
REMARK    2  A    between atoms: CB   and  CG  
REMARK    3  A    between atoms: CG   and  CD  
REMARK    4  A    between atoms: CD   and  NE  
REMARK       I    between atoms: NE   and  CZ  
REMARK       I    between atoms: CZ   and  NH1 
REMARK       I    between atoms: CZ   and  NH2 
ROOT
ATOM      1  CA  ARG D 557     -26.217   2.705 -17.014  1.00 35.49     0.159 C 
ENDROOT
BRANCH   1   2
ATOM      2  CB  ARG D 557     -26.789   1.319 -17.183  1.00 35.49     0.034 C 
BRANCH   2   3
ATOM      3  CG  ARG D 557     -28.182   1.123 -16.762  1.00 35.49     0.027 C 
BRANCH   3   4
ATOM      4  CD  ARG D 557     -28.785  -0.092 -17.355  1.00 35.49     0.116 C 
BRANCH   4   5
ATOM      5  NE  ARG D 557     -28.146  -1.296 -16.891  1.00 35.49    -0.212 N 
ATOM      6  CZ  ARG D 557     -28.618  -2.515 -17.023  1.00 35.49     0.666 C 
ATOM      7  NH1 ARG D 557     -29.777  -2.769 -17.603  1.00 35.49    -0.235 N 
ATOM      8  NH2 ARG D 557     -27.894  -3.493 -16.560  1.00 35.49    -0.235 N 
ATOM      9  HH  ARG D 557     -30.269  -2.141 -17.916  1.00 35.49     0.174 HD
ATOM     10  HH  ARG D 557     -30.032  -3.584 -17.663  1.00 35.49     0.174 HD
ATOM     11  HH  ARG D 557     -27.147  -3.300 -16.197  1.00 35.49     0.174 HD
ATOM     12  HH  ARG D 557     -28.163  -4.294 -16.630  1.00 35.49     0.174 HD
ATOM     13  HE  ARG D 557     -27.429  -1.220 -16.441  1.00 35.49     0.178 HD
ENDBRANCH   4   5
ENDBRANCH   3   4
ENDBRANCH   2   3
ENDBRANCH   1   2
END_RES ARG D 557
BEGIN_RES GLU D 570
REMARK  3 active torsions:
REMARK  status: ('A' for Active; 'I' for Inactive)
REMARK    5  A    between atoms: CA   and  CB  
REMARK    6  A    between atoms: CB   and  CG  
REMARK    7  A    between atoms: CG   and  CD  
ROOT
ATOM     14  CA  GLU D 570     -18.033  -6.348 -13.375  1.00 32.92     0.160 C 
ENDROOT
BRANCH  14  15
ATOM     15  CB  GLU D 570     -19.500  -6.345 -13.794  1.00 32.92     0.043 C 
BRANCH  15  16
ATOM     16  CG  GLU D 570     -20.449  -5.566 -12.958  1.00 32.92     0.100 C 
BRANCH  16  17
ATOM     17  CD  GLU D 570     -21.709  -5.182 -13.698  1.00 32.92     0.185 C 
ATOM     18  OE1 GLU D 570     -22.761  -5.009 -13.054  1.00 32.92    -0.647 OA
ATOM     19  OE2 GLU D 570     -21.646  -5.068 -14.939  1.00 32.92    -0.647 OA
ENDBRANCH  16  17
ENDBRANCH  15  16
ENDBRANCH  14  15
END_RES GLU D 570
ENDMDL
MODEL 8
REMARK VINA RESULT:      -7.7      1.587      4.342
REMARK  22 active torsions:
REMARK  status: ('A' for Active; 'I' for Inactive)
REMARK    1  A    between atoms: C_2  and  C_3 
REMARK    2  A    between atoms: C_3  and  C_4 
REMARK    3  A    between atoms: C_4  and  C_5 
REMARK    4  A    between atoms: C_5  and  C_6 
REMARK    5  A    between atoms: C_6  and  C_7 
REMARK    6  A    between atoms: C_7  and  C_8 
REMARK    7  A    between atoms: C_7  and  C_31 
REMARK    8  A    between atoms: C_8  and  C_9 
REMARK    9  A    between atoms: C_10  and  C_11 
REMARK   10  A    between atoms: C_11  and  C_12 
REMARK   11  A    between atoms: C_12  and  C_13 
REMARK   12  A    between atoms: C_13  and  C_14 
REMARK   13  A    between atoms: C_14  and  C_15 
REMARK   14  A    between atoms: C_15  and  C_16 
REMARK   15  A    between atoms: C_16  and  C_17 
REMARK   16  A    between atoms: C_17  and  C_18 
REMARK       I    between atoms: C_18  and  N_20 
REMARK   17  A    between atoms: N_20  and  C_21 
REMARK   18  A    between atoms: C_21  and  C_22 
REMARK   19  A    between atoms: C_25  and  O_26 
REMARK   20  A    between atoms: C_27  and  O_28 
REMARK   21  A    between atoms: C_31  and  C_33 
REMARK   22  A    between atoms: C_33  and  C_34 
ROOT
HETATM    1  C   UNL     1     -22.640  -7.936   0.515  1.00  0.00     0.004 C 
ENDROOT
BRANCH   1   2
HETATM    2  C   UNL     1     -21.466  -8.531   1.287  1.00  0.00     0.027 C 
BRANCH   2   3
HETATM    3  C   UNL     1     -20.665  -9.508   0.487  1.00  0.00    -0.031 C 
HETATM    4  C   UNL     1     -20.710 -10.824   0.727  1.00  0.00    -0.030 C 
BRANCH   4   5
HETATM    5  C   UNL     1     -19.743 -11.812   0.147  1.00  0.00     0.039 C 
BRANCH   5   6
HETATM    6  C   UNL     1     -19.157 -11.316  -1.191  1.00  0.00     0.059 C 
BRANCH   6   7
HETATM    7  C   UNL     1     -20.060 -11.635  -2.409  1.00  0.00     0.012 C 
BRANCH   7   8
HETATM    8  C   UNL     1     -20.785 -10.447  -3.040  1.00  0.00     0.001 C 
BRANCH   8   9
HETATM    9  C   UNL     1     -22.280 -10.689  -3.244  1.00  0.00     0.000 C 
BRANCH   9  10
HETATM   10  C   UNL     1     -22.788 -11.712  -2.230  1.00  0.00    -0.000 C 
BRANCH  10  11
HETATM   11  C   UNL     1     -23.811 -11.105  -1.276  1.00  0.00    -0.005 C 
HETATM   12  C   UNL     1     -23.858 -11.882   0.030  1.00  0.00     0.005 C 
ENDBRANCH  10  11
ENDBRANCH   9  10
ENDBRANCH   8   9
ENDBRANCH   7   8
ENDBRANCH   6   7
BRANCH   6  13
HETATM   13  C   UNL     1     -17.753 -11.900  -1.440  1.00  0.00     0.135 C 
HETATM   14  O   UNL     1     -16.799 -11.637  -0.699  1.00  0.00    -0.297 OA
BRANCH  13  15
HETATM   15  C   UNL     1     -17.565 -12.877  -2.586  1.00  0.00     0.117 C 
BRANCH  15  16
HETATM   16  C   UNL     1     -16.535 -12.429  -3.590  1.00  0.00    -0.051 A 
HETATM   17  C   UNL     1     -16.855 -11.475  -4.564  1.00  0.00     0.007 A 
HETATM   18  C   UNL     1     -15.879 -11.018  -5.451  1.00  0.00     0.001 A 
HETATM   19  C   UNL     1     -14.575 -11.505  -5.369  1.00  0.00     0.000 A 
HETATM   20  C   UNL     1     -14.250 -12.460  -4.409  1.00  0.00     0.001 A 
HETATM   21  C   UNL     1     -15.224 -12.922  -3.525  1.00  0.00     0.007 A 
ENDBRANCH  15  16
ENDBRANCH  13  15
ENDBRANCH   6  13
ENDBRANCH   5   6
ENDBRANCH   4   5
ENDBRANCH   2   3
ENDBRANCH   1   2
BRANCH   1  22
HETATM   22  C   UNL     1     -22.318  -7.784  -0.975  1.00  0.00     0.000 C 
BRANCH  22  23
HETATM   23  C   UNL     1     -22.299  -6.318  -1.399  1.00  0.00     0.000 C 
BRANCH  23  24
HETATM   24  C   UNL     1     -21.395  -6.068  -2.594  1.00  0.00     0.000 C 
BRANCH  24  25
HETATM   25  C   UNL     1     -21.979  -6.765  -3.823  1.00  0.00     0.009 C 
BRANCH  25  26
HETATM   26  C   UNL     1     -21.598  -6.006  -5.079  1.00  0.00     0.103 C 
BRANCH  26  27
HETATM   27  C   UNL     1     -21.099  -6.907  -6.186  1.00  0.00     0.217 C 
HETATM   28  O   UNL     1     -20.947  -8.121  -6.069  1.00  0.00    -0.274 OA
HETATM   29  N   UNL     1     -20.814  -6.305  -7.381  1.00  0.00    -0.357 N 
HETATM   30  H   UNL     1     -20.443  -6.934  -8.081  1.00  0.00     0.162 HD
BRANCH  29  31
HETATM   31  C   UNL     1     -20.809  -4.882  -7.649  1.00  0.00     0.161 C 
BRANCH  31  32
HETATM   32  C   UNL     1     -21.918  -4.458  -8.582  1.00  0.00    -0.038 A 
HETATM   33  C   UNL     1     -23.181  -4.095  -8.095  1.00  0.00     0.012 A 
HETATM   34  C   UNL     1     -24.183  -3.672  -8.968  1.00  0.00     0.040 A 
HETATM   35  C   UNL     1     -23.923  -3.600 -10.335  1.00  0.00     0.099 A 
HETATM   36  C   UNL     1     -22.673  -3.962 -10.852  1.00  0.00     0.101 A 
HETATM   37  C   UNL     1     -21.675  -4.386  -9.967  1.00  0.00     0.048 A 
BRANCH  35  38
HETATM   38  O   UNL     1     -24.902  -3.167 -11.190  1.00  0.00    -0.358 OA
HETATM   39  H   UNL     1     -25.478  -2.545 -10.721  1.00  0.00     0.217 HD
ENDBRANCH  35  38
BRANCH  36  40
HETATM   40  O   UNL     1     -22.525  -3.861 -12.211  1.00  0.00    -0.353 OA
HETATM   41  C   UNL     1     -22.829  -5.005 -12.993  1.00  0.00     0.210 C 
ENDBRANCH  36  40
ENDBRANCH  31  32
ENDBRANCH  29  31
ENDBRANCH  26  27
ENDBRANCH  25  26
ENDBRANCH  24  25
ENDBRANCH  23  24
ENDBRANCH  22  23
ENDBRANCH   1  22
TORSDOF 22
BEGIN_RES ARG D 557
REMARK  4 active torsions:
REMARK  status: ('A' for Active; 'I' for Inactive)
REMARK    1  A    between atoms: CA   and  CB  
REMARK    2  A    between atoms: CB   and  CG  
REMARK    3  A    between atoms: CG   and  CD  
REMARK    4  A    between atoms: CD   and  NE  
REMARK       I    between atoms: NE   and  CZ  
REMARK       I    between atoms: CZ   and  NH1 
REMARK       I    between atoms: CZ   and  NH2 
ROOT
ATOM      1  CA  ARG D 557     -26.217   2.705 -17.014  1.00 35.49     0.159 C 
ENDROOT
BRANCH   1   2
ATOM      2  CB  ARG D 557     -26.789   1.319 -17.183  1.00 35.49     0.034 C 
BRANCH   2   3
ATOM      3  CG  ARG D 557     -25.837   0.202 -17.145  1.00 35.49     0.027 C 
BRANCH   3   4
ATOM      4  CD  ARG D 557     -25.379  -0.102 -15.771  1.00 35.49     0.116 C 
BRANCH   4   5
ATOM      5  NE  ARG D 557     -25.827  -1.395 -15.323  1.00 35.49    -0.212 N 
ATOM      6  CZ  ARG D 557     -25.238  -2.140 -14.415  1.00 35.49     0.666 C 
ATOM      7  NH1 ARG D 557     -24.125  -1.772 -13.808  1.00 35.49    -0.235 N 
ATOM      8  NH2 ARG D 557     -25.797  -3.277 -14.117  1.00 35.49    -0.235 N 
ATOM      9  HH  ARG D 557     -23.741  -1.027 -13.987  1.00 35.49     0.174 HD
ATOM     10  HH  ARG D 557     -23.788  -2.298 -13.222  1.00 35.49     0.174 HD
ATOM     11  HH  ARG D 557     -26.519  -3.486 -14.520  1.00 35.49     0.174 HD
ATOM     12  HH  ARG D 557     -25.449  -3.783 -13.533  1.00 35.49     0.174 HD
ATOM     13  HE  ARG D 557     -26.498  -1.742 -15.714  1.00 35.49     0.178 HD
ENDBRANCH   4   5
ENDBRANCH   3   4
ENDBRANCH   2   3
ENDBRANCH   1   2
END_RES ARG D 557
BEGIN_RES GLU D 570
REMARK  3 active torsions:
REMARK  status: ('A' for Active; 'I' for Inactive)
REMARK    5  A    between atoms: CA   and  CB  
REMARK    6  A    between atoms: CB   and  CG  
REMARK    7  A    between atoms: CG   and  CD  
ROOT
ATOM     14  CA  GLU D 570     -18.033  -6.348 -13.375  1.00 32.92     0.160 C 
ENDROOT
BRANCH  14  15
ATOM     15  CB  GLU D 570     -19.500  -6.345 -13.794  1.00 32.92     0.043 C 
BRANCH  15  16
ATOM     16  CG  GLU D 570     -20.095  -7.641 -14.212  1.00 32.92     0.100 C 
BRANCH  16  17
ATOM     17  CD  GLU D 570     -20.798  -7.563 -15.547  1.00 32.92     0.185 C 
ATOM     18  OE1 GLU D 570     -20.823  -8.573 -16.277  1.00 32.92    -0.647 OA
ATOM     19  OE2 GLU D 570     -21.314  -6.477 -15.874  1.00 32.92    -0.647 OA
ENDBRANCH  16  17
ENDBRANCH  15  16
ENDBRANCH  14  15
END_RES GLU D 570
ENDMDL
MODEL 9
REMARK VINA RESULT:      -7.7      1.818      3.908
REMARK  22 active torsions:
REMARK  status: ('A' for Active; 'I' for Inactive)
REMARK    1  A    between atoms: C_2  and  C_3 
REMARK    2  A    between atoms: C_3  and  C_4 
REMARK    3  A    between atoms: C_4  and  C_5 
REMARK    4  A    between atoms: C_5  and  C_6 
REMARK    5  A    between atoms: C_6  and  C_7 
REMARK    6  A    between atoms: C_7  and  C_8 
REMARK    7  A    between atoms: C_7  and  C_31 
REMARK    8  A    between atoms: C_8  and  C_9 
REMARK    9  A    between atoms: C_10  and  C_11 
REMARK   10  A    between atoms: C_11  and  C_12 
REMARK   11  A    between atoms: C_12  and  C_13 
REMARK   12  A    between atoms: C_13  and  C_14 
REMARK   13  A    between atoms: C_14  and  C_15 
REMARK   14  A    between atoms: C_15  and  C_16 
REMARK   15  A    between atoms: C_16  and  C_17 
REMARK   16  A    between atoms: C_17  and  C_18 
REMARK       I    between atoms: C_18  and  N_20 
REMARK   17  A    between atoms: N_20  and  C_21 
REMARK   18  A    between atoms: C_21  and  C_22 
REMARK   19  A    between atoms: C_25  and  O_26 
REMARK   20  A    between atoms: C_27  and  O_28 
REMARK   21  A    between atoms: C_31  and  C_33 
REMARK   22  A    between atoms: C_33  and  C_34 
ROOT
HETATM    1  C   UNL     1     -17.134  -9.621  -3.263  1.00  0.00     0.004 C 
ENDROOT
BRANCH   1   2
HETATM    2  C   UNL     1     -16.102 -10.425  -2.478  1.00  0.00     0.027 C 
BRANCH   2   3
HETATM    3  C   UNL     1     -16.712 -11.373  -1.496  1.00  0.00    -0.031 C 
HETATM    4  C   UNL     1     -18.016 -11.340  -1.197  1.00  0.00    -0.030 C 
BRANCH   4   5
HETATM    5  C   UNL     1     -18.628 -12.073  -0.042  1.00  0.00     0.039 C 
BRANCH   5   6
HETATM    6  C   UNL     1     -20.089 -12.477  -0.334  1.00  0.00     0.059 C 
BRANCH   6   7
HETATM    7  C   UNL     1     -20.476 -12.331  -1.827  1.00  0.00     0.012 C 
BRANCH   7   8
HETATM    8  C   UNL     1     -21.837 -12.895  -2.230  1.00  0.00     0.001 C 
BRANCH   8   9
HETATM    9  C   UNL     1     -22.824 -11.824  -2.690  1.00  0.00     0.000 C 
BRANCH   9  10
HETATM   10  C   UNL     1     -22.171 -10.925  -3.738  1.00  0.00    -0.000 C 
BRANCH  10  11
HETATM   11  C   UNL     1     -21.648 -11.727  -4.925  1.00  0.00    -0.005 C 
HETATM   12  C   UNL     1     -22.786 -12.437  -5.639  1.00  0.00     0.005 C 
ENDBRANCH  10  11
ENDBRANCH   9  10
ENDBRANCH   8   9
ENDBRANCH   7   8
ENDBRANCH   6   7
BRANCH   6  13
HETATM   13  C   UNL     1     -21.078 -11.664   0.523  1.00  0.00     0.135 C 
HETATM   14  O   UNL     1     -22.174 -12.126   0.863  1.00  0.00    -0.297 OA
BRANCH  13  15
HETATM   15  C   UNL     1     -20.657 -10.292   1.014  1.00  0.00     0.117 C 
BRANCH  15  16
HETATM   16  C   UNL     1     -21.253  -9.163   0.213  1.00  0.00    -0.051 A 
HETATM   17  C   UNL     1     -22.378  -8.472   0.681  1.00  0.00     0.007 A 
HETATM   18  C   UNL     1     -22.886  -7.386  -0.033  1.00  0.00     0.001 A 
HETATM   19  C   UNL     1     -22.273  -6.978  -1.217  1.00  0.00     0.000 A 
HETATM   20  C   UNL     1     -21.159  -7.665  -1.694  1.00  0.00     0.001 A 
HETATM   21  C   UNL     1     -20.652  -8.752  -0.985  1.00  0.00     0.007 A 
ENDBRANCH  15  16
ENDBRANCH  13  15
ENDBRANCH   6  13
ENDBRANCH   5   6
ENDBRANCH   4   5
ENDBRANCH   2   3
ENDBRANCH   1   2
BRANCH   1  22
HETATM   22  C   UNL     1     -17.165 -10.027  -4.739  1.00  0.00     0.000 C 
BRANCH  22  23
HETATM   23  C   UNL     1     -18.479  -9.626  -5.405  1.00  0.00     0.000 C 
BRANCH  23  24
HETATM   24  C   UNL     1     -19.329  -8.726  -4.524  1.00  0.00     0.000 C 
BRANCH  24  25
HETATM   25  C   UNL     1     -20.455  -8.118  -5.360  1.00  0.00     0.009 C 
BRANCH  25  26
HETATM   26  C   UNL     1     -20.499  -6.617  -5.156  1.00  0.00     0.103 C 
BRANCH  26  27
HETATM   27  C   UNL     1     -21.820  -6.003  -5.561  1.00  0.00     0.217 C 
HETATM   28  O   UNL     1     -22.897  -6.283  -5.040  1.00  0.00    -0.274 OA
HETATM   29  N   UNL     1     -21.779  -5.080  -6.570  1.00  0.00    -0.357 N 
HETATM   30  H   UNL     1     -22.687  -4.725  -6.840  1.00  0.00     0.162 HD
BRANCH  29  31
HETATM   31  C   UNL     1     -20.628  -4.735  -7.377  1.00  0.00     0.161 C 
BRANCH  31  32
HETATM   32  C   UNL     1     -20.998  -4.325  -8.781  1.00  0.00    -0.038 A 
HETATM   33  C   UNL     1     -20.062  -4.366  -9.824  1.00  0.00     0.012 A 
HETATM   34  C   UNL     1     -20.431  -4.017 -11.123  1.00  0.00     0.040 A 
HETATM   35  C   UNL     1     -21.744  -3.632 -11.388  1.00  0.00     0.099 A 
HETATM   36  C   UNL     1     -22.700  -3.574 -10.366  1.00  0.00     0.101 A 
HETATM   37  C   UNL     1     -22.319  -3.926  -9.067  1.00  0.00     0.048 A 
BRANCH  35  38
HETATM   38  O   UNL     1     -22.110  -3.307 -12.667  1.00  0.00    -0.358 OA
HETATM   39  H   UNL     1     -21.960  -4.072 -13.243  1.00  0.00     0.217 HD
ENDBRANCH  35  38
BRANCH  36  40
HETATM   40  O   UNL     1     -23.959  -3.177 -10.734  1.00  0.00    -0.353 OA
HETATM   41  C   UNL     1     -24.969  -3.182  -9.737  1.00  0.00     0.210 C 
ENDBRANCH  36  40
ENDBRANCH  31  32
ENDBRANCH  29  31
ENDBRANCH  26  27
ENDBRANCH  25  26
ENDBRANCH  24  25
ENDBRANCH  23  24
ENDBRANCH  22  23
ENDBRANCH   1  22
TORSDOF 22
BEGIN_RES ARG D 557
REMARK  4 active torsions:
REMARK  status: ('A' for Active; 'I' for Inactive)
REMARK    1  A    between atoms: CA   and  CB  
REMARK    2  A    between atoms: CB   and  CG  
REMARK    3  A    between atoms: CG   and  CD  
REMARK    4  A    between atoms: CD   and  NE  
REMARK       I    between atoms: NE   and  CZ  
REMARK       I    between atoms: CZ   and  NH1 
REMARK       I    between atoms: CZ   and  NH2 
ROOT
ATOM      1  CA  ARG D 557     -26.217   2.705 -17.014  1.00 35.49     0.159 C 
ENDROOT
BRANCH   1   2
ATOM      2  CB  ARG D 557     -26.789   1.319 -17.183  1.00 35.49     0.034 C 
BRANCH   2   3
ATOM      3  CG  ARG D 557     -28.231   1.166 -16.951  1.00 35.49     0.027 C 
BRANCH   3   4
ATOM      4  CD  ARG D 557     -28.624  -0.247 -16.753  1.00 35.49     0.116 C 
BRANCH   4   5
ATOM      5  NE  ARG D 557     -27.607  -1.002 -16.068  1.00 35.49    -0.212 N 
ATOM      6  CZ  ARG D 557     -27.453  -2.306 -16.120  1.00 35.49     0.666 C 
ATOM      7  NH1 ARG D 557     -28.254  -3.088 -16.821  1.00 35.49    -0.235 N 
ATOM      8  NH2 ARG D 557     -26.462  -2.820 -15.451  1.00 35.49    -0.235 N 
ATOM      9  HH  ARG D 557     -28.911  -2.771 -17.270  1.00 35.49     0.174 HD
ATOM     10  HH  ARG D 557     -28.103  -3.931 -16.819  1.00 35.49     0.174 HD
ATOM     11  HH  ARG D 557     -25.957  -2.290 -15.014  1.00 35.49     0.174 HD
ATOM     12  HH  ARG D 557     -26.328  -3.657 -15.463  1.00 35.49     0.174 HD
ATOM     13  HE  ARG D 557     -27.092  -0.585 -15.535  1.00 35.49     0.178 HD
ENDBRANCH   4   5
ENDBRANCH   3   4
ENDBRANCH   2   3
ENDBRANCH   1   2
END_RES ARG D 557
BEGIN_RES GLU D 570
REMARK  3 active torsions:
REMARK  status: ('A' for Active; 'I' for Inactive)
REMARK    5  A    between atoms: CA   and  CB  
REMARK    6  A    between atoms: CB   and  CG  
REMARK    7  A    between atoms: CG   and  CD  
ROOT
ATOM     14  CA  GLU D 570     -18.033  -6.348 -13.375  1.00 32.92     0.160 C 
ENDROOT
BRANCH  14  15
ATOM     15  CB  GLU D 570     -19.500  -6.345 -13.794  1.00 32.92     0.043 C 
BRANCH  15  16
ATOM     16  CG  GLU D 570     -19.817  -5.896 -15.174  1.00 32.92     0.100 C 
BRANCH  16  17
ATOM     17  CD  GLU D 570     -21.295  -5.674 -15.397  1.00 32.92     0.185 C 
ATOM     18  OE1 GLU D 570     -21.739  -5.680 -16.562  1.00 32.92    -0.647 OA
ATOM     19  OE2 GLU D 570     -22.013  -5.475 -14.398  1.00 32.92    -0.647 OA
ENDBRANCH  16  17
ENDBRANCH  15  16
ENDBRANCH  14  15
END_RES GLU D 570
ENDMDL
