MODEL 1
REMARK VINA RESULT:     -10.8      0.000      0.000
REMARK  11 active torsions:
REMARK  status: ('A' for Active; 'I' for Inactive)
REMARK    1  A    between atoms: C_2  and  C_4 
REMARK    2  A    between atoms: C_10  and  C_11 
REMARK    3  A    between atoms: C_11  and  C_12 
REMARK    4  A    between atoms: C_22  and  C_23 
REMARK    5  A    between atoms: C_23  and  O_24 
REMARK    6  A    between atoms: O_24  and  C_25 
REMARK    7  A    between atoms: C_25  and  C_27 
REMARK    8  A    between atoms: C_27  and  C_28 
REMARK    9  A    between atoms: C_31  and  O_32 
REMARK   10  A    between atoms: C_33  and  O_34 
REMARK   11  A    between atoms: C_38  and  O_39 
ROOT
HETATM    1  C   UNL     1     -19.726 -12.223  -6.042  1.00  0.00     0.116 C 
HETATM    2  C   UNL     1     -20.548 -12.928  -4.948  1.00  0.00     0.053 C 
HETATM    3  C   UNL     1     -20.127 -12.586  -3.541  1.00  0.00     0.020 C 
HETATM    4  C   UNL     1     -18.908 -13.390  -3.001  1.00  0.00     0.013 C 
HETATM    5  C   UNL     1     -19.904 -11.064  -3.355  1.00  0.00     0.083 C 
HETATM    6  O   UNL     1     -18.513 -10.831  -3.693  1.00  0.00    -0.320 OA
HETATM    7  C   UNL     1     -18.218 -10.726  -5.151  1.00  0.00     0.288 C 
HETATM    8  O   UNL     1     -18.943  -9.824  -5.937  1.00  0.00    -0.323 OA
HETATM    9  C   UNL     1     -20.193 -10.489  -5.823  1.00  0.00     0.173 C 
HETATM   10  C   UNL     1     -20.582 -10.067  -4.300  1.00  0.00     0.054 C 
HETATM   11  C   UNL     1     -19.890  -8.678  -3.802  1.00  0.00     0.017 C 
HETATM   12  C   UNL     1     -20.456  -7.863  -2.899  1.00  0.00     0.014 C 
HETATM   13  C   UNL     1     -20.156  -8.200  -1.446  1.00  0.00     0.053 C 
HETATM   14  C   UNL     1     -20.897  -9.501  -1.168  1.00  0.00     0.125 C 
HETATM   15  C   UNL     1     -20.872  -9.909   0.294  1.00  0.00     0.165 C 
HETATM   16  O   UNL     1     -21.186  -9.185   1.230  1.00  0.00    -0.294 OA
HETATM   17  C   UNL     1     -20.665 -11.390   0.444  1.00  0.00     0.055 C 
HETATM   18  C   UNL     1     -22.035 -12.021   0.654  1.00  0.00     0.018 C 
HETATM   19  C   UNL     1     -19.930 -11.631  -0.667  1.00  0.00     0.023 C 
HETATM   20  C   UNL     1     -20.450 -10.819  -1.855  1.00  0.00     0.064 C 
HETATM   21  O   UNL     1     -18.388 -11.975  -5.640  1.00  0.00    -0.314 OA
ENDROOT
BRANCH  12  22
HETATM   22  C   UNL     1     -21.776  -7.221  -3.154  1.00  0.00     0.183 C 
BRANCH  22  23
HETATM   23  O   UNL     1     -21.554  -5.956  -3.781  1.00  0.00    -0.321 OA
BRANCH  23  24
HETATM   24  C   UNL     1     -21.379  -6.007  -5.129  1.00  0.00     0.263 C 
HETATM   25  O   UNL     1     -21.810  -6.876  -5.875  1.00  0.00    -0.265 OA
BRANCH  24  26
HETATM   26  C   UNL     1     -20.549  -4.841  -5.579  1.00  0.00     0.149 C 
BRANCH  26  27
HETATM   27  C   UNL     1     -20.862  -4.449  -6.990  1.00  0.00    -0.046 A 
HETATM   28  C   UNL     1     -19.844  -4.455  -7.944  1.00  0.00     0.010 A 
HETATM   29  C   UNL     1     -20.099  -4.038  -9.267  1.00  0.00     0.040 A 
HETATM   30  C   UNL     1     -21.397  -3.725  -9.633  1.00  0.00     0.099 A 
HETATM   31  C   UNL     1     -22.458  -3.773  -8.694  1.00  0.00     0.101 A 
HETATM   32  C   UNL     1     -22.185  -4.166  -7.380  1.00  0.00     0.047 A 
BRANCH  30  33
HETATM   33  O   UNL     1     -21.635  -3.293 -10.909  1.00  0.00    -0.358 OA
HETATM   34  H   UNL     1     -21.262  -2.405 -11.014  1.00  0.00     0.217 HD
ENDBRANCH  30  33
BRANCH  31  35
HETATM   35  O   UNL     1     -23.772  -3.490  -8.942  1.00  0.00    -0.353 OA
HETATM   36  C   UNL     1     -24.469  -4.438  -9.741  1.00  0.00     0.210 C 
ENDBRANCH  31  35
ENDBRANCH  26  27
ENDBRANCH  24  26
ENDBRANCH  23  24
ENDBRANCH  22  23
ENDBRANCH  12  22
BRANCH  14  37
HETATM   37  O   UNL     1     -22.324  -9.317  -1.400  1.00  0.00    -0.382 OA
HETATM   38  H   UNL     1     -22.709 -10.215  -1.466  1.00  0.00     0.211 HD
ENDBRANCH  14  37
BRANCH   1  39
HETATM   39  C   UNL     1     -18.973 -13.511  -6.849  1.00  0.00    -0.056 C 
HETATM   40  C   UNL     1     -17.820 -14.125  -6.467  1.00  0.00     0.017 C 
HETATM   41  C   UNL     1     -19.201 -13.770  -8.416  1.00  0.00     0.046 C 
ENDBRANCH   1  39
BRANCH   7  42
HETATM   42  C   UNL     1     -16.789 -10.413  -5.179  1.00  0.00     0.140 C 
BRANCH  42  43
HETATM   43  C   UNL     1     -15.546 -11.206  -5.376  1.00  0.00    -0.051 A 
HETATM   44  C   UNL     1     -14.871 -11.725  -6.466  1.00  0.00     0.007 A 
HETATM   45  C   UNL     1     -13.749 -12.556  -6.186  1.00  0.00     0.001 A 
HETATM   46  C   UNL     1     -13.338 -12.816  -4.911  1.00  0.00     0.000 A 
HETATM   47  C   UNL     1     -14.076 -12.413  -3.794  1.00  0.00     0.001 A 
HETATM   48  C   UNL     1     -15.182 -11.626  -4.075  1.00  0.00     0.007 A 
ENDBRANCH  42  43
ENDBRANCH   7  42
TORSDOF 11
BEGIN_RES ARG D 557
REMARK  4 active torsions:
REMARK  status: ('A' for Active; 'I' for Inactive)
REMARK    1  A    between atoms: CA   and  CB  
REMARK    2  A    between atoms: CB   and  CG  
REMARK    3  A    between atoms: CG   and  CD  
REMARK    4  A    between atoms: CD   and  NE  
REMARK       I    between atoms: NE   and  CZ  
REMARK       I    between atoms: CZ   and  NH1 
REMARK       I    between atoms: CZ   and  NH2 
ROOT
ATOM      1  CA  ARG D 557     -26.217   2.705 -17.014  1.00 35.49     0.159 C 
ENDROOT
BRANCH   1   2
ATOM      2  CB  ARG D 557     -26.789   1.319 -17.183  1.00 35.49     0.034 C 
BRANCH   2   3
ATOM      3  CG  ARG D 557     -25.869   0.195 -16.975  1.00 35.49     0.027 C 
BRANCH   3   4
ATOM      4  CD  ARG D 557     -26.302  -0.692 -15.871  1.00 35.49     0.116 C 
BRANCH   4   5
ATOM      5  NE  ARG D 557     -25.249  -0.928 -14.919  1.00 35.49    -0.212 N 
ATOM      6  CZ  ARG D 557     -24.959  -2.084 -14.365  1.00 35.49     0.666 C 
ATOM      7  NH1 ARG D 557     -25.639  -3.185 -14.624  1.00 35.49    -0.235 N 
ATOM      8  NH2 ARG D 557     -23.954  -2.118 -13.538  1.00 35.49    -0.235 N 
ATOM      9  HH  ARG D 557     -26.302  -3.186 -15.166  1.00 35.49     0.174 HD
ATOM     10  HH  ARG D 557     -25.402  -3.911 -14.234  1.00 35.49     0.174 HD
ATOM     11  HH  ARG D 557     -23.528  -1.393 -13.395  1.00 35.49     0.174 HD
ATOM     12  HH  ARG D 557     -23.735  -2.846 -13.164  1.00 35.49     0.174 HD
ATOM     13  HE  ARG D 557     -24.805  -0.258 -14.640  1.00 35.49     0.178 HD
ENDBRANCH   4   5
ENDBRANCH   3   4
ENDBRANCH   2   3
ENDBRANCH   1   2
END_RES ARG D 557
BEGIN_RES GLU D 570
REMARK  3 active torsions:
REMARK  status: ('A' for Active; 'I' for Inactive)
REMARK    5  A    between atoms: CA   and  CB  
REMARK    6  A    between atoms: CB   and  CG  
REMARK    7  A    between atoms: CG   and  CD  
ROOT
ATOM     14  CA  GLU D 570     -18.033  -6.348 -13.375  1.00 32.92     0.160 C 
ENDROOT
BRANCH  14  15
ATOM     15  CB  GLU D 570     -19.500  -6.345 -13.794  1.00 32.92     0.043 C 
BRANCH  15  16
ATOM     16  CG  GLU D 570     -20.446  -5.551 -12.968  1.00 32.92     0.100 C 
BRANCH  16  17
ATOM     17  CD  GLU D 570     -21.705  -5.173 -13.713  1.00 32.92     0.185 C 
ATOM     18  OE1 GLU D 570     -21.682  -5.134 -14.958  1.00 32.92    -0.647 OA
ATOM     19  OE2 GLU D 570     -22.720  -4.896 -13.044  1.00 32.92    -0.647 OA
ENDBRANCH  16  17
ENDBRANCH  15  16
ENDBRANCH  14  15
END_RES GLU D 570
ENDMDL
MODEL 2
REMARK VINA RESULT:     -10.7      1.471      2.077
REMARK  11 active torsions:
REMARK  status: ('A' for Active; 'I' for Inactive)
REMARK    1  A    between atoms: C_2  and  C_4 
REMARK    2  A    between atoms: C_10  and  C_11 
REMARK    3  A    between atoms: C_11  and  C_12 
REMARK    4  A    between atoms: C_22  and  C_23 
REMARK    5  A    between atoms: C_23  and  O_24 
REMARK    6  A    between atoms: O_24  and  C_25 
REMARK    7  A    between atoms: C_25  and  C_27 
REMARK    8  A    between atoms: C_27  and  C_28 
REMARK    9  A    between atoms: C_31  and  O_32 
REMARK   10  A    between atoms: C_33  and  O_34 
REMARK   11  A    between atoms: C_38  and  O_39 
ROOT
HETATM    1  C   UNL     1     -19.637 -12.664  -4.936  1.00  0.00     0.116 C 
HETATM    2  C   UNL     1     -20.769 -12.699  -3.893  1.00  0.00     0.053 C 
HETATM    3  C   UNL     1     -20.624 -11.682  -2.789  1.00  0.00     0.020 C 
HETATM    4  C   UNL     1     -19.677 -12.099  -1.626  1.00  0.00     0.013 C 
HETATM    5  C   UNL     1     -20.238 -10.283  -3.334  1.00  0.00     0.083 C 
HETATM    6  O   UNL     1     -18.788 -10.266  -3.368  1.00  0.00    -0.320 OA
HETATM    7  C   UNL     1     -18.169 -10.931  -4.550  1.00  0.00     0.288 C 
HETATM    8  O   UNL     1     -18.571 -10.560  -5.838  1.00  0.00    -0.323 OA
HETATM    9  C   UNL     1     -19.895 -11.064  -5.737  1.00  0.00     0.173 C 
HETATM   10  C   UNL     1     -20.547  -9.914  -4.788  1.00  0.00     0.054 C 
HETATM   11  C   UNL     1     -19.796  -8.471  -4.886  1.00  0.00     0.017 C 
HETATM   12  C   UNL     1     -20.427  -7.304  -4.690  1.00  0.00     0.014 C 
HETATM   13  C   UNL     1     -20.504  -6.844  -3.243  1.00  0.00     0.053 C 
HETATM   14  C   UNL     1     -21.461  -7.811  -2.558  1.00  0.00     0.125 C 
HETATM   15  C   UNL     1     -21.815  -7.406  -1.138  1.00  0.00     0.165 C 
HETATM   16  O   UNL     1     -22.223  -6.301  -0.805  1.00  0.00    -0.294 OA
HETATM   17  C   UNL     1     -21.853  -8.598  -0.224  1.00  0.00     0.055 C 
HETATM   18  C   UNL     1     -23.310  -9.022  -0.093  1.00  0.00     0.018 C 
HETATM   19  C   UNL     1     -20.933  -9.381  -0.833  1.00  0.00     0.023 C 
HETATM   20  C   UNL     1     -21.061  -9.297  -2.355  1.00  0.00     0.064 C 
HETATM   21  O   UNL     1     -18.399 -12.252  -4.378  1.00  0.00    -0.314 OA
ENDROOT
BRANCH  12  22
HETATM   22  C   UNL     1     -21.557  -6.879  -5.564  1.00  0.00     0.183 C 
BRANCH  22  23
HETATM   23  O   UNL     1     -21.062  -6.695  -6.893  1.00  0.00    -0.321 OA
BRANCH  23  24
HETATM   24  C   UNL     1     -20.286  -5.592  -7.067  1.00  0.00     0.263 C 
HETATM   25  O   UNL     1     -19.064  -5.561  -7.029  1.00  0.00    -0.265 OA
BRANCH  24  26
HETATM   26  C   UNL     1     -21.156  -4.391  -7.296  1.00  0.00     0.149 C 
BRANCH  26  27
HETATM   27  C   UNL     1     -21.378  -4.136  -8.755  1.00  0.00    -0.046 A 
HETATM   28  C   UNL     1     -20.321  -4.314  -9.649  1.00  0.00     0.010 A 
HETATM   29  C   UNL     1     -20.487  -4.029 -11.021  1.00  0.00     0.040 A 
HETATM   30  C   UNL     1     -21.742  -3.674 -11.485  1.00  0.00     0.099 A 
HETATM   31  C   UNL     1     -22.844  -3.549 -10.602  1.00  0.00     0.101 A 
HETATM   32  C   UNL     1     -22.658  -3.812  -9.242  1.00  0.00     0.047 A 
BRANCH  30  33
HETATM   33  O   UNL     1     -21.892  -3.371 -12.810  1.00  0.00    -0.358 OA
HETATM   34  H   UNL     1     -22.676  -3.827 -13.149  1.00  0.00     0.217 HD
ENDBRANCH  30  33
BRANCH  31  35
HETATM   35  O   UNL     1     -24.123  -3.209 -10.947  1.00  0.00    -0.353 OA
HETATM   36  C   UNL     1     -25.081  -3.262  -9.897  1.00  0.00     0.210 C 
ENDBRANCH  31  35
ENDBRANCH  26  27
ENDBRANCH  24  26
ENDBRANCH  23  24
ENDBRANCH  22  23
ENDBRANCH  12  22
BRANCH  14  37
HETATM   37  O   UNL     1     -22.762  -7.766  -3.212  1.00  0.00    -0.382 OA
HETATM   38  H   UNL     1     -23.299  -7.117  -2.712  1.00  0.00     0.211 HD
ENDBRANCH  14  37
BRANCH   1  39
HETATM   39  C   UNL     1     -18.911 -14.189  -4.767  1.00  0.00    -0.056 C 
HETATM   40  C   UNL     1     -18.007 -14.739  -5.624  1.00  0.00     0.017 C 
HETATM   41  C   UNL     1     -19.608 -15.363  -3.926  1.00  0.00     0.046 C 
ENDBRANCH   1  39
BRANCH   7  42
HETATM   42  C   UNL     1     -16.739 -10.685  -4.358  1.00  0.00     0.140 C 
BRANCH  42  43
HETATM   43  C   UNL     1     -15.516 -11.532  -4.390  1.00  0.00    -0.051 A 
HETATM   44  C   UNL     1     -14.649 -12.045  -3.443  1.00  0.00     0.007 A 
HETATM   45  C   UNL     1     -13.496 -12.722  -3.933  1.00  0.00     0.001 A 
HETATM   46  C   UNL     1     -13.259 -12.881  -5.268  1.00  0.00     0.000 A 
HETATM   47  C   UNL     1     -14.047 -12.261  -6.243  1.00  0.00     0.001 A 
HETATM   48  C   UNL     1     -15.154 -11.582  -5.757  1.00  0.00     0.007 A 
ENDBRANCH  42  43
ENDBRANCH   7  42
TORSDOF 11
BEGIN_RES ARG D 557
REMARK  4 active torsions:
REMARK  status: ('A' for Active; 'I' for Inactive)
REMARK    1  A    between atoms: CA   and  CB  
REMARK    2  A    between atoms: CB   and  CG  
REMARK    3  A    between atoms: CG   and  CD  
REMARK    4  A    between atoms: CD   and  NE  
REMARK       I    between atoms: NE   and  CZ  
REMARK       I    between atoms: CZ   and  NH1 
REMARK       I    between atoms: CZ   and  NH2 
ROOT
ATOM      1  CA  ARG D 557     -26.217   2.705 -17.014  1.00 35.49     0.159 C 
ENDROOT
BRANCH   1   2
ATOM      2  CB  ARG D 557     -26.789   1.319 -17.183  1.00 35.49     0.034 C 
BRANCH   2   3
ATOM      3  CG  ARG D 557     -25.833   0.205 -17.177  1.00 35.49     0.027 C 
BRANCH   3   4
ATOM      4  CD  ARG D 557     -24.752   0.393 -16.183  1.00 35.49     0.116 C 
BRANCH   4   5
ATOM      5  NE  ARG D 557     -24.920  -0.454 -15.032  1.00 35.49    -0.212 N 
ATOM      6  CZ  ARG D 557     -24.106  -1.417 -14.662  1.00 35.49     0.666 C 
ATOM      7  NH1 ARG D 557     -23.017  -1.726 -15.343  1.00 35.49    -0.235 N 
ATOM      8  NH2 ARG D 557     -24.403  -2.072 -13.577  1.00 35.49    -0.235 N 
ATOM      9  HH  ARG D 557     -22.801  -1.307 -16.058  1.00 35.49     0.174 HD
ATOM     10  HH  ARG D 557     -22.522  -2.362 -15.052  1.00 35.49     0.174 HD
ATOM     11  HH  ARG D 557     -25.109  -1.846 -13.154  1.00 35.49     0.174 HD
ATOM     12  HH  ARG D 557     -23.900  -2.697 -13.305  1.00 35.49     0.174 HD
ATOM     13  HE  ARG D 557     -25.634  -0.373 -14.577  1.00 35.49     0.178 HD
ENDBRANCH   4   5
ENDBRANCH   3   4
ENDBRANCH   2   3
ENDBRANCH   1   2
END_RES ARG D 557
BEGIN_RES GLU D 570
REMARK  3 active torsions:
REMARK  status: ('A' for Active; 'I' for Inactive)
REMARK    5  A    between atoms: CA   and  CB  
REMARK    6  A    between atoms: CB   and  CG  
REMARK    7  A    between atoms: CG   and  CD  
ROOT
ATOM     14  CA  GLU D 570     -18.033  -6.348 -13.375  1.00 32.92     0.160 C 
ENDROOT
BRANCH  14  15
ATOM     15  CB  GLU D 570     -19.500  -6.345 -13.794  1.00 32.92     0.043 C 
BRANCH  15  16
ATOM     16  CG  GLU D 570     -19.817  -5.892 -15.173  1.00 32.92     0.100 C 
BRANCH  16  17
ATOM     17  CD  GLU D 570     -21.295  -5.667 -15.394  1.00 32.92     0.185 C 
ATOM     18  OE1 GLU D 570     -22.076  -6.631 -15.287  1.00 32.92    -0.647 OA
ATOM     19  OE2 GLU D 570     -21.673  -4.517 -15.695  1.00 32.92    -0.647 OA
ENDBRANCH  16  17
ENDBRANCH  15  16
ENDBRANCH  14  15
END_RES GLU D 570
ENDMDL
MODEL 3
REMARK VINA RESULT:     -10.6      1.729      2.196
REMARK  11 active torsions:
REMARK  status: ('A' for Active; 'I' for Inactive)
REMARK    1  A    between atoms: C_2  and  C_4 
REMARK    2  A    between atoms: C_10  and  C_11 
REMARK    3  A    between atoms: C_11  and  C_12 
REMARK    4  A    between atoms: C_22  and  C_23 
REMARK    5  A    between atoms: C_23  and  O_24 
REMARK    6  A    between atoms: O_24  and  C_25 
REMARK    7  A    between atoms: C_25  and  C_27 
REMARK    8  A    between atoms: C_27  and  C_28 
REMARK    9  A    between atoms: C_31  and  O_32 
REMARK   10  A    between atoms: C_33  and  O_34 
REMARK   11  A    between atoms: C_38  and  O_39 
ROOT
HETATM    1  C   UNL     1     -21.703 -13.323  -6.340  1.00  0.00     0.116 C 
HETATM    2  C   UNL     1     -22.689 -13.117  -5.176  1.00  0.00     0.053 C 
HETATM    3  C   UNL     1     -22.050 -12.616  -3.905  1.00  0.00     0.020 C 
HETATM    4  C   UNL     1     -21.392 -13.714  -3.019  1.00  0.00     0.013 C 
HETATM    5  C   UNL     1     -21.054 -11.459  -4.172  1.00  0.00     0.083 C 
HETATM    6  O   UNL     1     -19.774 -12.096  -4.416  1.00  0.00    -0.320 OA
HETATM    7  C   UNL     1     -19.576 -12.625  -5.795  1.00  0.00     0.288 C 
HETATM    8  O   UNL     1     -19.780 -11.782  -6.892  1.00  0.00    -0.323 OA
HETATM    9  C   UNL     1     -21.181 -11.632  -6.713  1.00  0.00     0.173 C 
HETATM   10  C   UNL     1     -21.181 -10.614  -5.444  1.00  0.00     0.054 C 
HETATM   11  C   UNL     1     -19.834  -9.706  -5.324  1.00  0.00     0.017 C 
HETATM   12  C   UNL     1     -19.824  -8.480  -4.780  1.00  0.00     0.014 C 
HETATM   13  C   UNL     1     -19.639  -8.444  -3.271  1.00  0.00     0.053 C 
HETATM   14  C   UNL     1     -20.926  -9.011  -2.688  1.00  0.00     0.125 C 
HETATM   15  C   UNL     1     -21.010  -8.887  -1.177  1.00  0.00     0.165 C 
HETATM   16  O   UNL     1     -20.832  -7.853  -0.547  1.00  0.00    -0.294 OA
HETATM   17  C   UNL     1     -21.594 -10.126  -0.559  1.00  0.00     0.055 C 
HETATM   18  C   UNL     1     -23.073  -9.858  -0.313  1.00  0.00     0.018 C 
HETATM   19  C   UNL     1     -21.175 -11.048  -1.458  1.00  0.00     0.023 C 
HETATM   20  C   UNL     1     -21.282 -10.509  -2.886  1.00  0.00     0.064 C 
HETATM   21  O   UNL     1     -20.406 -13.687  -5.893  1.00  0.00    -0.314 OA
ENDROOT
BRANCH  12  22
HETATM   22  C   UNL     1     -20.632  -7.369  -5.359  1.00  0.00     0.183 C 
BRANCH  22  23
HETATM   23  O   UNL     1     -20.023  -6.953  -6.583  1.00  0.00    -0.321 OA
BRANCH  23  24
HETATM   24  C   UNL     1     -20.024  -5.610  -6.795  1.00  0.00     0.263 C 
HETATM   25  O   UNL     1     -19.058  -4.866  -6.693  1.00  0.00    -0.265 OA
BRANCH  24  26
HETATM   26  C   UNL     1     -21.407  -5.154  -7.157  1.00  0.00     0.149 C 
BRANCH  26  27
HETATM   27  C   UNL     1     -21.493  -4.727  -8.590  1.00  0.00    -0.046 A 
HETATM   28  C   UNL     1     -20.343  -4.751  -9.381  1.00  0.00     0.010 A 
HETATM   29  C   UNL     1     -20.383  -4.303 -10.718  1.00  0.00     0.040 A 
HETATM   30  C   UNL     1     -21.601  -3.940 -11.267  1.00  0.00     0.099 A 
HETATM   31  C   UNL     1     -22.792  -3.968 -10.499  1.00  0.00     0.101 A 
HETATM   32  C   UNL     1     -22.732  -4.392  -9.168  1.00  0.00     0.047 A 
BRANCH  30  33
HETATM   33  O   UNL     1     -21.631  -3.478 -12.554  1.00  0.00    -0.358 OA
HETATM   34  H   UNL     1     -21.900  -2.547 -12.547  1.00  0.00     0.217 HD
ENDBRANCH  30  33
BRANCH  31  35
HETATM   35  O   UNL     1     -24.045  -3.635 -10.934  1.00  0.00    -0.353 OA
HETATM   36  C   UNL     1     -24.965  -3.238  -9.924  1.00  0.00     0.210 C 
ENDBRANCH  31  35
ENDBRANCH  26  27
ENDBRANCH  24  26
ENDBRANCH  23  24
ENDBRANCH  22  23
ENDBRANCH  12  22
BRANCH  14  37
HETATM   37  O   UNL     1     -22.061  -8.204  -3.116  1.00  0.00    -0.382 OA
HETATM   38  H   UNL     1     -21.714  -7.573  -3.779  1.00  0.00     0.211 HD
ENDBRANCH  14  37
BRANCH   1  39
HETATM   39  C   UNL     1     -21.791 -14.993  -6.628  1.00  0.00    -0.056 C 
HETATM   40  C   UNL     1     -20.772 -15.780  -7.070  1.00  0.00     0.017 C 
HETATM   41  C   UNL     1     -23.184 -15.715  -6.963  1.00  0.00     0.046 C 
ENDBRANCH   1  39
BRANCH   7  42
HETATM   42  C   UNL     1     -18.199 -13.120  -5.766  1.00  0.00     0.140 C 
BRANCH  42  43
HETATM   43  C   UNL     1     -16.866 -12.498  -5.549  1.00  0.00    -0.051 A 
HETATM   44  C   UNL     1     -16.413 -11.250  -5.159  1.00  0.00     0.007 A 
HETATM   45  C   UNL     1     -15.005 -11.039  -5.204  1.00  0.00     0.001 A 
HETATM   46  C   UNL     1     -14.135 -12.017  -5.592  1.00  0.00     0.000 A 
HETATM   47  C   UNL     1     -14.573 -13.238  -6.114  1.00  0.00     0.001 A 
HETATM   48  C   UNL     1     -15.946 -13.427  -6.090  1.00  0.00     0.007 A 
ENDBRANCH  42  43
ENDBRANCH   7  42
TORSDOF 11
BEGIN_RES ARG D 557
REMARK  4 active torsions:
REMARK  status: ('A' for Active; 'I' for Inactive)
REMARK    1  A    between atoms: CA   and  CB  
REMARK    2  A    between atoms: CB   and  CG  
REMARK    3  A    between atoms: CG   and  CD  
REMARK    4  A    between atoms: CD   and  NE  
REMARK       I    between atoms: NE   and  CZ  
REMARK       I    between atoms: CZ   and  NH1 
REMARK       I    between atoms: CZ   and  NH2 
ROOT
ATOM      1  CA  ARG D 557     -26.217   2.705 -17.014  1.00 35.49     0.159 C 
ENDROOT
BRANCH   1   2
ATOM      2  CB  ARG D 557     -26.789   1.319 -17.183  1.00 35.49     0.034 C 
BRANCH   2   3
ATOM      3  CG  ARG D 557     -25.843   0.199 -17.102  1.00 35.49     0.027 C 
BRANCH   3   4
ATOM      4  CD  ARG D 557     -24.760   0.446 -16.122  1.00 35.49     0.116 C 
BRANCH   4   5
ATOM      5  NE  ARG D 557     -24.840  -0.440 -14.991  1.00 35.49    -0.212 N 
ATOM      6  CZ  ARG D 557     -23.990  -1.401 -14.706  1.00 35.49     0.666 C 
ATOM      7  NH1 ARG D 557     -22.944  -1.671 -15.465  1.00 35.49    -0.235 N 
ATOM      8  NH2 ARG D 557     -24.208  -2.094 -13.626  1.00 35.49    -0.235 N 
ATOM      9  HH  ARG D 557     -22.781  -1.227 -16.179  1.00 35.49     0.174 HD
ATOM     10  HH  ARG D 557     -22.423  -2.308 -15.228  1.00 35.49     0.174 HD
ATOM     11  HH  ARG D 557     -24.887  -1.893 -13.151  1.00 35.49     0.174 HD
ATOM     12  HH  ARG D 557     -23.679  -2.720 -13.407  1.00 35.49     0.174 HD
ATOM     13  HE  ARG D 557     -25.524  -0.385 -14.488  1.00 35.49     0.178 HD
ENDBRANCH   4   5
ENDBRANCH   3   4
ENDBRANCH   2   3
ENDBRANCH   1   2
END_RES ARG D 557
BEGIN_RES GLU D 570
REMARK  3 active torsions:
REMARK  status: ('A' for Active; 'I' for Inactive)
REMARK    5  A    between atoms: CA   and  CB  
REMARK    6  A    between atoms: CB   and  CG  
REMARK    7  A    between atoms: CG   and  CD  
ROOT
ATOM     14  CA  GLU D 570     -18.033  -6.348 -13.375  1.00 32.92     0.160 C 
ENDROOT
BRANCH  14  15
ATOM     15  CB  GLU D 570     -19.500  -6.345 -13.794  1.00 32.92     0.043 C 
BRANCH  15  16
ATOM     16  CG  GLU D 570     -19.826  -5.811 -15.142  1.00 32.92     0.100 C 
BRANCH  16  17
ATOM     17  CD  GLU D 570     -21.311  -5.646 -15.367  1.00 32.92     0.185 C 
ATOM     18  OE1 GLU D 570     -22.031  -6.661 -15.426  1.00 32.92    -0.647 OA
ATOM     19  OE2 GLU D 570     -21.756  -4.490 -15.503  1.00 32.92    -0.647 OA
ENDBRANCH  16  17
ENDBRANCH  15  16
ENDBRANCH  14  15
END_RES GLU D 570
ENDMDL
MODEL 4
REMARK VINA RESULT:     -10.4      2.083      3.632
REMARK  11 active torsions:
REMARK  status: ('A' for Active; 'I' for Inactive)
REMARK    1  A    between atoms: C_2  and  C_4 
REMARK    2  A    between atoms: C_10  and  C_11 
REMARK    3  A    between atoms: C_11  and  C_12 
REMARK    4  A    between atoms: C_22  and  C_23 
REMARK    5  A    between atoms: C_23  and  O_24 
REMARK    6  A    between atoms: O_24  and  C_25 
REMARK    7  A    between atoms: C_25  and  C_27 
REMARK    8  A    between atoms: C_27  and  C_28 
REMARK    9  A    between atoms: C_31  and  O_32 
REMARK   10  A    between atoms: C_33  and  O_34 
REMARK   11  A    between atoms: C_38  and  O_39 
ROOT
HETATM    1  C   UNL     1     -15.212 -11.519  -5.296  1.00  0.00     0.116 C 
HETATM    2  C   UNL     1     -16.172 -12.354  -6.162  1.00  0.00     0.053 C 
HETATM    3  C   UNL     1     -17.438 -12.771  -5.456  1.00  0.00     0.020 C 
HETATM    4  C   UNL     1     -17.308 -14.037  -4.559  1.00  0.00     0.013 C 
HETATM    5  C   UNL     1     -18.074 -11.602  -4.663  1.00  0.00     0.083 C 
HETATM    6  O   UNL     1     -17.471 -11.653  -3.345  1.00  0.00    -0.320 OA
HETATM    7  C   UNL     1     -16.120 -11.033  -3.235  1.00  0.00     0.288 C 
HETATM    8  O   UNL     1     -15.928  -9.719  -3.675  1.00  0.00    -0.323 OA
HETATM    9  C   UNL     1     -16.141  -9.985  -5.054  1.00  0.00     0.173 C 
HETATM   10  C   UNL     1     -17.759 -10.152  -5.047  1.00  0.00     0.054 C 
HETATM   11  C   UNL     1     -18.500  -9.363  -3.830  1.00  0.00     0.017 C 
HETATM   12  C   UNL     1     -19.749  -8.881  -3.925  1.00  0.00     0.014 C 
HETATM   13  C   UNL     1     -20.852  -9.868  -3.576  1.00  0.00     0.053 C 
HETATM   14  C   UNL     1     -20.851 -10.896  -4.700  1.00  0.00     0.125 C 
HETATM   15  C   UNL     1     -22.012 -11.871  -4.627  1.00  0.00     0.165 C 
HETATM   16  O   UNL     1     -23.189 -11.552  -4.520  1.00  0.00    -0.294 OA
HETATM   17  C   UNL     1     -21.574 -13.268  -4.963  1.00  0.00     0.055 C 
HETATM   18  C   UNL     1     -21.917 -13.511  -6.427  1.00  0.00     0.018 C 
HETATM   19  C   UNL     1     -20.293 -13.216  -4.529  1.00  0.00     0.023 C 
HETATM   20  C   UNL     1     -19.653 -11.869  -4.869  1.00  0.00     0.064 C 
HETATM   21  O   UNL     1     -15.293 -11.854  -3.919  1.00  0.00    -0.314 OA
ENDROOT
BRANCH  12  22
HETATM   22  C   UNL     1     -20.105  -7.846  -4.936  1.00  0.00     0.183 C 
BRANCH  22  23
HETATM   23  O   UNL     1     -21.529  -7.732  -4.991  1.00  0.00    -0.321 OA
BRANCH  23  24
HETATM   24  C   UNL     1     -21.999  -6.459  -5.071  1.00  0.00     0.263 C 
HETATM   25  O   UNL     1     -23.157  -6.109  -4.890  1.00  0.00    -0.265 OA
BRANCH  24  26
HETATM   26  C   UNL     1     -20.882  -5.527  -5.441  1.00  0.00     0.149 C 
BRANCH  26  27
HETATM   27  C   UNL     1     -21.052  -4.979  -6.824  1.00  0.00    -0.046 A 
HETATM   28  C   UNL     1     -19.964  -4.979  -7.698  1.00  0.00     0.010 A 
HETATM   29  C   UNL     1     -20.081  -4.420  -8.988  1.00  0.00     0.040 A 
HETATM   30  C   UNL     1     -21.318  -3.968  -9.413  1.00  0.00     0.099 A 
HETATM   31  C   UNL     1     -22.451  -4.017  -8.562  1.00  0.00     0.101 A 
HETATM   32  C   UNL     1     -22.314  -4.553  -7.279  1.00  0.00     0.047 A 
BRANCH  30  33
HETATM   33  O   UNL     1     -21.421  -3.400 -10.653  1.00  0.00    -0.358 OA
HETATM   34  H   UNL     1     -22.195  -3.770 -11.104  1.00  0.00     0.217 HD
ENDBRANCH  30  33
BRANCH  31  35
HETATM   35  O   UNL     1     -23.717  -3.604  -8.875  1.00  0.00    -0.353 OA
HETATM   36  C   UNL     1     -24.435  -4.440  -9.775  1.00  0.00     0.210 C 
ENDBRANCH  31  35
ENDBRANCH  26  27
ENDBRANCH  24  26
ENDBRANCH  23  24
ENDBRANCH  22  23
ENDBRANCH  12  22
BRANCH  14  37
HETATM   37  O   UNL     1     -21.097 -10.235  -5.975  1.00  0.00    -0.382 OA
HETATM   38  H   UNL     1     -20.227 -10.163  -6.419  1.00  0.00     0.211 HD
ENDBRANCH  14  37
BRANCH   1  39
HETATM   39  C   UNL     1     -13.833 -12.502  -5.190  1.00  0.00    -0.056 C 
HETATM   40  C   UNL     1     -13.027 -12.628  -4.100  1.00  0.00     0.017 C 
HETATM   41  C   UNL     1     -13.010 -12.938  -6.495  1.00  0.00     0.046 C 
ENDBRANCH   1  39
BRANCH   7  42
HETATM   42  C   UNL     1     -15.813 -11.157  -1.809  1.00  0.00     0.140 C 
BRANCH  42  43
HETATM   43  C   UNL     1     -15.486 -12.289  -0.902  1.00  0.00    -0.051 A 
HETATM   44  C   UNL     1     -15.093 -13.605  -1.070  1.00  0.00     0.007 A 
HETATM   45  C   UNL     1     -15.007 -14.401   0.107  1.00  0.00     0.001 A 
HETATM   46  C   UNL     1     -15.274 -13.897   1.347  1.00  0.00     0.000 A 
HETATM   47  C   UNL     1     -15.797 -12.613   1.532  1.00  0.00     0.001 A 
HETATM   48  C   UNL     1     -15.903 -11.852   0.378  1.00  0.00     0.007 A 
ENDBRANCH  42  43
ENDBRANCH   7  42
TORSDOF 11
BEGIN_RES ARG D 557
REMARK  4 active torsions:
REMARK  status: ('A' for Active; 'I' for Inactive)
REMARK    1  A    between atoms: CA   and  CB  
REMARK    2  A    between atoms: CB   and  CG  
REMARK    3  A    between atoms: CG   and  CD  
REMARK    4  A    between atoms: CD   and  NE  
REMARK       I    between atoms: NE   and  CZ  
REMARK       I    between atoms: CZ   and  NH1 
REMARK       I    between atoms: CZ   and  NH2 
ROOT
ATOM      1  CA  ARG D 557     -26.217   2.705 -17.014  1.00 35.49     0.159 C 
ENDROOT
BRANCH   1   2
ATOM      2  CB  ARG D 557     -26.789   1.319 -17.183  1.00 35.49     0.034 C 
BRANCH   2   3
ATOM      3  CG  ARG D 557     -28.220   1.156 -16.901  1.00 35.49     0.027 C 
BRANCH   3   4
ATOM      4  CD  ARG D 557     -28.593  -0.259 -16.672  1.00 35.49     0.116 C 
BRANCH   4   5
ATOM      5  NE  ARG D 557     -27.582  -0.974 -15.939  1.00 35.49    -0.212 N 
ATOM      6  CZ  ARG D 557     -27.346  -2.265 -16.015  1.00 35.49     0.666 C 
ATOM      7  NH1 ARG D 557     -28.049  -3.069 -16.791  1.00 35.49    -0.235 N 
ATOM      8  NH2 ARG D 557     -26.374  -2.741 -15.293  1.00 35.49    -0.235 N 
ATOM      9  HH  ARG D 557     -28.692  -2.777 -17.276  1.00 35.49     0.174 HD
ATOM     10  HH  ARG D 557     -27.848  -3.902 -16.802  1.00 35.49     0.174 HD
ATOM     11  HH  ARG D 557     -25.932  -2.197 -14.807  1.00 35.49     0.174 HD
ATOM     12  HH  ARG D 557     -26.189  -3.568 -15.319  1.00 35.49     0.174 HD
ATOM     13  HE  ARG D 557     -27.130  -0.545 -15.360  1.00 35.49     0.178 HD
ENDBRANCH   4   5
ENDBRANCH   3   4
ENDBRANCH   2   3
ENDBRANCH   1   2
END_RES ARG D 557
BEGIN_RES GLU D 570
REMARK  3 active torsions:
REMARK  status: ('A' for Active; 'I' for Inactive)
REMARK    5  A    between atoms: CA   and  CB  
REMARK    6  A    between atoms: CB   and  CG  
REMARK    7  A    between atoms: CG   and  CD  
ROOT
ATOM     14  CA  GLU D 570     -18.033  -6.348 -13.375  1.00 32.92     0.160 C 
ENDROOT
BRANCH  14  15
ATOM     15  CB  GLU D 570     -19.500  -6.345 -13.794  1.00 32.92     0.043 C 
BRANCH  15  16
ATOM     16  CG  GLU D 570     -20.452  -5.581 -12.947  1.00 32.92     0.100 C 
BRANCH  16  17
ATOM     17  CD  GLU D 570     -21.710  -5.185 -13.685  1.00 32.92     0.185 C 
ATOM     18  OE1 GLU D 570     -21.748  -5.305 -14.924  1.00 32.92    -0.647 OA
ATOM     19  OE2 GLU D 570     -22.662  -4.735 -13.017  1.00 32.92    -0.647 OA
ENDBRANCH  16  17
ENDBRANCH  15  16
ENDBRANCH  14  15
END_RES GLU D 570
ENDMDL
MODEL 5
REMARK VINA RESULT:     -10.3      2.328      8.078
REMARK  11 active torsions:
REMARK  status: ('A' for Active; 'I' for Inactive)
REMARK    1  A    between atoms: C_2  and  C_4 
REMARK    2  A    between atoms: C_10  and  C_11 
REMARK    3  A    between atoms: C_11  and  C_12 
REMARK    4  A    between atoms: C_22  and  C_23 
REMARK    5  A    between atoms: C_23  and  O_24 
REMARK    6  A    between atoms: O_24  and  C_25 
REMARK    7  A    between atoms: C_25  and  C_27 
REMARK    8  A    between atoms: C_27  and  C_28 
REMARK    9  A    between atoms: C_31  and  O_32 
REMARK   10  A    between atoms: C_33  and  O_34 
REMARK   11  A    between atoms: C_38  and  O_39 
ROOT
HETATM    1  C   UNL     1     -21.138 -10.124  -1.473  1.00  0.00     0.116 C 
HETATM    2  C   UNL     1     -21.595 -11.526  -1.916  1.00  0.00     0.053 C 
HETATM    3  C   UNL     1     -21.741 -11.686  -3.408  1.00  0.00     0.020 C 
HETATM    4  C   UNL     1     -23.086 -11.172  -4.000  1.00  0.00     0.013 C 
HETATM    5  C   UNL     1     -20.538 -11.083  -4.178  1.00  0.00     0.083 C 
HETATM    6  O   UNL     1     -20.888  -9.696  -4.419  1.00  0.00    -0.320 OA
HETATM    7  C   UNL     1     -20.659  -8.770  -3.274  1.00  0.00     0.288 C 
HETATM    8  O   UNL     1     -19.401  -8.729  -2.663  1.00  0.00    -0.323 OA
HETATM    9  C   UNL     1     -19.451 -10.041  -2.119  1.00  0.00     0.173 C 
HETATM   10  C   UNL     1     -19.189 -10.902  -3.475  1.00  0.00     0.054 C 
HETATM   11  C   UNL     1     -18.370 -10.090  -4.626  1.00  0.00     0.017 C 
HETATM   12  C   UNL     1     -17.571 -10.694  -5.518  1.00  0.00     0.014 C 
HETATM   13  C   UNL     1     -18.267 -11.199  -6.773  1.00  0.00     0.053 C 
HETATM   14  C   UNL     1     -19.131 -12.368  -6.317  1.00  0.00     0.125 C 
HETATM   15  C   UNL     1     -19.770 -13.128  -7.465  1.00  0.00     0.165 C 
HETATM   16  O   UNL     1     -19.168 -13.567  -8.437  1.00  0.00    -0.294 OA
HETATM   17  C   UNL     1     -21.188 -13.508  -7.147  1.00  0.00     0.055 C 
HETATM   18  C   UNL     1     -21.173 -14.951  -6.660  1.00  0.00     0.018 C 
HETATM   19  C   UNL     1     -21.520 -12.482  -6.329  1.00  0.00     0.023 C 
HETATM   20  C   UNL     1     -20.359 -12.123  -5.400  1.00  0.00     0.064 C 
HETATM   21  O   UNL     1     -21.588  -9.105  -2.352  1.00  0.00    -0.314 OA
ENDROOT
BRANCH  12  22
HETATM   22  C   UNL     1     -16.375 -11.472  -5.085  1.00  0.00     0.183 C 
BRANCH  22  23
HETATM   23  O   UNL     1     -15.695 -10.733  -4.068  1.00  0.00    -0.321 OA
BRANCH  23  24
HETATM   24  C   UNL     1     -15.325 -11.462  -2.981  1.00  0.00     0.263 C 
HETATM   25  O   UNL     1     -14.629 -12.468  -2.996  1.00  0.00    -0.265 OA
BRANCH  24  26
HETATM   26  C   UNL     1     -15.919 -10.862  -1.740  1.00  0.00     0.149 C 
BRANCH  26  27
HETATM   27  C   UNL     1     -16.220 -11.907  -0.710  1.00  0.00    -0.046 A 
HETATM   28  C   UNL     1     -15.482 -11.932   0.474  1.00  0.00     0.010 A 
HETATM   29  C   UNL     1     -15.706 -12.938   1.438  1.00  0.00     0.040 A 
HETATM   30  C   UNL     1     -16.743 -13.834   1.242  1.00  0.00     0.099 A 
HETATM   31  C   UNL     1     -17.546 -13.786   0.074  1.00  0.00     0.101 A 
HETATM   32  C   UNL     1     -17.295 -12.799  -0.882  1.00  0.00     0.047 A 
BRANCH  30  33
HETATM   33  O   UNL     1     -16.939 -14.825   2.164  1.00  0.00    -0.358 OA
HETATM   34  H   UNL     1     -17.277 -14.430   2.982  1.00  0.00     0.217 HD
ENDBRANCH  30  33
BRANCH  31  35
HETATM   35  O   UNL     1     -18.592 -14.614  -0.223  1.00  0.00    -0.353 OA
HETATM   36  C   UNL     1     -19.878 -14.153   0.177  1.00  0.00     0.210 C 
ENDBRANCH  31  35
ENDBRANCH  26  27
ENDBRANCH  24  26
ENDBRANCH  23  24
ENDBRANCH  22  23
ENDBRANCH  12  22
BRANCH  14  37
HETATM   37  O   UNL     1     -18.294 -13.394  -5.710  1.00  0.00    -0.382 OA
HETATM   38  H   UNL     1     -18.830 -14.214  -5.699  1.00  0.00     0.211 HD
ENDBRANCH  14  37
BRANCH   1  39
HETATM   39  C   UNL     1     -22.454  -9.561  -0.561  1.00  0.00    -0.056 C 
HETATM   40  C   UNL     1     -22.420  -8.540   0.339  1.00  0.00     0.017 C 
HETATM   41  C   UNL     1     -23.710 -10.501  -0.229  1.00  0.00     0.046 C 
ENDBRANCH   1  39
BRANCH   7  42
HETATM   42  C   UNL     1     -21.012  -7.462  -3.828  1.00  0.00     0.140 C 
BRANCH  42  43
HETATM   43  C   UNL     1     -20.835  -6.801  -5.149  1.00  0.00    -0.051 A 
HETATM   44  C   UNL     1     -19.797  -6.671  -6.054  1.00  0.00     0.007 A 
HETATM   45  C   UNL     1     -20.027  -5.818  -7.172  1.00  0.00     0.001 A 
HETATM   46  C   UNL     1     -21.215  -5.174  -7.361  1.00  0.00     0.000 A 
HETATM   47  C   UNL     1     -22.229  -5.183  -6.398  1.00  0.00     0.001 A 
HETATM   48  C   UNL     1     -21.988  -5.995  -5.301  1.00  0.00     0.007 A 
ENDBRANCH  42  43
ENDBRANCH   7  42
TORSDOF 11
BEGIN_RES ARG D 557
REMARK  4 active torsions:
REMARK  status: ('A' for Active; 'I' for Inactive)
REMARK    1  A    between atoms: CA   and  CB  
REMARK    2  A    between atoms: CB   and  CG  
REMARK    3  A    between atoms: CG   and  CD  
REMARK    4  A    between atoms: CD   and  NE  
REMARK       I    between atoms: NE   and  CZ  
REMARK       I    between atoms: CZ   and  NH1 
REMARK       I    between atoms: CZ   and  NH2 
ROOT
ATOM      1  CA  ARG D 557     -26.217   2.705 -17.014  1.00 35.49     0.159 C 
ENDROOT
BRANCH   1   2
ATOM      2  CB  ARG D 557     -26.789   1.319 -17.183  1.00 35.49     0.034 C 
BRANCH   2   3
ATOM      3  CG  ARG D 557     -25.874   0.194 -16.954  1.00 35.49     0.027 C 
BRANCH   3   4
ATOM      4  CD  ARG D 557     -26.330  -0.689 -15.856  1.00 35.49     0.116 C 
BRANCH   4   5
ATOM      5  NE  ARG D 557     -25.283  -0.957 -14.905  1.00 35.49    -0.212 N 
ATOM      6  CZ  ARG D 557     -25.025  -2.122 -14.355  1.00 35.49     0.666 C 
ATOM      7  NH1 ARG D 557     -25.735  -3.203 -14.617  1.00 35.49    -0.235 N 
ATOM      8  NH2 ARG D 557     -24.022  -2.186 -13.528  1.00 35.49    -0.235 N 
ATOM      9  HH  ARG D 557     -26.398  -3.185 -15.160  1.00 35.49     0.174 HD
ATOM     10  HH  ARG D 557     -25.519  -3.936 -14.230  1.00 35.49     0.174 HD
ATOM     11  HH  ARG D 557     -23.577  -1.473 -13.383  1.00 35.49     0.174 HD
ATOM     12  HH  ARG D 557     -23.823  -2.921 -13.156  1.00 35.49     0.174 HD
ATOM     13  HE  ARG D 557     -24.822  -0.300 -14.624  1.00 35.49     0.178 HD
ENDBRANCH   4   5
ENDBRANCH   3   4
ENDBRANCH   2   3
ENDBRANCH   1   2
END_RES ARG D 557
BEGIN_RES GLU D 570
REMARK  3 active torsions:
REMARK  status: ('A' for Active; 'I' for Inactive)
REMARK    5  A    between atoms: CA   and  CB  
REMARK    6  A    between atoms: CB   and  CG  
REMARK    7  A    between atoms: CG   and  CD  
ROOT
ATOM     14  CA  GLU D 570     -18.033  -6.348 -13.375  1.00 32.92     0.160 C 
ENDROOT
BRANCH  14  15
ATOM     15  CB  GLU D 570     -19.500  -6.345 -13.794  1.00 32.92     0.043 C 
BRANCH  15  16
ATOM     16  CG  GLU D 570     -20.448  -5.558 -12.963  1.00 32.92     0.100 C 
BRANCH  16  17
ATOM     17  CD  GLU D 570     -21.696  -5.157 -13.713  1.00 32.92     0.185 C 
ATOM     18  OE1 GLU D 570     -22.759  -5.003 -13.081  1.00 32.92    -0.647 OA
ATOM     19  OE2 GLU D 570     -21.615  -5.012 -14.949  1.00 32.92    -0.647 OA
ENDBRANCH  16  17
ENDBRANCH  15  16
ENDBRANCH  14  15
END_RES GLU D 570
ENDMDL
MODEL 6
REMARK VINA RESULT:     -10.3      2.051      8.119
REMARK  11 active torsions:
REMARK  status: ('A' for Active; 'I' for Inactive)
REMARK    1  A    between atoms: C_2  and  C_4 
REMARK    2  A    between atoms: C_10  and  C_11 
REMARK    3  A    between atoms: C_11  and  C_12 
REMARK    4  A    between atoms: C_22  and  C_23 
REMARK    5  A    between atoms: C_23  and  O_24 
REMARK    6  A    between atoms: O_24  and  C_25 
REMARK    7  A    between atoms: C_25  and  C_27 
REMARK    8  A    between atoms: C_27  and  C_28 
REMARK    9  A    between atoms: C_31  and  O_32 
REMARK   10  A    between atoms: C_33  and  O_34 
REMARK   11  A    between atoms: C_38  and  O_39 
ROOT
HETATM    1  C   UNL     1     -21.336  -9.825  -1.274  1.00  0.00     0.116 C 
HETATM    2  C   UNL     1     -21.552 -11.299  -1.663  1.00  0.00     0.053 C 
HETATM    3  C   UNL     1     -21.613 -11.543  -3.150  1.00  0.00     0.020 C 
HETATM    4  C   UNL     1     -22.997 -11.272  -3.808  1.00  0.00     0.013 C 
HETATM    5  C   UNL     1     -20.490 -10.792  -3.909  1.00  0.00     0.083 C 
HETATM    6  O   UNL     1     -21.040  -9.489  -4.228  1.00  0.00    -0.320 OA
HETATM    7  C   UNL     1     -21.002  -8.490  -3.121  1.00  0.00     0.288 C 
HETATM    8  O   UNL     1     -19.790  -8.228  -2.473  1.00  0.00    -0.323 OA
HETATM    9  C   UNL     1     -19.658  -9.507  -1.869  1.00  0.00     0.173 C 
HETATM   10  C   UNL     1     -19.213 -10.373  -3.173  1.00  0.00     0.054 C 
HETATM   11  C   UNL     1     -18.485  -9.492  -4.334  1.00  0.00     0.017 C 
HETATM   12  C   UNL     1     -17.568 -10.002  -5.171  1.00  0.00     0.014 C 
HETATM   13  C   UNL     1     -18.128 -10.662  -6.421  1.00  0.00     0.053 C 
HETATM   14  C   UNL     1     -18.818 -11.931  -5.938  1.00  0.00     0.125 C 
HETATM   15  C   UNL     1     -19.286 -12.830  -7.068  1.00  0.00     0.165 C 
HETATM   16  O   UNL     1     -18.586 -13.210  -7.998  1.00  0.00    -0.294 OA
HETATM   17  C   UNL     1     -20.639 -13.414  -6.777  1.00  0.00     0.055 C 
HETATM   18  C   UNL     1     -20.420 -14.815  -6.221  1.00  0.00     0.018 C 
HETATM   19  C   UNL     1     -21.158 -12.418  -6.020  1.00  0.00     0.023 C 
HETATM   20  C   UNL     1     -20.103 -11.842  -5.073  1.00  0.00     0.064 C 
HETATM   21  O   UNL     1     -21.904  -8.927  -2.214  1.00  0.00    -0.314 OA
ENDROOT
BRANCH  12  22
HETATM   22  C   UNL     1     -16.284 -10.563  -4.663  1.00  0.00     0.183 C 
BRANCH  22  23
HETATM   23  O   UNL     1     -15.469 -10.920  -5.782  1.00  0.00    -0.321 OA
BRANCH  23  24
HETATM   24  C   UNL     1     -14.846 -12.124  -5.676  1.00  0.00     0.263 C 
HETATM   25  O   UNL     1     -15.195 -13.163  -6.219  1.00  0.00    -0.265 OA
BRANCH  24  26
HETATM   26  C   UNL     1     -13.660 -12.003  -4.764  1.00  0.00     0.149 C 
BRANCH  26  27
HETATM   27  C   UNL     1     -13.786 -12.898  -3.569  1.00  0.00    -0.046 A 
HETATM   28  C   UNL     1     -12.872 -13.938  -3.394  1.00  0.00     0.010 A 
HETATM   29  C   UNL     1     -13.000 -14.829  -2.308  1.00  0.00     0.040 A 
HETATM   30  C   UNL     1     -13.980 -14.593  -1.359  1.00  0.00     0.099 A 
HETATM   31  C   UNL     1     -14.879 -13.504  -1.485  1.00  0.00     0.101 A 
HETATM   32  C   UNL     1     -14.754 -12.644  -2.580  1.00  0.00     0.047 A 
BRANCH  30  33
HETATM   33  O   UNL     1     -14.119 -15.475  -0.323  1.00  0.00    -0.358 OA
HETATM   34  H   UNL     1     -14.779 -16.142  -0.566  1.00  0.00     0.217 HD
ENDBRANCH  30  33
BRANCH  31  35
HETATM   35  O   UNL     1     -15.879 -13.174  -0.613  1.00  0.00    -0.353 OA
HETATM   36  C   UNL     1     -16.494 -11.909  -0.828  1.00  0.00     0.210 C 
ENDBRANCH  31  35
ENDBRANCH  26  27
ENDBRANCH  24  26
ENDBRANCH  23  24
ENDBRANCH  22  23
ENDBRANCH  12  22
BRANCH  14  37
HETATM   37  O   UNL     1     -17.857 -12.787  -5.255  1.00  0.00    -0.382 OA
HETATM   38  H   UNL     1     -17.895 -13.656  -5.705  1.00  0.00     0.211 HD
ENDBRANCH  14  37
BRANCH   1  39
HETATM   39  C   UNL     1     -22.757  -9.437  -0.432  1.00  0.00    -0.056 C 
HETATM   40  C   UNL     1     -22.916  -8.388   0.421  1.00  0.00     0.017 C 
HETATM   41  C   UNL     1     -23.866 -10.547  -0.098  1.00  0.00     0.046 C 
ENDBRANCH   1  39
BRANCH   7  42
HETATM   42  C   UNL     1     -21.532  -7.279  -3.748  1.00  0.00     0.140 C 
BRANCH  42  43
HETATM   43  C   UNL     1     -21.273  -6.561  -5.025  1.00  0.00    -0.051 A 
HETATM   44  C   UNL     1     -21.410  -6.859  -6.369  1.00  0.00     0.007 A 
HETATM   45  C   UNL     1     -20.908  -5.897  -7.291  1.00  0.00     0.001 A 
HETATM   46  C   UNL     1     -20.338  -4.726  -6.882  1.00  0.00     0.000 A 
HETATM   47  C   UNL     1     -20.069  -4.460  -5.536  1.00  0.00     0.001 A 
HETATM   48  C   UNL     1     -20.538  -5.413  -4.645  1.00  0.00     0.007 A 
ENDBRANCH  42  43
ENDBRANCH   7  42
TORSDOF 11
BEGIN_RES ARG D 557
REMARK  4 active torsions:
REMARK  status: ('A' for Active; 'I' for Inactive)
REMARK    1  A    between atoms: CA   and  CB  
REMARK    2  A    between atoms: CB   and  CG  
REMARK    3  A    between atoms: CG   and  CD  
REMARK    4  A    between atoms: CD   and  NE  
REMARK       I    between atoms: NE   and  CZ  
REMARK       I    between atoms: CZ   and  NH1 
REMARK       I    between atoms: CZ   and  NH2 
ROOT
ATOM      1  CA  ARG D 557     -26.217   2.705 -17.014  1.00 35.49     0.159 C 
ENDROOT
BRANCH   1   2
ATOM      2  CB  ARG D 557     -26.789   1.319 -17.183  1.00 35.49     0.034 C 
BRANCH   2   3
ATOM      3  CG  ARG D 557     -25.837   0.202 -17.142  1.00 35.49     0.027 C 
BRANCH   3   4
ATOM      4  CD  ARG D 557     -24.761   0.414 -16.147  1.00 35.49     0.116 C 
BRANCH   4   5
ATOM      5  NE  ARG D 557     -24.903  -0.445 -15.002  1.00 35.49    -0.212 N 
ATOM      6  CZ  ARG D 557     -24.082  -1.413 -14.661  1.00 35.49     0.666 C 
ATOM      7  NH1 ARG D 557     -23.010  -1.716 -15.369  1.00 35.49    -0.235 N 
ATOM      8  NH2 ARG D 557     -24.356  -2.078 -13.576  1.00 35.49    -0.235 N 
ATOM      9  HH  ARG D 557     -22.809  -1.290 -16.085  1.00 35.49     0.174 HD
ATOM     10  HH  ARG D 557     -22.509  -2.355 -15.096  1.00 35.49     0.174 HD
ATOM     11  HH  ARG D 557     -25.051  -1.856 -13.135  1.00 35.49     0.174 HD
ATOM     12  HH  ARG D 557     -23.847  -2.707 -13.322  1.00 35.49     0.174 HD
ATOM     13  HE  ARG D 557     -25.606  -0.368 -14.529  1.00 35.49     0.178 HD
ENDBRANCH   4   5
ENDBRANCH   3   4
ENDBRANCH   2   3
ENDBRANCH   1   2
END_RES ARG D 557
BEGIN_RES GLU D 570
REMARK  3 active torsions:
REMARK  status: ('A' for Active; 'I' for Inactive)
REMARK    5  A    between atoms: CA   and  CB  
REMARK    6  A    between atoms: CB   and  CG  
REMARK    7  A    between atoms: CG   and  CD  
ROOT
ATOM     14  CA  GLU D 570     -18.033  -6.348 -13.375  1.00 32.92     0.160 C 
ENDROOT
BRANCH  14  15
ATOM     15  CB  GLU D 570     -19.500  -6.345 -13.794  1.00 32.92     0.043 C 
BRANCH  15  16
ATOM     16  CG  GLU D 570     -20.442  -5.533 -12.982  1.00 32.92     0.100 C 
BRANCH  16  17
ATOM     17  CD  GLU D 570     -21.718  -5.197 -13.719  1.00 32.92     0.185 C 
ATOM     18  OE1 GLU D 570     -22.305  -4.130 -13.458  1.00 32.92    -0.647 OA
ATOM     19  OE2 GLU D 570     -22.144  -6.019 -14.554  1.00 32.92    -0.647 OA
ENDBRANCH  16  17
ENDBRANCH  15  16
ENDBRANCH  14  15
END_RES GLU D 570
ENDMDL
MODEL 7
REMARK VINA RESULT:     -10.1      2.065      5.101
REMARK  11 active torsions:
REMARK  status: ('A' for Active; 'I' for Inactive)
REMARK    1  A    between atoms: C_2  and  C_4 
REMARK    2  A    between atoms: C_10  and  C_11 
REMARK    3  A    between atoms: C_11  and  C_12 
REMARK    4  A    between atoms: C_22  and  C_23 
REMARK    5  A    between atoms: C_23  and  O_24 
REMARK    6  A    between atoms: O_24  and  C_25 
REMARK    7  A    between atoms: C_25  and  C_27 
REMARK    8  A    between atoms: C_27  and  C_28 
REMARK    9  A    between atoms: C_31  and  O_32 
REMARK   10  A    between atoms: C_33  and  O_34 
REMARK   11  A    between atoms: C_38  and  O_39 
ROOT
HETATM    1  C   UNL     1     -22.359 -12.390   0.446  1.00  0.00     0.116 C 
HETATM    2  C   UNL     1     -20.882 -12.055   0.720  1.00  0.00     0.053 C 
HETATM    3  C   UNL     1     -19.972 -12.259  -0.465  1.00  0.00     0.020 C 
HETATM    4  C   UNL     1     -19.493 -13.724  -0.687  1.00  0.00     0.013 C 
HETATM    5  C   UNL     1     -20.575 -11.677  -1.769  1.00  0.00     0.083 C 
HETATM    6  O   UNL     1     -21.360 -12.751  -2.347  1.00  0.00    -0.320 OA
HETATM    7  C   UNL     1     -22.720 -12.935  -1.763  1.00  0.00     0.288 C 
HETATM    8  O   UNL     1     -23.590 -11.843  -1.690  1.00  0.00    -0.323 OA
HETATM    9  C   UNL     1     -22.837 -11.108  -0.737  1.00  0.00     0.173 C 
HETATM   10  C   UNL     1     -21.637 -10.575  -1.699  1.00  0.00     0.054 C 
HETATM   11  C   UNL     1     -22.048 -10.469  -3.271  1.00  0.00     0.017 C 
HETATM   12  C   UNL     1     -21.500  -9.577  -4.111  1.00  0.00     0.014 C 
HETATM   13  C   UNL     1     -20.206 -10.023  -4.774  1.00  0.00     0.053 C 
HETATM   14  C   UNL     1     -19.166 -10.052  -3.661  1.00  0.00     0.125 C 
HETATM   15  C   UNL     1     -17.754 -10.298  -4.161  1.00  0.00     0.165 C 
HETATM   16  O   UNL     1     -17.209  -9.670  -5.059  1.00  0.00    -0.294 OA
HETATM   17  C   UNL     1     -17.008 -11.232  -3.252  1.00  0.00     0.055 C 
HETATM   18  C   UNL     1     -16.155 -10.378  -2.323  1.00  0.00     0.018 C 
HETATM   19  C   UNL     1     -18.042 -11.975  -2.791  1.00  0.00     0.023 C 
HETATM   20  C   UNL     1     -19.268 -11.100  -2.522  1.00  0.00     0.064 C 
HETATM   21  O   UNL     1     -22.512 -13.420  -0.519  1.00  0.00    -0.314 OA
ENDROOT
BRANCH  12  22
HETATM   22  C   UNL     1     -21.636  -8.111  -3.881  1.00  0.00     0.183 C 
BRANCH  22  23
HETATM   23  O   UNL     1     -21.190  -7.422  -5.052  1.00  0.00    -0.321 OA
BRANCH  23  24
HETATM   24  C   UNL     1     -21.799  -6.229  -5.281  1.00  0.00     0.263 C 
HETATM   25  O   UNL     1     -23.000  -6.010  -5.202  1.00  0.00    -0.265 OA
BRANCH  24  26
HETATM   26  C   UNL     1     -20.777  -5.203  -5.673  1.00  0.00     0.149 C 
BRANCH  26  27
HETATM   27  C   UNL     1     -21.012  -4.688  -7.060  1.00  0.00    -0.046 A 
HETATM   28  C   UNL     1     -19.951  -4.658  -7.967  1.00  0.00     0.010 A 
HETATM   29  C   UNL     1     -20.131  -4.128  -9.262  1.00  0.00     0.040 A 
HETATM   30  C   UNL     1     -21.399  -3.738  -9.657  1.00  0.00     0.099 A 
HETATM   31  C   UNL     1     -22.503  -3.819  -8.771  1.00  0.00     0.101 A 
HETATM   32  C   UNL     1     -22.304  -4.324  -7.483  1.00  0.00     0.047 A 
BRANCH  30  33
HETATM   33  O   UNL     1     -21.563  -3.197 -10.903  1.00  0.00    -0.358 OA
HETATM   34  H   UNL     1     -22.200  -3.735 -11.397  1.00  0.00     0.217 HD
ENDBRANCH  30  33
BRANCH  31  35
HETATM   35  O   UNL     1     -23.794  -3.467  -9.051  1.00  0.00    -0.353 OA
HETATM   36  C   UNL     1     -24.537  -4.404  -9.821  1.00  0.00     0.210 C 
ENDBRANCH  31  35
ENDBRANCH  26  27
ENDBRANCH  24  26
ENDBRANCH  23  24
ENDBRANCH  22  23
ENDBRANCH  12  22
BRANCH  14  37
HETATM   37  O   UNL     1     -19.043  -8.728  -3.065  1.00  0.00    -0.382 OA
HETATM   38  H   UNL     1     -19.887  -8.558  -2.598  1.00  0.00     0.211 HD
ENDBRANCH  14  37
BRANCH   1  39
HETATM   39  C   UNL     1     -22.662 -13.686   1.499  1.00  0.00    -0.056 C 
HETATM   40  C   UNL     1     -23.777 -13.846   2.264  1.00  0.00     0.017 C 
HETATM   41  C   UNL     1     -21.469 -14.546   2.137  1.00  0.00     0.046 C 
ENDBRANCH   1  39
BRANCH   7  42
HETATM   42  C   UNL     1     -23.290 -14.005  -2.583  1.00  0.00     0.140 C 
BRANCH  42  43
HETATM   43  C   UNL     1     -23.171 -14.410  -4.009  1.00  0.00    -0.051 A 
HETATM   44  C   UNL     1     -22.709 -13.811  -5.168  1.00  0.00     0.007 A 
HETATM   45  C   UNL     1     -22.902 -14.533  -6.380  1.00  0.00     0.001 A 
HETATM   46  C   UNL     1     -23.493 -15.763  -6.407  1.00  0.00     0.000 A 
HETATM   47  C   UNL     1     -24.085 -16.330  -5.275  1.00  0.00     0.001 A 
HETATM   48  C   UNL     1     -23.915 -15.610  -4.102  1.00  0.00     0.007 A 
ENDBRANCH  42  43
ENDBRANCH   7  42
TORSDOF 11
BEGIN_RES ARG D 557
REMARK  4 active torsions:
REMARK  status: ('A' for Active; 'I' for Inactive)
REMARK    1  A    between atoms: CA   and  CB  
REMARK    2  A    between atoms: CB   and  CG  
REMARK    3  A    between atoms: CG   and  CD  
REMARK    4  A    between atoms: CD   and  NE  
REMARK       I    between atoms: NE   and  CZ  
REMARK       I    between atoms: CZ   and  NH1 
REMARK       I    between atoms: CZ   and  NH2 
ROOT
ATOM      1  CA  ARG D 557     -26.217   2.705 -17.014  1.00 35.49     0.159 C 
ENDROOT
BRANCH   1   2
ATOM      2  CB  ARG D 557     -26.789   1.319 -17.183  1.00 35.49     0.034 C 
BRANCH   2   3
ATOM      3  CG  ARG D 557     -25.837   0.202 -17.142  1.00 35.49     0.027 C 
BRANCH   3   4
ATOM      4  CD  ARG D 557     -24.753   0.420 -16.158  1.00 35.49     0.116 C 
BRANCH   4   5
ATOM      5  NE  ARG D 557     -24.887  -0.432 -15.006  1.00 35.49    -0.212 N 
ATOM      6  CZ  ARG D 557     -24.064  -1.398 -14.666  1.00 35.49     0.666 C 
ATOM      7  NH1 ARG D 557     -22.998  -1.707 -15.381  1.00 35.49    -0.235 N 
ATOM      8  NH2 ARG D 557     -24.329  -2.056 -13.574  1.00 35.49    -0.235 N 
ATOM      9  HH  ARG D 557     -22.803  -1.286 -16.102  1.00 35.49     0.174 HD
ATOM     10  HH  ARG D 557     -22.496  -2.346 -15.109  1.00 35.49     0.174 HD
ATOM     11  HH  ARG D 557     -25.020  -1.830 -13.129  1.00 35.49     0.174 HD
ATOM     12  HH  ARG D 557     -23.819  -2.684 -13.321  1.00 35.49     0.174 HD
ATOM     13  HE  ARG D 557     -25.585  -0.350 -14.528  1.00 35.49     0.178 HD
ENDBRANCH   4   5
ENDBRANCH   3   4
ENDBRANCH   2   3
ENDBRANCH   1   2
END_RES ARG D 557
BEGIN_RES GLU D 570
REMARK  3 active torsions:
REMARK  status: ('A' for Active; 'I' for Inactive)
REMARK    5  A    between atoms: CA   and  CB  
REMARK    6  A    between atoms: CB   and  CG  
REMARK    7  A    between atoms: CG   and  CD  
ROOT
ATOM     14  CA  GLU D 570     -18.033  -6.348 -13.375  1.00 32.92     0.160 C 
ENDROOT
BRANCH  14  15
ATOM     15  CB  GLU D 570     -19.500  -6.345 -13.794  1.00 32.92     0.043 C 
BRANCH  15  16
ATOM     16  CG  GLU D 570     -20.437  -5.509 -13.000  1.00 32.92     0.100 C 
BRANCH  16  17
ATOM     17  CD  GLU D 570     -21.726  -5.212 -13.731  1.00 32.92     0.185 C 
ATOM     18  OE1 GLU D 570     -22.391  -4.211 -13.403  1.00 32.92    -0.647 OA
ATOM     19  OE2 GLU D 570     -22.082  -5.998 -14.630  1.00 32.92    -0.647 OA
ENDBRANCH  16  17
ENDBRANCH  15  16
ENDBRANCH  14  15
END_RES GLU D 570
ENDMDL
MODEL 8
REMARK VINA RESULT:     -10.1      2.137      7.882
REMARK  11 active torsions:
REMARK  status: ('A' for Active; 'I' for Inactive)
REMARK    1  A    between atoms: C_2  and  C_4 
REMARK    2  A    between atoms: C_10  and  C_11 
REMARK    3  A    between atoms: C_11  and  C_12 
REMARK    4  A    between atoms: C_22  and  C_23 
REMARK    5  A    between atoms: C_23  and  O_24 
REMARK    6  A    between atoms: O_24  and  C_25 
REMARK    7  A    between atoms: C_25  and  C_27 
REMARK    8  A    between atoms: C_27  and  C_28 
REMARK    9  A    between atoms: C_31  and  O_32 
REMARK   10  A    between atoms: C_33  and  O_34 
REMARK   11  A    between atoms: C_38  and  O_39 
ROOT
HETATM    1  C   UNL     1     -21.058  -9.815  -1.673  1.00  0.00     0.116 C 
HETATM    2  C   UNL     1     -21.412 -11.292  -1.922  1.00  0.00     0.053 C 
HETATM    3  C   UNL     1     -21.654 -11.633  -3.372  1.00  0.00     0.020 C 
HETATM    4  C   UNL     1     -23.082 -11.306  -3.898  1.00  0.00     0.013 C 
HETATM    5  C   UNL     1     -20.575 -11.021  -4.301  1.00  0.00     0.083 C 
HETATM    6  O   UNL     1     -21.071  -9.705  -4.658  1.00  0.00    -0.320 OA
HETATM    7  C   UNL     1     -20.844  -8.638  -3.641  1.00  0.00     0.288 C 
HETATM    8  O   UNL     1     -19.553  -8.422  -3.147  1.00  0.00    -0.323 OA
HETATM    9  C   UNL     1     -19.439  -9.663  -2.465  1.00  0.00     0.173 C 
HETATM   10  C   UNL     1     -19.199 -10.647  -3.739  1.00  0.00     0.054 C 
HETATM   11  C   UNL     1     -18.549  -9.904  -5.035  1.00  0.00     0.017 C 
HETATM   12  C   UNL     1     -17.766 -10.536  -5.923  1.00  0.00     0.014 C 
HETATM   13  C   UNL     1     -18.504 -11.237  -7.052  1.00  0.00     0.053 C 
HETATM   14  C   UNL     1     -19.218 -12.416  -6.403  1.00  0.00     0.125 C 
HETATM   15  C   UNL     1     -19.866 -13.354  -7.405  1.00  0.00     0.165 C 
HETATM   16  O   UNL     1     -19.300 -13.848  -8.372  1.00  0.00    -0.294 OA
HETATM   17  C   UNL     1     -21.214 -13.815  -6.928  1.00  0.00     0.055 C 
HETATM   18  C   UNL     1     -21.027 -15.187  -6.293  1.00  0.00     0.018 C 
HETATM   19  C   UNL     1     -21.579 -12.734  -6.199  1.00  0.00     0.023 C 
HETATM   20  C   UNL     1     -20.390 -12.174  -5.416  1.00  0.00     0.064 C 
HETATM   21  O   UNL     1     -21.666  -8.944  -2.613  1.00  0.00    -0.314 OA
ENDROOT
BRANCH  12  22
HETATM   22  C   UNL     1     -16.473 -11.154  -5.513  1.00  0.00     0.183 C 
BRANCH  22  23
HETATM   23  O   UNL     1     -15.677 -10.158  -4.865  1.00  0.00    -0.321 OA
BRANCH  23  24
HETATM   24  C   UNL     1     -15.637 -10.250  -3.509  1.00  0.00     0.263 C 
HETATM   25  O   UNL     1     -15.910  -9.355  -2.721  1.00  0.00    -0.265 OA
BRANCH  24  26
HETATM   26  C   UNL     1     -15.183 -11.622  -3.106  1.00  0.00     0.149 C 
BRANCH  26  27
HETATM   27  C   UNL     1     -16.124 -12.253  -2.126  1.00  0.00    -0.046 A 
HETATM   28  C   UNL     1     -17.156 -13.067  -2.595  1.00  0.00     0.010 A 
HETATM   29  C   UNL     1     -18.089 -13.629  -1.699  1.00  0.00     0.040 A 
HETATM   30  C   UNL     1     -17.904 -13.450  -0.339  1.00  0.00     0.099 A 
HETATM   31  C   UNL     1     -16.826 -12.677   0.161  1.00  0.00     0.101 A 
HETATM   32  C   UNL     1     -15.923 -12.107  -0.741  1.00  0.00     0.047 A 
BRANCH  30  33
HETATM   33  O   UNL     1     -18.827 -13.971   0.525  1.00  0.00    -0.358 OA
HETATM   34  H   UNL     1     -18.744 -13.524   1.381  1.00  0.00     0.217 HD
ENDBRANCH  30  33
BRANCH  31  35
HETATM   35  O   UNL     1     -16.545 -12.436   1.477  1.00  0.00    -0.353 OA
HETATM   36  C   UNL     1     -15.469 -13.188   2.028  1.00  0.00     0.210 C 
ENDBRANCH  31  35
ENDBRANCH  26  27
ENDBRANCH  24  26
ENDBRANCH  23  24
ENDBRANCH  22  23
ENDBRANCH  12  22
BRANCH  14  37
HETATM   37  O   UNL     1     -18.245 -13.291  -5.763  1.00  0.00    -0.382 OA
HETATM   38  H   UNL     1     -18.255 -14.130  -6.269  1.00  0.00     0.211 HD
ENDBRANCH  14  37
BRANCH   1  39
HETATM   39  C   UNL     1     -22.348  -9.266  -0.717  1.00  0.00    -0.056 C 
HETATM   40  C   UNL     1     -22.325  -8.180   0.104  1.00  0.00     0.017 C 
HETATM   41  C   UNL     1     -23.517 -10.253  -0.236  1.00  0.00     0.046 C 
ENDBRANCH   1  39
BRANCH   7  42
HETATM   42  C   UNL     1     -21.360  -7.438  -4.300  1.00  0.00     0.140 C 
BRANCH  42  43
HETATM   43  C   UNL     1     -21.009  -6.686  -5.535  1.00  0.00    -0.051 A 
HETATM   44  C   UNL     1     -19.868  -6.530  -6.302  1.00  0.00     0.007 A 
HETATM   45  C   UNL     1     -19.939  -5.587  -7.367  1.00  0.00     0.001 A 
HETATM   46  C   UNL     1     -21.076  -4.882  -7.639  1.00  0.00     0.000 A 
HETATM   47  C   UNL     1     -22.195  -4.923  -6.803  1.00  0.00     0.001 A 
HETATM   48  C   UNL     1     -22.110  -5.825  -5.753  1.00  0.00     0.007 A 
ENDBRANCH  42  43
ENDBRANCH   7  42
TORSDOF 11
BEGIN_RES ARG D 557
REMARK  4 active torsions:
REMARK  status: ('A' for Active; 'I' for Inactive)
REMARK    1  A    between atoms: CA   and  CB  
REMARK    2  A    between atoms: CB   and  CG  
REMARK    3  A    between atoms: CG   and  CD  
REMARK    4  A    between atoms: CD   and  NE  
REMARK       I    between atoms: NE   and  CZ  
REMARK       I    between atoms: CZ   and  NH1 
REMARK       I    between atoms: CZ   and  NH2 
ROOT
ATOM      1  CA  ARG D 557     -26.217   2.705 -17.014  1.00 35.49     0.159 C 
ENDROOT
BRANCH   1   2
ATOM      2  CB  ARG D 557     -26.789   1.319 -17.183  1.00 35.49     0.034 C 
BRANCH   2   3
ATOM      3  CG  ARG D 557     -25.923   0.196 -16.805  1.00 35.49     0.027 C 
BRANCH   3   4
ATOM      4  CD  ARG D 557     -26.657  -0.861 -16.073  1.00 35.49     0.116 C 
BRANCH   4   5
ATOM      5  NE  ARG D 557     -25.851  -1.472 -15.049  1.00 35.49    -0.212 N 
ATOM      6  CZ  ARG D 557     -25.881  -2.739 -14.701  1.00 35.49     0.666 C 
ATOM      7  NH1 ARG D 557     -26.694  -3.611 -15.267  1.00 35.49    -0.235 N 
ATOM      8  NH2 ARG D 557     -25.063  -3.124 -13.764  1.00 35.49    -0.235 N 
ATOM      9  HH  ARG D 557     -27.239  -3.380 -15.887  1.00 35.49     0.174 HD
ATOM     10  HH  ARG D 557     -26.667  -4.425 -15.001  1.00 35.49     0.174 HD
ATOM     11  HH  ARG D 557     -24.544  -2.540 -13.421  1.00 35.49     0.174 HD
ATOM     12  HH  ARG D 557     -25.050  -3.934 -13.516  1.00 35.49     0.174 HD
ATOM     13  HE  ARG D 557     -25.349  -0.968 -14.582  1.00 35.49     0.178 HD
ENDBRANCH   4   5
ENDBRANCH   3   4
ENDBRANCH   2   3
ENDBRANCH   1   2
END_RES ARG D 557
BEGIN_RES GLU D 570
REMARK  3 active torsions:
REMARK  status: ('A' for Active; 'I' for Inactive)
REMARK    5  A    between atoms: CA   and  CB  
REMARK    6  A    between atoms: CB   and  CG  
REMARK    7  A    between atoms: CG   and  CD  
ROOT
ATOM     14  CA  GLU D 570     -18.033  -6.348 -13.375  1.00 32.92     0.160 C 
ENDROOT
BRANCH  14  15
ATOM     15  CB  GLU D 570     -19.500  -6.345 -13.794  1.00 32.92     0.043 C 
BRANCH  15  16
ATOM     16  CG  GLU D 570     -20.439  -5.516 -12.994  1.00 32.92     0.100 C 
BRANCH  16  17
ATOM     17  CD  GLU D 570     -21.734  -5.229 -13.717  1.00 32.92     0.185 C 
ATOM     18  OE1 GLU D 570     -22.175  -6.068 -14.525  1.00 32.92    -0.647 OA
ATOM     19  OE2 GLU D 570     -22.304  -4.144 -13.486  1.00 32.92    -0.647 OA
ENDBRANCH  16  17
ENDBRANCH  15  16
ENDBRANCH  14  15
END_RES GLU D 570
ENDMDL
MODEL 9
REMARK VINA RESULT:      -9.9      1.937      2.545
REMARK  11 active torsions:
REMARK  status: ('A' for Active; 'I' for Inactive)
REMARK    1  A    between atoms: C_2  and  C_4 
REMARK    2  A    between atoms: C_10  and  C_11 
REMARK    3  A    between atoms: C_11  and  C_12 
REMARK    4  A    between atoms: C_22  and  C_23 
REMARK    5  A    between atoms: C_23  and  O_24 
REMARK    6  A    between atoms: O_24  and  C_25 
REMARK    7  A    between atoms: C_25  and  C_27 
REMARK    8  A    between atoms: C_27  and  C_28 
REMARK    9  A    between atoms: C_31  and  O_32 
REMARK   10  A    between atoms: C_33  and  O_34 
REMARK   11  A    between atoms: C_38  and  O_39 
ROOT
HETATM    1  C   UNL     1     -21.843 -13.460  -6.204  1.00  0.00     0.116 C 
HETATM    2  C   UNL     1     -22.758 -13.314  -4.975  1.00  0.00     0.053 C 
HETATM    3  C   UNL     1     -22.072 -12.747  -3.758  1.00  0.00     0.020 C 
HETATM    4  C   UNL     1     -21.270 -13.778  -2.911  1.00  0.00     0.013 C 
HETATM    5  C   UNL     1     -21.190 -11.521  -4.105  1.00  0.00     0.083 C 
HETATM    6  O   UNL     1     -19.885 -12.061  -4.434  1.00  0.00    -0.320 OA
HETATM    7  C   UNL     1     -19.744 -12.593  -5.819  1.00  0.00     0.288 C 
HETATM    8  O   UNL     1     -20.090 -11.783  -6.906  1.00  0.00    -0.323 OA
HETATM    9  C   UNL     1     -21.483 -11.739  -6.629  1.00  0.00     0.173 C 
HETATM   10  C   UNL     1     -21.472 -10.706  -5.372  1.00  0.00     0.054 C 
HETATM   11  C   UNL     1     -20.194  -9.696  -5.357  1.00  0.00     0.017 C 
HETATM   12  C   UNL     1     -20.242  -8.465  -4.825  1.00  0.00     0.014 C 
HETATM   13  C   UNL     1     -19.954  -8.393  -3.333  1.00  0.00     0.053 C 
HETATM   14  C   UNL     1     -21.149  -9.050  -2.655  1.00  0.00     0.125 C 
HETATM   15  C   UNL     1     -21.135  -8.912  -1.143  1.00  0.00     0.165 C 
HETATM   16  O   UNL     1     -20.994  -7.857  -0.536  1.00  0.00    -0.294 OA
HETATM   17  C   UNL     1     -21.576 -10.183  -0.474  1.00  0.00     0.055 C 
HETATM   18  C   UNL     1     -23.050 -10.025  -0.126  1.00  0.00     0.018 C 
HETATM   19  C   UNL     1     -21.151 -11.082  -1.393  1.00  0.00     0.023 C 
HETATM   20  C   UNL     1     -21.400 -10.573  -2.814  1.00  0.00     0.064 C 
HETATM   21  O   UNL     1     -20.494 -13.717  -5.848  1.00  0.00    -0.314 OA
ENDROOT
BRANCH  12  22
HETATM   22  C   UNL     1     -21.172  -7.428  -5.354  1.00  0.00     0.183 C 
BRANCH  22  23
HETATM   23  O   UNL     1     -20.529  -6.748  -6.435  1.00  0.00    -0.321 OA
BRANCH  23  24
HETATM   24  C   UNL     1     -20.536  -5.391  -6.341  1.00  0.00     0.263 C 
HETATM   25  O   UNL     1     -19.663  -4.704  -5.828  1.00  0.00    -0.265 OA
BRANCH  24  26
HETATM   26  C   UNL     1     -21.795  -4.846  -6.947  1.00  0.00     0.149 C 
BRANCH  26  27
HETATM   27  C   UNL     1     -21.634  -4.575  -8.412  1.00  0.00    -0.046 A 
HETATM   28  C   UNL     1     -20.359  -4.337  -8.927  1.00  0.00     0.010 A 
HETATM   29  C   UNL     1     -20.184  -4.026 -10.292  1.00  0.00     0.040 A 
HETATM   30  C   UNL     1     -21.282  -4.065 -11.134  1.00  0.00     0.099 A 
HETATM   31  C   UNL     1     -22.577  -4.366 -10.642  1.00  0.00     0.101 A 
HETATM   32  C   UNL     1     -22.737  -4.649  -9.283  1.00  0.00     0.047 A 
BRANCH  30  33
HETATM   33  O   UNL     1     -21.113  -3.734 -12.451  1.00  0.00    -0.358 OA
HETATM   34  H   UNL     1     -20.314  -3.193 -12.538  1.00  0.00     0.217 HD
ENDBRANCH  30  33
BRANCH  31  35
HETATM   35  O   UNL     1     -23.727  -4.435 -11.378  1.00  0.00    -0.353 OA
HETATM   36  C   UNL     1     -24.455  -3.220 -11.502  1.00  0.00     0.210 C 
ENDBRANCH  31  35
ENDBRANCH  26  27
ENDBRANCH  24  26
ENDBRANCH  23  24
ENDBRANCH  22  23
ENDBRANCH  12  22
BRANCH  14  37
HETATM   37  O   UNL     1     -22.370  -8.338  -3.007  1.00  0.00    -0.382 OA
HETATM   38  H   UNL     1     -23.027  -9.023  -3.249  1.00  0.00     0.211 HD
ENDBRANCH  14  37
BRANCH   1  39
HETATM   39  C   UNL     1     -21.822 -15.136  -6.471  1.00  0.00    -0.056 C 
HETATM   40  C   UNL     1     -20.831 -15.830  -7.095  1.00  0.00     0.017 C 
HETATM   41  C   UNL     1     -23.176 -15.993  -6.540  1.00  0.00     0.046 C 
ENDBRANCH   1  39
BRANCH   7  42
HETATM   42  C   UNL     1     -18.334 -12.980  -5.884  1.00  0.00     0.140 C 
BRANCH  42  43
HETATM   43  C   UNL     1     -17.067 -12.417  -5.347  1.00  0.00    -0.051 A 
HETATM   44  C   UNL     1     -16.216 -12.727  -4.301  1.00  0.00     0.007 A 
HETATM   45  C   UNL     1     -15.146 -11.819  -4.058  1.00  0.00     0.001 A 
HETATM   46  C   UNL     1     -14.947 -10.707  -4.824  1.00  0.00     0.000 A 
HETATM   47  C   UNL     1     -15.864 -10.302  -5.799  1.00  0.00     0.001 A 
HETATM   48  C   UNL     1     -16.917 -11.178  -6.014  1.00  0.00     0.007 A 
ENDBRANCH  42  43
ENDBRANCH   7  42
TORSDOF 11
BEGIN_RES ARG D 557
REMARK  4 active torsions:
REMARK  status: ('A' for Active; 'I' for Inactive)
REMARK    1  A    between atoms: CA   and  CB  
REMARK    2  A    between atoms: CB   and  CG  
REMARK    3  A    between atoms: CG   and  CD  
REMARK    4  A    between atoms: CD   and  NE  
REMARK       I    between atoms: NE   and  CZ  
REMARK       I    between atoms: CZ   and  NH1 
REMARK       I    between atoms: CZ   and  NH2 
ROOT
ATOM      1  CA  ARG D 557     -26.217   2.705 -17.014  1.00 35.49     0.159 C 
ENDROOT
BRANCH   1   2
ATOM      2  CB  ARG D 557     -26.789   1.319 -17.183  1.00 35.49     0.034 C 
BRANCH   2   3
ATOM      3  CG  ARG D 557     -25.942   0.198 -16.758  1.00 35.49     0.027 C 
BRANCH   3   4
ATOM      4  CD  ARG D 557     -26.715  -0.870 -16.084  1.00 35.49     0.116 C 
BRANCH   4   5
ATOM      5  NE  ARG D 557     -27.973  -1.122 -16.736  1.00 35.49    -0.212 N 
ATOM      6  CZ  ARG D 557     -28.496  -2.306 -16.964  1.00 35.49     0.666 C 
ATOM      7  NH1 ARG D 557     -27.892  -3.427 -16.618  1.00 35.49    -0.235 N 
ATOM      8  NH2 ARG D 557     -29.658  -2.346 -17.548  1.00 35.49    -0.235 N 
ATOM      9  HH  ARG D 557     -27.127  -3.424 -16.230  1.00 35.49     0.174 HD
ATOM     10  HH  ARG D 557     -28.282  -4.170 -16.790  1.00 35.49     0.174 HD
ATOM     11  HH  ARG D 557     -30.029  -1.606 -17.754  1.00 35.49     0.174 HD
ATOM     12  HH  ARG D 557     -30.030  -3.091 -17.709  1.00 35.49     0.174 HD
ATOM     13  HE  ARG D 557     -28.397  -0.458 -17.057  1.00 35.49     0.178 HD
ENDBRANCH   4   5
ENDBRANCH   3   4
ENDBRANCH   2   3
ENDBRANCH   1   2
END_RES ARG D 557
BEGIN_RES GLU D 570
REMARK  3 active torsions:
REMARK  status: ('A' for Active; 'I' for Inactive)
REMARK    5  A    between atoms: CA   and  CB  
REMARK    6  A    between atoms: CB   and  CG  
REMARK    7  A    between atoms: CG   and  CD  
ROOT
ATOM     14  CA  GLU D 570     -18.033  -6.348 -13.375  1.00 32.92     0.160 C 
ENDROOT
BRANCH  14  15
ATOM     15  CB  GLU D 570     -19.500  -6.345 -13.794  1.00 32.92     0.043 C 
BRANCH  15  16
ATOM     16  CG  GLU D 570     -19.808  -5.998 -15.205  1.00 32.92     0.100 C 
BRANCH  16  17
ATOM     17  CD  GLU D 570     -21.229  -5.522 -15.399  1.00 32.92     0.185 C 
ATOM     18  OE1 GLU D 570     -22.020  -5.573 -14.438  1.00 32.92    -0.647 OA
ATOM     19  OE2 GLU D 570     -21.558  -5.108 -16.528  1.00 32.92    -0.647 OA
ENDBRANCH  16  17
ENDBRANCH  15  16
ENDBRANCH  14  15
END_RES GLU D 570
ENDMDL
