MODEL 1
REMARK VINA RESULT:      -6.3      0.000      0.000
REMARK  0 active torsions:
REMARK  status: ('A' for Active; 'I' for Inactive)
ROOT
HETATM    1  C   UNL     1     -27.212  -6.706 -15.864  1.00  0.00     0.024 C 
HETATM    2  C   UNL     1     -28.263  -5.756 -16.389  1.00  0.00     0.024 C 
HETATM    3  C   UNL     1     -27.793  -4.295 -16.588  1.00  0.00     0.018 C 
HETATM    4  C   UNL     1     -28.897  -3.700 -17.492  1.00  0.00     0.007 C 
HETATM    5  C   UNL     1     -29.885  -4.880 -17.670  1.00  0.00     0.001 C 
HETATM    6  C   UNL     1     -30.638  -5.049 -16.325  1.00  0.00     0.084 C 
HETATM    7  C   UNL     1     -29.500  -5.610 -15.498  1.00  0.00     0.136 C 
HETATM    8  O   UNL     1     -29.564  -5.868 -14.307  1.00  0.00    -0.297 OA
HETATM    9  C   UNL     1     -28.940  -6.112 -17.740  1.00  0.00    -0.029 C 
HETATM   10  C   UNL     1     -29.666  -7.473 -17.760  1.00  0.00     0.016 C 
HETATM   11  C   UNL     1     -27.983  -6.108 -18.949  1.00  0.00     0.016 C 
ENDROOT
TORSDOF 0
BEGIN_RES ARG D 557
REMARK  4 active torsions:
REMARK  status: ('A' for Active; 'I' for Inactive)
REMARK    1  A    between atoms: CA   and  CB  
REMARK    2  A    between atoms: CB   and  CG  
REMARK    3  A    between atoms: CG   and  CD  
REMARK    4  A    between atoms: CD   and  NE  
REMARK       I    between atoms: NE   and  CZ  
REMARK       I    between atoms: CZ   and  NH1 
REMARK       I    between atoms: CZ   and  NH2 
ROOT
ATOM      1  CA  ARG D 557     -26.217   2.705 -17.014  1.00 35.49     0.159 C 
ENDROOT
BRANCH   1   2
ATOM      2  CB  ARG D 557     -26.789   1.319 -17.183  1.00 35.49     0.034 C 
BRANCH   2   3
ATOM      3  CG  ARG D 557     -25.835   0.203 -17.161  1.00 35.49     0.027 C 
BRANCH   3   4
ATOM      4  CD  ARG D 557     -24.745   0.413 -16.181  1.00 35.49     0.116 C 
BRANCH   4   5
ATOM      5  NE  ARG D 557     -24.888  -0.428 -15.022  1.00 35.49    -0.212 N 
ATOM      6  CZ  ARG D 557     -24.075  -1.400 -14.673  1.00 35.49     0.666 C 
ATOM      7  NH1 ARG D 557     -23.011  -1.725 -15.384  1.00 35.49    -0.235 N 
ATOM      8  NH2 ARG D 557     -24.348  -2.046 -13.577  1.00 35.49    -0.235 N 
ATOM      9  HH  ARG D 557     -22.811  -1.311 -16.107  1.00 35.49     0.174 HD
ATOM     10  HH  ARG D 557     -22.515  -2.366 -15.105  1.00 35.49     0.174 HD
ATOM     11  HH  ARG D 557     -25.038  -1.810 -13.134  1.00 35.49     0.174 HD
ATOM     12  HH  ARG D 557     -23.844  -2.677 -13.317  1.00 35.49     0.174 HD
ATOM     13  HE  ARG D 557     -25.587  -0.337 -14.546  1.00 35.49     0.178 HD
ENDBRANCH   4   5
ENDBRANCH   3   4
ENDBRANCH   2   3
ENDBRANCH   1   2
END_RES ARG D 557
BEGIN_RES GLU D 570
REMARK  3 active torsions:
REMARK  status: ('A' for Active; 'I' for Inactive)
REMARK    5  A    between atoms: CA   and  CB  
REMARK    6  A    between atoms: CB   and  CG  
REMARK    7  A    between atoms: CG   and  CD  
ROOT
ATOM     14  CA  GLU D 570     -18.033  -6.348 -13.375  1.00 32.92     0.160 C 
ENDROOT
BRANCH  14  15
ATOM     15  CB  GLU D 570     -19.500  -6.345 -13.794  1.00 32.92     0.043 C 
BRANCH  15  16
ATOM     16  CG  GLU D 570     -20.440  -5.524 -12.988  1.00 32.92     0.100 C 
BRANCH  16  17
ATOM     17  CD  GLU D 570     -21.746  -5.255 -13.699  1.00 32.92     0.185 C 
ATOM     18  OE1 GLU D 570     -22.229  -6.139 -14.433  1.00 32.92    -0.647 OA
ATOM     19  OE2 GLU D 570     -22.284  -4.143 -13.534  1.00 32.92    -0.647 OA
ENDBRANCH  16  17
ENDBRANCH  15  16
ENDBRANCH  14  15
END_RES GLU D 570
ENDMDL
MODEL 2
REMARK VINA RESULT:      -6.3      1.162      1.987
REMARK  0 active torsions:
REMARK  status: ('A' for Active; 'I' for Inactive)
ROOT
HETATM    1  C   UNL     1     -28.181  -3.444 -16.773  1.00  0.00     0.024 C 
HETATM    2  C   UNL     1     -29.049  -4.619 -17.160  1.00  0.00     0.024 C 
HETATM    3  C   UNL     1     -28.751  -5.231 -18.549  1.00  0.00     0.018 C 
HETATM    4  C   UNL     1     -29.462  -6.602 -18.479  1.00  0.00     0.007 C 
HETATM    5  C   UNL     1     -30.113  -6.594 -17.073  1.00  0.00     0.001 C 
HETATM    6  C   UNL     1     -31.317  -5.619 -17.135  1.00  0.00     0.084 C 
HETATM    7  C   UNL     1     -30.549  -4.317 -17.222  1.00  0.00     0.136 C 
HETATM    8  O   UNL     1     -31.056  -3.214 -17.353  1.00  0.00    -0.297 OA
HETATM    9  C   UNL     1     -29.057  -5.847 -16.210  1.00  0.00    -0.029 C 
HETATM   10  C   UNL     1     -29.510  -5.545 -14.767  1.00  0.00     0.016 C 
HETATM   11  C   UNL     1     -27.701  -6.572 -16.101  1.00  0.00     0.016 C 
ENDROOT
TORSDOF 0
BEGIN_RES ARG D 557
REMARK  4 active torsions:
REMARK  status: ('A' for Active; 'I' for Inactive)
REMARK    1  A    between atoms: CA   and  CB  
REMARK    2  A    between atoms: CB   and  CG  
REMARK    3  A    between atoms: CG   and  CD  
REMARK    4  A    between atoms: CD   and  NE  
REMARK       I    between atoms: NE   and  CZ  
REMARK       I    between atoms: CZ   and  NH1 
REMARK       I    between atoms: CZ   and  NH2 
ROOT
ATOM      1  CA  ARG D 557     -26.217   2.705 -17.014  1.00 35.49     0.159 C 
ENDROOT
BRANCH   1   2
ATOM      2  CB  ARG D 557     -26.789   1.319 -17.183  1.00 35.49     0.034 C 
BRANCH   2   3
ATOM      3  CG  ARG D 557     -25.835   0.203 -17.160  1.00 35.49     0.027 C 
BRANCH   3   4
ATOM      4  CD  ARG D 557     -24.738   0.419 -16.189  1.00 35.49     0.116 C 
BRANCH   4   5
ATOM      5  NE  ARG D 557     -24.873  -0.415 -15.024  1.00 35.49    -0.212 N 
ATOM      6  CZ  ARG D 557     -24.058  -1.385 -14.675  1.00 35.49     0.666 C 
ATOM      7  NH1 ARG D 557     -23.001  -1.716 -15.394  1.00 35.49    -0.235 N 
ATOM      8  NH2 ARG D 557     -24.323  -2.025 -13.573  1.00 35.49    -0.235 N 
ATOM      9  HH  ARG D 557     -22.807  -1.307 -16.121  1.00 35.49     0.174 HD
ATOM     10  HH  ARG D 557     -22.504  -2.356 -15.115  1.00 35.49     0.174 HD
ATOM     11  HH  ARG D 557     -25.008  -1.785 -13.126  1.00 35.49     0.174 HD
ATOM     12  HH  ARG D 557     -23.818  -2.655 -13.314  1.00 35.49     0.174 HD
ATOM     13  HE  ARG D 557     -25.567  -0.319 -14.542  1.00 35.49     0.178 HD
ENDBRANCH   4   5
ENDBRANCH   3   4
ENDBRANCH   2   3
ENDBRANCH   1   2
END_RES ARG D 557
BEGIN_RES GLU D 570
REMARK  3 active torsions:
REMARK  status: ('A' for Active; 'I' for Inactive)
REMARK    5  A    between atoms: CA   and  CB  
REMARK    6  A    between atoms: CB   and  CG  
REMARK    7  A    between atoms: CG   and  CD  
ROOT
ATOM     14  CA  GLU D 570     -18.033  -6.348 -13.375  1.00 32.92     0.160 C 
ENDROOT
BRANCH  14  15
ATOM     15  CB  GLU D 570     -19.500  -6.345 -13.794  1.00 32.92     0.043 C 
BRANCH  15  16
ATOM     16  CG  GLU D 570     -20.441  -5.526 -12.987  1.00 32.92     0.100 C 
BRANCH  16  17
ATOM     17  CD  GLU D 570     -21.744  -5.252 -13.700  1.00 32.92     0.185 C 
ATOM     18  OE1 GLU D 570     -22.245  -6.144 -14.410  1.00 32.92    -0.647 OA
ATOM     19  OE2 GLU D 570     -22.262  -4.126 -13.559  1.00 32.92    -0.647 OA
ENDBRANCH  16  17
ENDBRANCH  15  16
ENDBRANCH  14  15
END_RES GLU D 570
ENDMDL
MODEL 3
REMARK VINA RESULT:      -6.1      0.948      2.148
REMARK  0 active torsions:
REMARK  status: ('A' for Active; 'I' for Inactive)
ROOT
HETATM    1  C   UNL     1     -29.473  -5.682 -14.788  1.00  0.00     0.024 C 
HETATM    2  C   UNL     1     -28.968  -5.899 -16.195  1.00  0.00     0.024 C 
HETATM    3  C   UNL     1     -29.807  -6.873 -17.055  1.00  0.00     0.018 C 
HETATM    4  C   UNL     1     -29.320  -6.571 -18.491  1.00  0.00     0.007 C 
HETATM    5  C   UNL     1     -28.233  -5.487 -18.276  1.00  0.00     0.001 C 
HETATM    6  C   UNL     1     -26.996  -6.198 -17.669  1.00  0.00     0.084 C 
HETATM    7  C   UNL     1     -27.552  -6.478 -16.288  1.00  0.00     0.136 C 
HETATM    8  O   UNL     1     -26.968  -7.093 -15.411  1.00  0.00    -0.297 OA
HETATM    9  C   UNL     1     -28.812  -4.648 -17.102  1.00  0.00    -0.029 C 
HETATM   10  C   UNL     1     -27.854  -3.570 -16.556  1.00  0.00     0.016 C 
HETATM   11  C   UNL     1     -30.138  -3.933 -17.428  1.00  0.00     0.016 C 
ENDROOT
TORSDOF 0
BEGIN_RES ARG D 557
REMARK  4 active torsions:
REMARK  status: ('A' for Active; 'I' for Inactive)
REMARK    1  A    between atoms: CA   and  CB  
REMARK    2  A    between atoms: CB   and  CG  
REMARK    3  A    between atoms: CG   and  CD  
REMARK    4  A    between atoms: CD   and  NE  
REMARK       I    between atoms: NE   and  CZ  
REMARK       I    between atoms: CZ   and  NH1 
REMARK       I    between atoms: CZ   and  NH2 
ROOT
ATOM      1  CA  ARG D 557     -26.217   2.705 -17.014  1.00 35.49     0.159 C 
ENDROOT
BRANCH   1   2
ATOM      2  CB  ARG D 557     -26.789   1.319 -17.183  1.00 35.49     0.034 C 
BRANCH   2   3
ATOM      3  CG  ARG D 557     -25.837   0.202 -17.142  1.00 35.49     0.027 C 
BRANCH   3   4
ATOM      4  CD  ARG D 557     -24.758   0.416 -16.152  1.00 35.49     0.116 C 
BRANCH   4   5
ATOM      5  NE  ARG D 557     -24.899  -0.439 -15.003  1.00 35.49    -0.212 N 
ATOM      6  CZ  ARG D 557     -24.083  -1.412 -14.665  1.00 35.49     0.666 C 
ATOM      7  NH1 ARG D 557     -23.018  -1.726 -15.380  1.00 35.49    -0.235 N 
ATOM      8  NH2 ARG D 557     -24.354  -2.072 -13.576  1.00 35.49    -0.235 N 
ATOM      9  HH  ARG D 557     -22.820  -1.303 -16.099  1.00 35.49     0.174 HD
ATOM     10  HH  ARG D 557     -22.521  -2.369 -15.109  1.00 35.49     0.174 HD
ATOM     11  HH  ARG D 557     -25.043  -1.842 -13.130  1.00 35.49     0.174 HD
ATOM     12  HH  ARG D 557     -23.848  -2.704 -13.324  1.00 35.49     0.174 HD
ATOM     13  HE  ARG D 557     -25.597  -0.354 -14.525  1.00 35.49     0.178 HD
ENDBRANCH   4   5
ENDBRANCH   3   4
ENDBRANCH   2   3
ENDBRANCH   1   2
END_RES ARG D 557
BEGIN_RES GLU D 570
REMARK  3 active torsions:
REMARK  status: ('A' for Active; 'I' for Inactive)
REMARK    5  A    between atoms: CA   and  CB  
REMARK    6  A    between atoms: CB   and  CG  
REMARK    7  A    between atoms: CG   and  CD  
ROOT
ATOM     14  CA  GLU D 570     -18.033  -6.348 -13.375  1.00 32.92     0.160 C 
ENDROOT
BRANCH  14  15
ATOM     15  CB  GLU D 570     -19.500  -6.345 -13.794  1.00 32.92     0.043 C 
BRANCH  15  16
ATOM     16  CG  GLU D 570     -20.443  -5.536 -12.979  1.00 32.92     0.100 C 
BRANCH  16  17
ATOM     17  CD  GLU D 570     -21.745  -5.254 -13.691  1.00 32.92     0.185 C 
ATOM     18  OE1 GLU D 570     -22.240  -6.135 -14.420  1.00 32.92    -0.647 OA
ATOM     19  OE2 GLU D 570     -22.268  -4.133 -13.532  1.00 32.92    -0.647 OA
ENDBRANCH  16  17
ENDBRANCH  15  16
ENDBRANCH  14  15
END_RES GLU D 570
ENDMDL
MODEL 4
REMARK VINA RESULT:      -5.7      9.684     13.334
REMARK  0 active torsions:
REMARK  status: ('A' for Active; 'I' for Inactive)
ROOT
HETATM    1  C   UNL     1     -20.140  -8.183  -1.497  1.00  0.00     0.024 C 
HETATM    2  C   UNL     1     -21.430  -8.723  -0.926  1.00  0.00     0.024 C 
HETATM    3  C   UNL     1     -22.211  -9.685  -1.853  1.00  0.00     0.018 C 
HETATM    4  C   UNL     1     -23.200 -10.370  -0.881  1.00  0.00     0.007 C 
HETATM    5  C   UNL     1     -22.891  -9.691   0.477  1.00  0.00     0.001 C 
HETATM    6  C   UNL     1     -23.467  -8.253   0.407  1.00  0.00     0.084 C 
HETATM    7  C   UNL     1     -22.470  -7.658  -0.566  1.00  0.00     0.136 C 
HETATM    8  O   UNL     1     -22.519  -6.522  -1.009  1.00  0.00    -0.297 OA
HETATM    9  C   UNL     1     -21.350  -9.493   0.420  1.00  0.00    -0.029 C 
HETATM   10  C   UNL     1     -20.767  -8.681   1.595  1.00  0.00     0.016 C 
HETATM   11  C   UNL     1     -20.545 -10.806   0.352  1.00  0.00     0.016 C 
ENDROOT
TORSDOF 0
BEGIN_RES ARG D 557
REMARK  4 active torsions:
REMARK  status: ('A' for Active; 'I' for Inactive)
REMARK    1  A    between atoms: CA   and  CB  
REMARK    2  A    between atoms: CB   and  CG  
REMARK    3  A    between atoms: CG   and  CD  
REMARK    4  A    between atoms: CD   and  NE  
REMARK       I    between atoms: NE   and  CZ  
REMARK       I    between atoms: CZ   and  NH1 
REMARK       I    between atoms: CZ   and  NH2 
ROOT
ATOM      1  CA  ARG D 557     -26.217   2.705 -17.014  1.00 35.49     0.159 C 
ENDROOT
BRANCH   1   2
ATOM      2  CB  ARG D 557     -26.789   1.319 -17.183  1.00 35.49     0.034 C 
BRANCH   2   3
ATOM      3  CG  ARG D 557     -25.836   0.203 -17.151  1.00 35.49     0.027 C 
BRANCH   3   4
ATOM      4  CD  ARG D 557     -24.750   0.415 -16.167  1.00 35.49     0.116 C 
BRANCH   4   5
ATOM      5  NE  ARG D 557     -24.890  -0.433 -15.013  1.00 35.49    -0.212 N 
ATOM      6  CZ  ARG D 557     -24.073  -1.404 -14.670  1.00 35.49     0.666 C 
ATOM      7  NH1 ARG D 557     -23.009  -1.720 -15.384  1.00 35.49    -0.235 N 
ATOM      8  NH2 ARG D 557     -24.344  -2.058 -13.578  1.00 35.49    -0.235 N 
ATOM      9  HH  ARG D 557     -22.811  -1.302 -16.105  1.00 35.49     0.174 HD
ATOM     10  HH  ARG D 557     -22.511  -2.361 -15.109  1.00 35.49     0.174 HD
ATOM     11  HH  ARG D 557     -25.034  -1.827 -13.133  1.00 35.49     0.174 HD
ATOM     12  HH  ARG D 557     -23.838  -2.688 -13.322  1.00 35.49     0.174 HD
ATOM     13  HE  ARG D 557     -25.589  -0.347 -14.536  1.00 35.49     0.178 HD
ENDBRANCH   4   5
ENDBRANCH   3   4
ENDBRANCH   2   3
ENDBRANCH   1   2
END_RES ARG D 557
BEGIN_RES GLU D 570
REMARK  3 active torsions:
REMARK  status: ('A' for Active; 'I' for Inactive)
REMARK    5  A    between atoms: CA   and  CB  
REMARK    6  A    between atoms: CB   and  CG  
REMARK    7  A    between atoms: CG   and  CD  
ROOT
ATOM     14  CA  GLU D 570     -18.033  -6.348 -13.375  1.00 32.92     0.160 C 
ENDROOT
BRANCH  14  15
ATOM     15  CB  GLU D 570     -19.500  -6.345 -13.794  1.00 32.92     0.043 C 
BRANCH  15  16
ATOM     16  CG  GLU D 570     -20.443  -5.534 -12.980  1.00 32.92     0.100 C 
BRANCH  16  17
ATOM     17  CD  GLU D 570     -21.738  -5.239 -13.699  1.00 32.92     0.185 C 
ATOM     18  OE1 GLU D 570     -22.208  -6.093 -14.476  1.00 32.92    -0.647 OA
ATOM     19  OE2 GLU D 570     -22.281  -4.135 -13.497  1.00 32.92    -0.647 OA
ENDBRANCH  16  17
ENDBRANCH  15  16
ENDBRANCH  14  15
END_RES GLU D 570
ENDMDL
MODEL 5
REMARK VINA RESULT:      -5.4      1.631      2.244
REMARK  0 active torsions:
REMARK  status: ('A' for Active; 'I' for Inactive)
ROOT
HETATM    1  C   UNL     1     -27.635  -4.688 -15.847  1.00  0.00     0.024 C 
HETATM    2  C   UNL     1     -28.680  -5.627 -16.401  1.00  0.00     0.024 C 
HETATM    3  C   UNL     1     -30.131  -5.349 -15.940  1.00  0.00     0.018 C 
HETATM    4  C   UNL     1     -30.974  -6.153 -16.956  1.00  0.00     0.007 C 
HETATM    5  C   UNL     1     -29.904  -6.824 -17.854  1.00  0.00     0.001 C 
HETATM    6  C   UNL     1     -29.257  -7.958 -17.018  1.00  0.00     0.084 C 
HETATM    7  C   UNL     1     -28.474  -7.102 -16.045  1.00  0.00     0.136 C 
HETATM    8  O   UNL     1     -27.814  -7.531 -15.112  1.00  0.00    -0.297 OA
HETATM    9  C   UNL     1     -28.800  -5.734 -17.946  1.00  0.00    -0.029 C 
HETATM   10  C   UNL     1     -27.513  -6.189 -18.664  1.00  0.00     0.016 C 
HETATM   11  C   UNL     1     -29.251  -4.432 -18.638  1.00  0.00     0.016 C 
ENDROOT
TORSDOF 0
BEGIN_RES ARG D 557
REMARK  4 active torsions:
REMARK  status: ('A' for Active; 'I' for Inactive)
REMARK    1  A    between atoms: CA   and  CB  
REMARK    2  A    between atoms: CB   and  CG  
REMARK    3  A    between atoms: CG   and  CD  
REMARK    4  A    between atoms: CD   and  NE  
REMARK       I    between atoms: NE   and  CZ  
REMARK       I    between atoms: CZ   and  NH1 
REMARK       I    between atoms: CZ   and  NH2 
ROOT
ATOM      1  CA  ARG D 557     -26.217   2.705 -17.014  1.00 35.49     0.159 C 
ENDROOT
BRANCH   1   2
ATOM      2  CB  ARG D 557     -26.789   1.319 -17.183  1.00 35.49     0.034 C 
BRANCH   2   3
ATOM      3  CG  ARG D 557     -25.838   0.201 -17.134  1.00 35.49     0.027 C 
BRANCH   3   4
ATOM      4  CD  ARG D 557     -24.755   0.425 -16.150  1.00 35.49     0.116 C 
BRANCH   4   5
ATOM      5  NE  ARG D 557     -24.876  -0.439 -15.005  1.00 35.49    -0.212 N 
ATOM      6  CZ  ARG D 557     -24.046  -1.405 -14.681  1.00 35.49     0.666 C 
ATOM      7  NH1 ARG D 557     -22.985  -1.703 -15.408  1.00 35.49    -0.235 N 
ATOM      8  NH2 ARG D 557     -24.300  -2.075 -13.594  1.00 35.49    -0.235 N 
ATOM      9  HH  ARG D 557     -22.798  -1.274 -16.126  1.00 35.49     0.174 HD
ATOM     10  HH  ARG D 557     -22.478  -2.342 -15.146  1.00 35.49     0.174 HD
ATOM     11  HH  ARG D 557     -24.988  -1.856 -13.141  1.00 35.49     0.174 HD
ATOM     12  HH  ARG D 557     -23.785  -2.703 -13.351  1.00 35.49     0.174 HD
ATOM     13  HE  ARG D 557     -25.571  -0.365 -14.520  1.00 35.49     0.178 HD
ENDBRANCH   4   5
ENDBRANCH   3   4
ENDBRANCH   2   3
ENDBRANCH   1   2
END_RES ARG D 557
BEGIN_RES GLU D 570
REMARK  3 active torsions:
REMARK  status: ('A' for Active; 'I' for Inactive)
REMARK    5  A    between atoms: CA   and  CB  
REMARK    6  A    between atoms: CB   and  CG  
REMARK    7  A    between atoms: CG   and  CD  
ROOT
ATOM     14  CA  GLU D 570     -18.033  -6.348 -13.375  1.00 32.92     0.160 C 
ENDROOT
BRANCH  14  15
ATOM     15  CB  GLU D 570     -19.500  -6.345 -13.794  1.00 32.92     0.043 C 
BRANCH  15  16
ATOM     16  CG  GLU D 570     -19.798  -6.203 -15.243  1.00 32.92     0.100 C 
BRANCH  16  17
ATOM     17  CD  GLU D 570     -20.636  -7.336 -15.786  1.00 32.92     0.185 C 
ATOM     18  OE1 GLU D 570     -21.334  -7.141 -16.800  1.00 32.92    -0.647 OA
ATOM     19  OE2 GLU D 570     -20.607  -8.427 -15.182  1.00 32.92    -0.647 OA
ENDBRANCH  16  17
ENDBRANCH  15  16
ENDBRANCH  14  15
END_RES GLU D 570
ENDMDL
MODEL 6
REMARK VINA RESULT:      -5.4      1.854      2.859
REMARK  0 active torsions:
REMARK  status: ('A' for Active; 'I' for Inactive)
ROOT
HETATM    1  C   UNL     1     -28.598  -5.534 -15.066  1.00  0.00     0.024 C 
HETATM    2  C   UNL     1     -28.773  -5.913 -16.518  1.00  0.00     0.024 C 
HETATM    3  C   UNL     1     -29.323  -7.337 -16.768  1.00  0.00     0.018 C 
HETATM    4  C   UNL     1     -29.776  -7.276 -18.245  1.00  0.00     0.007 C 
HETATM    5  C   UNL     1     -29.397  -5.836 -18.673  1.00  0.00     0.001 C 
HETATM    6  C   UNL     1     -27.853  -5.797 -18.818  1.00  0.00     0.084 C 
HETATM    7  C   UNL     1     -27.487  -5.881 -17.350  1.00  0.00     0.136 C 
HETATM    8  O   UNL     1     -26.348  -5.945 -16.917  1.00  0.00    -0.297 OA
HETATM    9  C   UNL     1     -29.685  -5.008 -17.390  1.00  0.00    -0.029 C 
HETATM   10  C   UNL     1     -29.244  -3.532 -17.470  1.00  0.00     0.016 C 
HETATM   11  C   UNL     1     -31.166  -5.000 -16.960  1.00  0.00     0.016 C 
ENDROOT
TORSDOF 0
BEGIN_RES ARG D 557
REMARK  4 active torsions:
REMARK  status: ('A' for Active; 'I' for Inactive)
REMARK    1  A    between atoms: CA   and  CB  
REMARK    2  A    between atoms: CB   and  CG  
REMARK    3  A    between atoms: CG   and  CD  
REMARK    4  A    between atoms: CD   and  NE  
REMARK       I    between atoms: NE   and  CZ  
REMARK       I    between atoms: CZ   and  NH1 
REMARK       I    between atoms: CZ   and  NH2 
ROOT
ATOM      1  CA  ARG D 557     -26.217   2.705 -17.014  1.00 35.49     0.159 C 
ENDROOT
BRANCH   1   2
ATOM      2  CB  ARG D 557     -26.789   1.319 -17.183  1.00 35.49     0.034 C 
BRANCH   2   3
ATOM      3  CG  ARG D 557     -25.876   0.194 -16.945  1.00 35.49     0.027 C 
BRANCH   3   4
ATOM      4  CD  ARG D 557     -26.378  -0.728 -15.901  1.00 35.49     0.116 C 
BRANCH   4   5
ATOM      5  NE  ARG D 557     -25.399  -0.968 -14.873  1.00 35.49    -0.212 N 
ATOM      6  CZ  ARG D 557     -25.117  -2.135 -14.338  1.00 35.49     0.666 C 
ATOM      7  NH1 ARG D 557     -25.737  -3.246 -14.692  1.00 35.49    -0.235 N 
ATOM      8  NH2 ARG D 557     -24.184  -2.170 -13.432  1.00 35.49    -0.235 N 
ATOM      9  HH  ARG D 557     -26.353  -3.246 -15.288  1.00 35.49     0.174 HD
ATOM     10  HH  ARG D 557     -25.509  -3.978 -14.310  1.00 35.49     0.174 HD
ATOM     11  HH  ARG D 557     -23.796  -1.438 -13.229  1.00 35.49     0.174 HD
ATOM     12  HH  ARG D 557     -23.972  -2.905 -13.067  1.00 35.49     0.174 HD
ATOM     13  HE  ARG D 557     -25.003  -0.296 -14.534  1.00 35.49     0.178 HD
ENDBRANCH   4   5
ENDBRANCH   3   4
ENDBRANCH   2   3
ENDBRANCH   1   2
END_RES ARG D 557
BEGIN_RES GLU D 570
REMARK  3 active torsions:
REMARK  status: ('A' for Active; 'I' for Inactive)
REMARK    5  A    between atoms: CA   and  CB  
REMARK    6  A    between atoms: CB   and  CG  
REMARK    7  A    between atoms: CG   and  CD  
ROOT
ATOM     14  CA  GLU D 570     -18.033  -6.348 -13.375  1.00 32.92     0.160 C 
ENDROOT
BRANCH  14  15
ATOM     15  CB  GLU D 570     -19.500  -6.345 -13.794  1.00 32.92     0.043 C 
BRANCH  15  16
ATOM     16  CG  GLU D 570     -20.093  -7.639 -14.219  1.00 32.92     0.100 C 
BRANCH  16  17
ATOM     17  CD  GLU D 570     -20.667  -7.594 -15.616  1.00 32.92     0.185 C 
ATOM     18  OE1 GLU D 570     -20.743  -6.498 -16.204  1.00 32.92    -0.647 OA
ATOM     19  OE2 GLU D 570     -21.060  -8.664 -16.122  1.00 32.92    -0.647 OA
ENDBRANCH  16  17
ENDBRANCH  15  16
ENDBRANCH  14  15
END_RES GLU D 570
ENDMDL
MODEL 7
REMARK VINA RESULT:      -5.2      9.897     13.450
REMARK  0 active torsions:
REMARK  status: ('A' for Active; 'I' for Inactive)
ROOT
HETATM    1  C   UNL     1     -19.879 -11.092  -0.318  1.00  0.00     0.024 C 
HETATM    2  C   UNL     1     -21.048 -10.172  -0.056  1.00  0.00     0.024 C 
HETATM    3  C   UNL     1     -20.903  -9.256   1.183  1.00  0.00     0.018 C 
HETATM    4  C   UNL     1     -21.998  -8.189   0.950  1.00  0.00     0.007 C 
HETATM    5  C   UNL     1     -22.661  -8.644  -0.374  1.00  0.00     0.001 C 
HETATM    6  C   UNL     1     -23.512  -9.899  -0.048  1.00  0.00     0.084 C 
HETATM    7  C   UNL     1     -22.384 -10.882   0.186  1.00  0.00     0.136 C 
HETATM    8  O   UNL     1     -22.529 -12.041   0.539  1.00  0.00    -0.297 OA
HETATM    9  C   UNL     1     -21.459  -9.195  -1.190  1.00  0.00    -0.029 C 
HETATM   10  C   UNL     1     -21.847  -9.874  -2.519  1.00  0.00     0.016 C 
HETATM   11  C   UNL     1     -20.390  -8.138  -1.534  1.00  0.00     0.016 C 
ENDROOT
TORSDOF 0
BEGIN_RES ARG D 557
REMARK  4 active torsions:
REMARK  status: ('A' for Active; 'I' for Inactive)
REMARK    1  A    between atoms: CA   and  CB  
REMARK    2  A    between atoms: CB   and  CG  
REMARK    3  A    between atoms: CG   and  CD  
REMARK    4  A    between atoms: CD   and  NE  
REMARK       I    between atoms: NE   and  CZ  
REMARK       I    between atoms: CZ   and  NH1 
REMARK       I    between atoms: CZ   and  NH2 
ROOT
ATOM      1  CA  ARG D 557     -26.217   2.705 -17.014  1.00 35.49     0.159 C 
ENDROOT
BRANCH   1   2
ATOM      2  CB  ARG D 557     -26.789   1.319 -17.183  1.00 35.49     0.034 C 
BRANCH   2   3
ATOM      3  CG  ARG D 557     -25.836   0.203 -17.154  1.00 35.49     0.027 C 
BRANCH   3   4
ATOM      4  CD  ARG D 557     -24.750   0.413 -16.169  1.00 35.49     0.116 C 
BRANCH   4   5
ATOM      5  NE  ARG D 557     -24.894  -0.434 -15.015  1.00 35.49    -0.212 N 
ATOM      6  CZ  ARG D 557     -24.079  -1.406 -14.669  1.00 35.49     0.666 C 
ATOM      7  NH1 ARG D 557     -23.014  -1.725 -15.381  1.00 35.49    -0.235 N 
ATOM      8  NH2 ARG D 557     -24.353  -2.058 -13.577  1.00 35.49    -0.235 N 
ATOM      9  HH  ARG D 557     -22.814  -1.308 -16.102  1.00 35.49     0.174 HD
ATOM     10  HH  ARG D 557     -22.518  -2.367 -15.105  1.00 35.49     0.174 HD
ATOM     11  HH  ARG D 557     -25.043  -1.825 -13.133  1.00 35.49     0.174 HD
ATOM     12  HH  ARG D 557     -23.848  -2.689 -13.319  1.00 35.49     0.174 HD
ATOM     13  HE  ARG D 557     -25.593  -0.345 -14.539  1.00 35.49     0.178 HD
ENDBRANCH   4   5
ENDBRANCH   3   4
ENDBRANCH   2   3
ENDBRANCH   1   2
END_RES ARG D 557
BEGIN_RES GLU D 570
REMARK  3 active torsions:
REMARK  status: ('A' for Active; 'I' for Inactive)
REMARK    5  A    between atoms: CA   and  CB  
REMARK    6  A    between atoms: CB   and  CG  
REMARK    7  A    between atoms: CG   and  CD  
ROOT
ATOM     14  CA  GLU D 570     -18.033  -6.348 -13.375  1.00 32.92     0.160 C 
ENDROOT
BRANCH  14  15
ATOM     15  CB  GLU D 570     -19.500  -6.345 -13.794  1.00 32.92     0.043 C 
BRANCH  15  16
ATOM     16  CG  GLU D 570     -20.445  -5.545 -12.972  1.00 32.92     0.100 C 
BRANCH  16  17
ATOM     17  CD  GLU D 570     -21.739  -5.241 -13.691  1.00 32.92     0.185 C 
ATOM     18  OE1 GLU D 570     -22.272  -4.126 -13.531  1.00 32.92    -0.647 OA
ATOM     19  OE2 GLU D 570     -22.233  -6.133 -14.408  1.00 32.92    -0.647 OA
ENDBRANCH  16  17
ENDBRANCH  15  16
ENDBRANCH  14  15
END_RES GLU D 570
ENDMDL
MODEL 8
REMARK VINA RESULT:      -5.2      9.812     13.451
REMARK  0 active torsions:
REMARK  status: ('A' for Active; 'I' for Inactive)
ROOT
HETATM    1  C   UNL     1     -22.232  -7.560  -0.743  1.00  0.00     0.024 C 
HETATM    2  C   UNL     1     -22.101  -9.021  -0.384  1.00  0.00     0.024 C 
HETATM    3  C   UNL     1     -23.428  -9.739  -0.044  1.00  0.00     0.018 C 
HETATM    4  C   UNL     1     -23.043 -11.234  -0.139  1.00  0.00     0.007 C 
HETATM    5  C   UNL     1     -21.533 -11.190  -0.485  1.00  0.00     0.001 C 
HETATM    6  C   UNL     1     -20.785 -10.755   0.802  1.00  0.00     0.084 C 
HETATM    7  C   UNL     1     -21.223  -9.306   0.838  1.00  0.00     0.136 C 
HETATM    8  O   UNL     1     -20.940  -8.513   1.721  1.00  0.00    -0.297 OA
HETATM    9  C   UNL     1     -21.431  -9.958  -1.426  1.00  0.00    -0.029 C 
HETATM   10  C   UNL     1     -19.990  -9.568  -1.813  1.00  0.00     0.016 C 
HETATM   11  C   UNL     1     -22.217 -10.101  -2.745  1.00  0.00     0.016 C 
ENDROOT
TORSDOF 0
BEGIN_RES ARG D 557
REMARK  4 active torsions:
REMARK  status: ('A' for Active; 'I' for Inactive)
REMARK    1  A    between atoms: CA   and  CB  
REMARK    2  A    between atoms: CB   and  CG  
REMARK    3  A    between atoms: CG   and  CD  
REMARK    4  A    between atoms: CD   and  NE  
REMARK       I    between atoms: NE   and  CZ  
REMARK       I    between atoms: CZ   and  NH1 
REMARK       I    between atoms: CZ   and  NH2 
ROOT
ATOM      1  CA  ARG D 557     -26.217   2.705 -17.014  1.00 35.49     0.159 C 
ENDROOT
BRANCH   1   2
ATOM      2  CB  ARG D 557     -26.789   1.319 -17.183  1.00 35.49     0.034 C 
BRANCH   2   3
ATOM      3  CG  ARG D 557     -25.837   0.202 -17.145  1.00 35.49     0.027 C 
BRANCH   3   4
ATOM      4  CD  ARG D 557     -24.756   0.416 -16.156  1.00 35.49     0.116 C 
BRANCH   4   5
ATOM      5  NE  ARG D 557     -24.897  -0.436 -15.005  1.00 35.49    -0.212 N 
ATOM      6  CZ  ARG D 557     -24.080  -1.407 -14.663  1.00 35.49     0.666 C 
ATOM      7  NH1 ARG D 557     -23.013  -1.720 -15.376  1.00 35.49    -0.235 N 
ATOM      8  NH2 ARG D 557     -24.351  -2.065 -13.574  1.00 35.49    -0.235 N 
ATOM      9  HH  ARG D 557     -22.814  -1.299 -16.095  1.00 35.49     0.174 HD
ATOM     10  HH  ARG D 557     -22.515  -2.361 -15.102  1.00 35.49     0.174 HD
ATOM     11  HH  ARG D 557     -25.043  -1.836 -13.130  1.00 35.49     0.174 HD
ATOM     12  HH  ARG D 557     -23.845  -2.695 -13.319  1.00 35.49     0.174 HD
ATOM     13  HE  ARG D 557     -25.597  -0.352 -14.530  1.00 35.49     0.178 HD
ENDBRANCH   4   5
ENDBRANCH   3   4
ENDBRANCH   2   3
ENDBRANCH   1   2
END_RES ARG D 557
BEGIN_RES GLU D 570
REMARK  3 active torsions:
REMARK  status: ('A' for Active; 'I' for Inactive)
REMARK    5  A    between atoms: CA   and  CB  
REMARK    6  A    between atoms: CB   and  CG  
REMARK    7  A    between atoms: CG   and  CD  
ROOT
ATOM     14  CA  GLU D 570     -18.033  -6.348 -13.375  1.00 32.92     0.160 C 
ENDROOT
BRANCH  14  15
ATOM     15  CB  GLU D 570     -19.500  -6.345 -13.794  1.00 32.92     0.043 C 
BRANCH  15  16
ATOM     16  CG  GLU D 570     -20.445  -5.543 -12.974  1.00 32.92     0.100 C 
BRANCH  16  17
ATOM     17  CD  GLU D 570     -21.733  -5.229 -13.698  1.00 32.92     0.185 C 
ATOM     18  OE1 GLU D 570     -22.281  -4.126 -13.506  1.00 32.92    -0.647 OA
ATOM     19  OE2 GLU D 570     -22.208  -6.101 -14.452  1.00 32.92    -0.647 OA
ENDBRANCH  16  17
ENDBRANCH  15  16
ENDBRANCH  14  15
END_RES GLU D 570
ENDMDL
MODEL 9
REMARK VINA RESULT:      -5.2      9.826     13.491
REMARK  0 active torsions:
REMARK  status: ('A' for Active; 'I' for Inactive)
ROOT
HETATM    1  C   UNL     1     -20.134  -8.190  -1.492  1.00  0.00     0.024 C 
HETATM    2  C   UNL     1     -21.421  -8.752  -0.937  1.00  0.00     0.024 C 
HETATM    3  C   UNL     1     -22.186  -9.709  -1.881  1.00  0.00     0.018 C 
HETATM    4  C   UNL     1     -23.174 -10.417  -0.925  1.00  0.00     0.007 C 
HETATM    5  C   UNL     1     -22.880  -9.754   0.444  1.00  0.00     0.001 C 
HETATM    6  C   UNL     1     -23.470  -8.321   0.390  1.00  0.00     0.084 C 
HETATM    7  C   UNL     1     -22.474  -7.703  -0.569  1.00  0.00     0.136 C 
HETATM    8  O   UNL     1     -22.532  -6.561  -0.996  1.00  0.00    -0.297 OA
HETATM    9  C   UNL     1     -21.341  -9.539   0.400  1.00  0.00    -0.029 C 
HETATM   10  C   UNL     1     -20.774  -8.737   1.589  1.00  0.00     0.016 C 
HETATM   11  C   UNL     1     -20.522 -10.843   0.319  1.00  0.00     0.016 C 
ENDROOT
TORSDOF 0
BEGIN_RES ARG D 557
REMARK  4 active torsions:
REMARK  status: ('A' for Active; 'I' for Inactive)
REMARK    1  A    between atoms: CA   and  CB  
REMARK    2  A    between atoms: CB   and  CG  
REMARK    3  A    between atoms: CG   and  CD  
REMARK    4  A    between atoms: CD   and  NE  
REMARK       I    between atoms: NE   and  CZ  
REMARK       I    between atoms: CZ   and  NH1 
REMARK       I    between atoms: CZ   and  NH2 
ROOT
ATOM      1  CA  ARG D 557     -26.217   2.705 -17.014  1.00 35.49     0.159 C 
ENDROOT
BRANCH   1   2
ATOM      2  CB  ARG D 557     -26.789   1.319 -17.183  1.00 35.49     0.034 C 
BRANCH   2   3
ATOM      3  CG  ARG D 557     -28.236   1.173 -16.987  1.00 35.49     0.027 C 
BRANCH   3   4
ATOM      4  CD  ARG D 557     -28.630  -0.228 -16.712  1.00 35.49     0.116 C 
BRANCH   4   5
ATOM      5  NE  ARG D 557     -27.597  -0.956 -16.024  1.00 35.49    -0.212 N 
ATOM      6  CZ  ARG D 557     -27.400  -2.254 -16.088  1.00 35.49     0.666 C 
ATOM      7  NH1 ARG D 557     -28.169  -3.054 -16.805  1.00 35.49    -0.235 N 
ATOM      8  NH2 ARG D 557     -26.400  -2.744 -15.414  1.00 35.49    -0.235 N 
ATOM      9  HH  ARG D 557     -28.831  -2.753 -17.257  1.00 35.49     0.174 HD
ATOM     10  HH  ARG D 557     -27.991  -3.892 -16.810  1.00 35.49     0.174 HD
ATOM     11  HH  ARG D 557     -25.916  -2.202 -14.966  1.00 35.49     0.174 HD
ATOM     12  HH  ARG D 557     -26.239  -3.576 -15.434  1.00 35.49     0.174 HD
ATOM     13  HE  ARG D 557     -27.100  -0.529 -15.482  1.00 35.49     0.178 HD
ENDBRANCH   4   5
ENDBRANCH   3   4
ENDBRANCH   2   3
ENDBRANCH   1   2
END_RES ARG D 557
BEGIN_RES GLU D 570
REMARK  3 active torsions:
REMARK  status: ('A' for Active; 'I' for Inactive)
REMARK    5  A    between atoms: CA   and  CB  
REMARK    6  A    between atoms: CB   and  CG  
REMARK    7  A    between atoms: CG   and  CD  
ROOT
ATOM     14  CA  GLU D 570     -18.033  -6.348 -13.375  1.00 32.92     0.160 C 
ENDROOT
BRANCH  14  15
ATOM     15  CB  GLU D 570     -19.500  -6.345 -13.794  1.00 32.92     0.043 C 
BRANCH  15  16
ATOM     16  CG  GLU D 570     -20.448  -5.560 -12.962  1.00 32.92     0.100 C 
BRANCH  16  17
ATOM     17  CD  GLU D 570     -21.701  -5.166 -13.708  1.00 32.92     0.185 C 
ATOM     18  OE1 GLU D 570     -22.753  -4.976 -13.068  1.00 32.92    -0.647 OA
ATOM     19  OE2 GLU D 570     -21.634  -5.063 -14.949  1.00 32.92    -0.647 OA
ENDBRANCH  16  17
ENDBRANCH  15  16
ENDBRANCH  14  15
END_RES GLU D 570
ENDMDL
