MODEL 1
REMARK VINA RESULT:      -8.3      0.000      0.000
REMARK  16 active torsions:
REMARK  status: ('A' for Active; 'I' for Inactive)
REMARK    1  A    between atoms: C_2  and  C_3 
REMARK    2  A    between atoms: C_3  and  C_4 
REMARK    3  A    between atoms: C_4  and  C_5 
REMARK    4  A    between atoms: C_5  and  C_6 
REMARK    5  A    between atoms: C_7  and  C_8 
REMARK    6  A    between atoms: C_8  and  C_9 
REMARK    7  A    between atoms: C_10  and  C_11 
REMARK    8  A    between atoms: C_11  and  C_12 
REMARK    9  A    between atoms: C_13  and  C_14 
REMARK   10  A    between atoms: C_15  and  C_16 
REMARK   11  A    between atoms: C_16  and  O_17 
REMARK   12  A    between atoms: C_16  and  C_18 
REMARK   13  A    between atoms: C_18  and  C_19 
REMARK   14  A    between atoms: C_19  and  C_20 
REMARK   15  A    between atoms: C_20  and  C_21 
REMARK   16  A    between atoms: C_21  and  O_23 
ROOT
HETATM    1  C   UNL     1     -20.657  -4.034  -8.251  1.00  0.00    -0.023 C 
HETATM    2  C   UNL     1     -20.669  -4.349  -9.555  1.00  0.00    -0.004 C 
ENDROOT
BRANCH   2   3
HETATM    3  C   UNL     1     -21.723  -3.937 -10.446  1.00  0.00    -0.002 C 
HETATM    4  C   UNL     1     -23.014  -4.236 -10.235  1.00  0.00     0.004 C 
BRANCH   4   5
HETATM    5  C   UNL     1     -24.118  -3.764 -11.134  1.00  0.00     0.141 C 
BRANCH   5   6
HETATM    6  O   UNL     1     -25.142  -3.192 -10.327  1.00  0.00    -0.392 OA
HETATM    7  H   UNL     1     -25.517  -3.898  -9.776  1.00  0.00     0.210 HD
ENDBRANCH   5   6
BRANCH   5   8
HETATM    8  C   UNL     1     -23.641  -2.716 -12.151  1.00  0.00     0.036 C 
BRANCH   8   9
HETATM    9  C   UNL     1     -24.258  -2.935 -13.535  1.00  0.00     0.013 C 
BRANCH   9  10
HETATM   10  C   UNL     1     -23.531  -2.158 -14.629  1.00  0.00     0.110 C 
BRANCH  10  11
HETATM   11  C   UNL     1     -24.317  -0.932 -15.034  1.00  0.00     0.139 C 
HETATM   12  O   UNL     1     -23.839   0.113 -15.443  1.00  0.00    -0.650 OA
BRANCH  11  13
HETATM   13  O   UNL     1     -25.652  -1.108 -14.896  1.00  0.00    -0.776 OA
HETATM   14  H   UNL     1     -26.135  -0.294 -14.665  1.00  0.00     0.167 HD
ENDBRANCH  11  13
ENDBRANCH  10  11
ENDBRANCH   9  10
ENDBRANCH   8   9
ENDBRANCH   5   8
ENDBRANCH   4   5
ENDBRANCH   2   3
BRANCH   1  15
HETATM   15  C   UNL     1     -19.549  -4.432  -7.324  1.00  0.00     0.054 C 
BRANCH  15  16
HETATM   16  C   UNL     1     -20.028  -5.390  -6.276  1.00  0.00    -0.027 C 
HETATM   17  C   UNL     1     -20.754  -6.486  -6.545  1.00  0.00    -0.027 C 
BRANCH  17  18
HETATM   18  C   UNL     1     -21.262  -7.420  -5.489  1.00  0.00     0.053 C 
BRANCH  18  19
HETATM   19  C   UNL     1     -21.884  -6.669  -4.353  1.00  0.00    -0.027 C 
HETATM   20  C   UNL     1     -21.596  -6.903  -3.064  1.00  0.00    -0.030 C 
BRANCH  20  21
HETATM   21  C   UNL     1     -22.234  -6.158  -1.931  1.00  0.00     0.027 C 
BRANCH  21  22
HETATM   22  C   UNL     1     -22.278  -7.013  -0.667  1.00  0.00     0.004 C 
BRANCH  22  23
HETATM   23  C   UNL     1     -21.415  -8.263  -0.832  1.00  0.00    -0.000 C 
BRANCH  23  24
HETATM   24  C   UNL     1     -22.222  -9.530  -0.565  1.00  0.00    -0.005 C 
HETATM   25  C   UNL     1     -23.470  -9.225   0.245  1.00  0.00     0.005 C 
ENDBRANCH  23  24
ENDBRANCH  22  23
ENDBRANCH  21  22
ENDBRANCH  20  21
ENDBRANCH  18  19
ENDBRANCH  17  18
ENDBRANCH  15  16
ENDBRANCH   1  15
TORSDOF 16
BEGIN_RES ARG D 557
REMARK  4 active torsions:
REMARK  status: ('A' for Active; 'I' for Inactive)
REMARK    1  A    between atoms: CA   and  CB  
REMARK    2  A    between atoms: CB   and  CG  
REMARK    3  A    between atoms: CG   and  CD  
REMARK    4  A    between atoms: CD   and  NE  
REMARK       I    between atoms: NE   and  CZ  
REMARK       I    between atoms: CZ   and  NH1 
REMARK       I    between atoms: CZ   and  NH2 
ROOT
ATOM      1  CA  ARG D 557     -26.217   2.705 -17.014  1.00 35.49     0.159 C 
ENDROOT
BRANCH   1   2
ATOM      2  CB  ARG D 557     -26.789   1.319 -17.183  1.00 35.49     0.034 C 
BRANCH   2   3
ATOM      3  CG  ARG D 557     -28.226   1.228 -17.468  1.00 35.49     0.027 C 
BRANCH   3   4
ATOM      4  CD  ARG D 557     -28.926   0.301 -16.549  1.00 35.49     0.116 C 
BRANCH   4   5
ATOM      5  NE  ARG D 557     -28.152  -0.881 -16.277  1.00 35.49    -0.212 N 
ATOM      6  CZ  ARG D 557     -28.402  -2.086 -16.739  1.00 35.49     0.666 C 
ATOM      7  NH1 ARG D 557     -29.436  -2.346 -17.517  1.00 35.49    -0.235 N 
ATOM      8  NH2 ARG D 557     -27.580  -3.038 -16.407  1.00 35.49    -0.235 N 
ATOM      9  HH  ARG D 557     -29.988  -1.734 -17.750  1.00 35.49     0.174 HD
ATOM     10  HH  ARG D 557     -29.547  -3.151 -17.790  1.00 35.49     0.174 HD
ATOM     11  HH  ARG D 557     -26.917  -2.839 -15.909  1.00 35.49     0.174 HD
ATOM     12  HH  ARG D 557     -27.706  -3.828 -16.688  1.00 35.49     0.174 HD
ATOM     13  HE  ARG D 557     -27.508  -0.819 -15.725  1.00 35.49     0.178 HD
ENDBRANCH   4   5
ENDBRANCH   3   4
ENDBRANCH   2   3
ENDBRANCH   1   2
END_RES ARG D 557
BEGIN_RES GLU D 570
REMARK  3 active torsions:
REMARK  status: ('A' for Active; 'I' for Inactive)
REMARK    5  A    between atoms: CA   and  CB  
REMARK    6  A    between atoms: CB   and  CG  
REMARK    7  A    between atoms: CG   and  CD  
ROOT
ATOM     14  CA  GLU D 570     -18.033  -6.348 -13.375  1.00 32.92     0.160 C 
ENDROOT
BRANCH  14  15
ATOM     15  CB  GLU D 570     -19.500  -6.345 -13.794  1.00 32.92     0.043 C 
BRANCH  15  16
ATOM     16  CG  GLU D 570     -19.809  -5.983 -15.201  1.00 32.92     0.100 C 
BRANCH  16  17
ATOM     17  CD  GLU D 570     -21.190  -5.393 -15.368  1.00 32.92     0.185 C 
ATOM     18  OE1 GLU D 570     -21.533  -4.960 -16.485  1.00 32.92    -0.647 OA
ATOM     19  OE2 GLU D 570     -21.931  -5.347 -14.367  1.00 32.92    -0.647 OA
ENDBRANCH  16  17
ENDBRANCH  15  16
ENDBRANCH  14  15
END_RES GLU D 570
ENDMDL
MODEL 2
REMARK VINA RESULT:      -8.1      1.246      2.234
REMARK  16 active torsions:
REMARK  status: ('A' for Active; 'I' for Inactive)
REMARK    1  A    between atoms: C_2  and  C_3 
REMARK    2  A    between atoms: C_3  and  C_4 
REMARK    3  A    between atoms: C_4  and  C_5 
REMARK    4  A    between atoms: C_5  and  C_6 
REMARK    5  A    between atoms: C_7  and  C_8 
REMARK    6  A    between atoms: C_8  and  C_9 
REMARK    7  A    between atoms: C_10  and  C_11 
REMARK    8  A    between atoms: C_11  and  C_12 
REMARK    9  A    between atoms: C_13  and  C_14 
REMARK   10  A    between atoms: C_15  and  C_16 
REMARK   11  A    between atoms: C_16  and  O_17 
REMARK   12  A    between atoms: C_16  and  C_18 
REMARK   13  A    between atoms: C_18  and  C_19 
REMARK   14  A    between atoms: C_19  and  C_20 
REMARK   15  A    between atoms: C_20  and  C_21 
REMARK   16  A    between atoms: C_21  and  O_23 
ROOT
HETATM    1  C   UNL     1     -21.247  -5.519  -7.097  1.00  0.00    -0.023 C 
HETATM    2  C   UNL     1     -21.721  -4.287  -7.336  1.00  0.00    -0.004 C 
ENDROOT
BRANCH   2   3
HETATM    3  C   UNL     1     -22.399  -3.938  -8.557  1.00  0.00    -0.002 C 
HETATM    4  C   UNL     1     -23.674  -4.274  -8.805  1.00  0.00     0.004 C 
BRANCH   4   5
HETATM    5  C   UNL     1     -24.397  -3.866 -10.055  1.00  0.00     0.141 C 
BRANCH   5   6
HETATM    6  O   UNL     1     -25.571  -3.153  -9.682  1.00  0.00    -0.392 OA
HETATM    7  H   UNL     1     -25.560  -3.042  -8.718  1.00  0.00     0.210 HD
ENDBRANCH   5   6
BRANCH   5   8
HETATM    8  C   UNL     1     -23.540  -2.976 -10.966  1.00  0.00     0.036 C 
BRANCH   8   9
HETATM    9  C   UNL     1     -23.053  -3.725 -12.209  1.00  0.00     0.013 C 
BRANCH   9  10
HETATM   10  C   UNL     1     -23.055  -2.849 -13.459  1.00  0.00     0.110 C 
BRANCH  10  11
HETATM   11  C   UNL     1     -24.349  -3.007 -14.226  1.00  0.00     0.139 C 
HETATM   12  O   UNL     1     -25.242  -2.178 -14.288  1.00  0.00    -0.650 OA
BRANCH  11  13
HETATM   13  O   UNL     1     -24.428  -4.199 -14.862  1.00  0.00    -0.776 OA
HETATM   14  H   UNL     1     -24.365  -4.968 -14.268  1.00  0.00     0.167 HD
ENDBRANCH  11  13
ENDBRANCH  10  11
ENDBRANCH   9  10
ENDBRANCH   8   9
ENDBRANCH   5   8
ENDBRANCH   4   5
ENDBRANCH   2   3
BRANCH   1  15
HETATM   15  C   UNL     1     -20.568  -5.900  -5.816  1.00  0.00     0.054 C 
BRANCH  15  16
HETATM   16  C   UNL     1     -21.559  -6.109  -4.711  1.00  0.00    -0.027 C 
HETATM   17  C   UNL     1     -21.262  -5.973  -3.410  1.00  0.00    -0.027 C 
BRANCH  17  18
HETATM   18  C   UNL     1     -22.246  -6.221  -2.307  1.00  0.00     0.053 C 
BRANCH  18  19
HETATM   19  C   UNL     1     -21.772  -7.304  -1.389  1.00  0.00    -0.027 C 
HETATM   20  C   UNL     1     -22.393  -7.632  -0.247  1.00  0.00    -0.030 C 
BRANCH  20  21
HETATM   21  C   UNL     1     -21.904  -8.707   0.675  1.00  0.00     0.027 C 
BRANCH  21  22
HETATM   22  C   UNL     1     -22.142 -10.093   0.080  1.00  0.00     0.004 C 
BRANCH  22  23
HETATM   23  C   UNL     1     -23.639 -10.382  -0.027  1.00  0.00    -0.000 C 
BRANCH  23  24
HETATM   24  C   UNL     1     -23.950 -11.230  -1.258  1.00  0.00    -0.005 C 
HETATM   25  C   UNL     1     -22.843 -11.123  -2.292  1.00  0.00     0.005 C 
ENDBRANCH  23  24
ENDBRANCH  22  23
ENDBRANCH  21  22
ENDBRANCH  20  21
ENDBRANCH  18  19
ENDBRANCH  17  18
ENDBRANCH  15  16
ENDBRANCH   1  15
TORSDOF 16
BEGIN_RES ARG D 557
REMARK  4 active torsions:
REMARK  status: ('A' for Active; 'I' for Inactive)
REMARK    1  A    between atoms: CA   and  CB  
REMARK    2  A    between atoms: CB   and  CG  
REMARK    3  A    between atoms: CG   and  CD  
REMARK    4  A    between atoms: CD   and  NE  
REMARK       I    between atoms: NE   and  CZ  
REMARK       I    between atoms: CZ   and  NH1 
REMARK       I    between atoms: CZ   and  NH2 
ROOT
ATOM      1  CA  ARG D 557     -26.217   2.705 -17.014  1.00 35.49     0.159 C 
ENDROOT
BRANCH   1   2
ATOM      2  CB  ARG D 557     -26.789   1.319 -17.183  1.00 35.49     0.034 C 
BRANCH   2   3
ATOM      3  CG  ARG D 557     -28.229   1.227 -17.452  1.00 35.49     0.027 C 
BRANCH   3   4
ATOM      4  CD  ARG D 557     -28.919   0.304 -16.521  1.00 35.49     0.116 C 
BRANCH   4   5
ATOM      5  NE  ARG D 557     -29.255  -0.947 -17.148  1.00 35.49    -0.212 N 
ATOM      6  CZ  ARG D 557     -28.598  -2.077 -17.010  1.00 35.49     0.666 C 
ATOM      7  NH1 ARG D 557     -27.514  -2.179 -16.264  1.00 35.49    -0.235 N 
ATOM      8  NH2 ARG D 557     -29.059  -3.120 -17.636  1.00 35.49    -0.235 N 
ATOM      9  HH  ARG D 557     -27.194  -1.506 -15.841  1.00 35.49     0.174 HD
ATOM     10  HH  ARG D 557     -27.128  -2.943 -16.209  1.00 35.49     0.174 HD
ATOM     11  HH  ARG D 557     -29.766  -3.025 -18.105  1.00 35.49     0.174 HD
ATOM     12  HH  ARG D 557     -28.665  -3.867 -17.568  1.00 35.49     0.174 HD
ATOM     13  HE  ARG D 557     -29.899  -0.955 -17.704  1.00 35.49     0.178 HD
ENDBRANCH   4   5
ENDBRANCH   3   4
ENDBRANCH   2   3
ENDBRANCH   1   2
END_RES ARG D 557
BEGIN_RES GLU D 570
REMARK  3 active torsions:
REMARK  status: ('A' for Active; 'I' for Inactive)
REMARK    5  A    between atoms: CA   and  CB  
REMARK    6  A    between atoms: CB   and  CG  
REMARK    7  A    between atoms: CG   and  CD  
ROOT
ATOM     14  CA  GLU D 570     -18.033  -6.348 -13.375  1.00 32.92     0.160 C 
ENDROOT
BRANCH  14  15
ATOM     15  CB  GLU D 570     -19.500  -6.345 -13.794  1.00 32.92     0.043 C 
BRANCH  15  16
ATOM     16  CG  GLU D 570     -19.821  -5.859 -15.161  1.00 32.92     0.100 C 
BRANCH  16  17
ATOM     17  CD  GLU D 570     -21.284  -5.528 -15.341  1.00 32.92     0.185 C 
ATOM     18  OE1 GLU D 570     -21.609  -4.644 -16.156  1.00 32.92    -0.647 OA
ATOM     19  OE2 GLU D 570     -22.113  -6.147 -14.646  1.00 32.92    -0.647 OA
ENDBRANCH  16  17
ENDBRANCH  15  16
ENDBRANCH  14  15
END_RES GLU D 570
ENDMDL
MODEL 3
REMARK VINA RESULT:      -7.9      1.297      2.453
REMARK  16 active torsions:
REMARK  status: ('A' for Active; 'I' for Inactive)
REMARK    1  A    between atoms: C_2  and  C_3 
REMARK    2  A    between atoms: C_3  and  C_4 
REMARK    3  A    between atoms: C_4  and  C_5 
REMARK    4  A    between atoms: C_5  and  C_6 
REMARK    5  A    between atoms: C_7  and  C_8 
REMARK    6  A    between atoms: C_8  and  C_9 
REMARK    7  A    between atoms: C_10  and  C_11 
REMARK    8  A    between atoms: C_11  and  C_12 
REMARK    9  A    between atoms: C_13  and  C_14 
REMARK   10  A    between atoms: C_15  and  C_16 
REMARK   11  A    between atoms: C_16  and  O_17 
REMARK   12  A    between atoms: C_16  and  C_18 
REMARK   13  A    between atoms: C_18  and  C_19 
REMARK   14  A    between atoms: C_19  and  C_20 
REMARK   15  A    between atoms: C_20  and  C_21 
REMARK   16  A    between atoms: C_21  and  O_23 
ROOT
HETATM    1  C   UNL     1     -20.970  -6.131  -6.953  1.00  0.00    -0.023 C 
HETATM    2  C   UNL     1     -21.085  -4.801  -7.091  1.00  0.00    -0.004 C 
ENDROOT
BRANCH   2   3
HETATM    3  C   UNL     1     -21.453  -4.177  -8.336  1.00  0.00    -0.002 C 
HETATM    4  C   UNL     1     -20.717  -4.288  -9.452  1.00  0.00     0.004 C 
BRANCH   4   5
HETATM    5  C   UNL     1     -21.126  -3.681 -10.762  1.00  0.00     0.141 C 
BRANCH   5   6
HETATM    6  O   UNL     1     -20.023  -3.761 -11.658  1.00  0.00    -0.392 OA
HETATM    7  H   UNL     1     -20.111  -4.583 -12.168  1.00  0.00     0.210 HD
ENDBRANCH   5   6
BRANCH   5   8
HETATM    8  C   UNL     1     -22.331  -4.395 -11.390  1.00  0.00     0.036 C 
BRANCH   8   9
HETATM    9  C   UNL     1     -23.360  -3.407 -11.946  1.00  0.00     0.013 C 
BRANCH   9  10
HETATM   10  C   UNL     1     -22.955  -2.843 -13.305  1.00  0.00     0.110 C 
BRANCH  10  11
HETATM   11  C   UNL     1     -24.149  -2.752 -14.229  1.00  0.00     0.139 C 
HETATM   12  O   UNL     1     -24.859  -1.772 -14.375  1.00  0.00    -0.650 OA
BRANCH  11  13
HETATM   13  O   UNL     1     -24.365  -3.905 -14.905  1.00  0.00    -0.776 OA
HETATM   14  H   UNL     1     -24.899  -3.795 -15.712  1.00  0.00     0.167 HD
ENDBRANCH  11  13
ENDBRANCH  10  11
ENDBRANCH   9  10
ENDBRANCH   8   9
ENDBRANCH   5   8
ENDBRANCH   4   5
ENDBRANCH   2   3
BRANCH   1  15
HETATM   15  C   UNL     1     -20.618  -6.789  -5.654  1.00  0.00     0.054 C 
BRANCH  15  16
HETATM   16  C   UNL     1     -21.299  -6.123  -4.498  1.00  0.00    -0.027 C 
HETATM   17  C   UNL     1     -21.295  -6.612  -3.248  1.00  0.00    -0.027 C 
BRANCH  17  18
HETATM   18  C   UNL     1     -22.010  -5.961  -2.103  1.00  0.00     0.053 C 
BRANCH  18  19
HETATM   19  C   UNL     1     -22.406  -6.967  -1.067  1.00  0.00    -0.027 C 
HETATM   20  C   UNL     1     -21.557  -7.863  -0.542  1.00  0.00    -0.030 C 
BRANCH  20  21
HETATM   21  C   UNL     1     -21.964  -8.877   0.483  1.00  0.00     0.027 C 
BRANCH  21  22
HETATM   22  C   UNL     1     -23.445  -9.224   0.356  1.00  0.00     0.004 C 
BRANCH  22  23
HETATM   23  C   UNL     1     -23.629 -10.521  -0.431  1.00  0.00    -0.000 C 
BRANCH  23  24
HETATM   24  C   UNL     1     -22.637 -11.588   0.024  1.00  0.00    -0.005 C 
HETATM   25  C   UNL     1     -23.319 -12.640   0.880  1.00  0.00     0.005 C 
ENDBRANCH  23  24
ENDBRANCH  22  23
ENDBRANCH  21  22
ENDBRANCH  20  21
ENDBRANCH  18  19
ENDBRANCH  17  18
ENDBRANCH  15  16
ENDBRANCH   1  15
TORSDOF 16
BEGIN_RES ARG D 557
REMARK  4 active torsions:
REMARK  status: ('A' for Active; 'I' for Inactive)
REMARK    1  A    between atoms: CA   and  CB  
REMARK    2  A    between atoms: CB   and  CG  
REMARK    3  A    between atoms: CG   and  CD  
REMARK    4  A    between atoms: CD   and  NE  
REMARK       I    between atoms: NE   and  CZ  
REMARK       I    between atoms: CZ   and  NH1 
REMARK       I    between atoms: CZ   and  NH2 
ROOT
ATOM      1  CA  ARG D 557     -26.217   2.705 -17.014  1.00 35.49     0.159 C 
ENDROOT
BRANCH   1   2
ATOM      2  CB  ARG D 557     -26.789   1.319 -17.183  1.00 35.49     0.034 C 
BRANCH   2   3
ATOM      3  CG  ARG D 557     -28.231   1.226 -17.439  1.00 35.49     0.027 C 
BRANCH   3   4
ATOM      4  CD  ARG D 557     -28.896   0.230 -16.569  1.00 35.49     0.116 C 
BRANCH   4   5
ATOM      5  NE  ARG D 557     -27.998  -0.818 -16.160  1.00 35.49    -0.212 N 
ATOM      6  CZ  ARG D 557     -28.050  -2.071 -16.554  1.00 35.49     0.666 C 
ATOM      7  NH1 ARG D 557     -28.974  -2.515 -17.386  1.00 35.49    -0.235 N 
ATOM      8  NH2 ARG D 557     -27.140  -2.882 -16.098  1.00 35.49    -0.235 N 
ATOM      9  HH  ARG D 557     -29.582  -1.999 -17.700  1.00 35.49     0.174 HD
ATOM     10  HH  ARG D 557     -28.957  -3.342 -17.610  1.00 35.49     0.174 HD
ATOM     11  HH  ARG D 557     -26.551  -2.565 -15.569  1.00 35.49     0.174 HD
ATOM     12  HH  ARG D 557     -27.138  -3.697 -16.333  1.00 35.49     0.174 HD
ATOM     13  HE  ARG D 557     -27.415  -0.636 -15.569  1.00 35.49     0.178 HD
ENDBRANCH   4   5
ENDBRANCH   3   4
ENDBRANCH   2   3
ENDBRANCH   1   2
END_RES ARG D 557
BEGIN_RES GLU D 570
REMARK  3 active torsions:
REMARK  status: ('A' for Active; 'I' for Inactive)
REMARK    5  A    between atoms: CA   and  CB  
REMARK    6  A    between atoms: CB   and  CG  
REMARK    7  A    between atoms: CG   and  CD  
ROOT
ATOM     14  CA  GLU D 570     -18.033  -6.348 -13.375  1.00 32.92     0.160 C 
ENDROOT
BRANCH  14  15
ATOM     15  CB  GLU D 570     -19.500  -6.345 -13.794  1.00 32.92     0.043 C 
BRANCH  15  16
ATOM     16  CG  GLU D 570     -19.820  -5.862 -15.162  1.00 32.92     0.100 C 
BRANCH  16  17
ATOM     17  CD  GLU D 570     -21.284  -5.537 -15.345  1.00 32.92     0.185 C 
ATOM     18  OE1 GLU D 570     -21.621  -4.752 -16.252  1.00 32.92    -0.647 OA
ATOM     19  OE2 GLU D 570     -22.101  -6.059 -14.561  1.00 32.92    -0.647 OA
ENDBRANCH  16  17
ENDBRANCH  15  16
ENDBRANCH  14  15
END_RES GLU D 570
ENDMDL
MODEL 4
REMARK VINA RESULT:      -7.8      2.317      5.070
REMARK  16 active torsions:
REMARK  status: ('A' for Active; 'I' for Inactive)
REMARK    1  A    between atoms: C_2  and  C_3 
REMARK    2  A    between atoms: C_3  and  C_4 
REMARK    3  A    between atoms: C_4  and  C_5 
REMARK    4  A    between atoms: C_5  and  C_6 
REMARK    5  A    between atoms: C_7  and  C_8 
REMARK    6  A    between atoms: C_8  and  C_9 
REMARK    7  A    between atoms: C_10  and  C_11 
REMARK    8  A    between atoms: C_11  and  C_12 
REMARK    9  A    between atoms: C_13  and  C_14 
REMARK   10  A    between atoms: C_15  and  C_16 
REMARK   11  A    between atoms: C_16  and  O_17 
REMARK   12  A    between atoms: C_16  and  C_18 
REMARK   13  A    between atoms: C_18  and  C_19 
REMARK   14  A    between atoms: C_19  and  C_20 
REMARK   15  A    between atoms: C_20  and  C_21 
REMARK   16  A    between atoms: C_21  and  O_23 
ROOT
HETATM    1  C   UNL     1     -21.439  -6.040  -3.041  1.00  0.00    -0.023 C 
HETATM    2  C   UNL     1     -21.915  -6.433  -4.232  1.00  0.00    -0.004 C 
ENDROOT
BRANCH   2   3
HETATM    3  C   UNL     1     -21.162  -6.301  -5.453  1.00  0.00    -0.002 C 
HETATM    4  C   UNL     1     -20.737  -5.118  -5.922  1.00  0.00     0.004 C 
BRANCH   4   5
HETATM    5  C   UNL     1     -19.908  -4.985  -7.167  1.00  0.00     0.141 C 
BRANCH   5   6
HETATM    6  O   UNL     1     -19.761  -6.275  -7.748  1.00  0.00    -0.392 OA
HETATM    7  H   UNL     1     -19.033  -6.233  -8.389  1.00  0.00     0.210 HD
ENDBRANCH   5   6
BRANCH   5   8
HETATM    8  C   UNL     1     -20.545  -4.042  -8.198  1.00  0.00     0.036 C 
BRANCH   8   9
HETATM    9  C   UNL     1     -21.995  -4.422  -8.508  1.00  0.00     0.013 C 
BRANCH   9  10
HETATM   10  C   UNL     1     -22.458  -3.905  -9.867  1.00  0.00     0.110 C 
BRANCH  10  11
HETATM   11  C   UNL     1     -23.912  -3.492  -9.820  1.00  0.00     0.139 C 
HETATM   12  O   UNL     1     -24.561  -3.075 -10.765  1.00  0.00    -0.650 OA
BRANCH  11  13
HETATM   13  O   UNL     1     -24.447  -3.631  -8.584  1.00  0.00    -0.776 OA
HETATM   14  H   UNL     1     -23.827  -3.990  -7.925  1.00  0.00     0.167 HD
ENDBRANCH  11  13
ENDBRANCH  10  11
ENDBRANCH   9  10
ENDBRANCH   8   9
ENDBRANCH   5   8
ENDBRANCH   4   5
ENDBRANCH   2   3
BRANCH   1  15
HETATM   15  C   UNL     1     -22.202  -6.202  -1.762  1.00  0.00     0.054 C 
BRANCH  15  16
HETATM   16  C   UNL     1     -21.836  -7.475  -1.061  1.00  0.00    -0.027 C 
HETATM   17  C   UNL     1     -22.192  -7.759   0.201  1.00  0.00    -0.027 C 
BRANCH  17  18
HETATM   18  C   UNL     1     -21.792  -9.018   0.910  1.00  0.00     0.053 C 
BRANCH  18  19
HETATM   19  C   UNL     1     -22.174 -10.231   0.119  1.00  0.00    -0.027 C 
HETATM   20  C   UNL     1     -23.413 -10.456  -0.340  1.00  0.00    -0.030 C 
BRANCH  20  21
HETATM   21  C   UNL     1     -23.792 -11.680  -1.117  1.00  0.00     0.027 C 
BRANCH  21  22
HETATM   22  C   UNL     1     -22.783 -11.960  -2.228  1.00  0.00     0.004 C 
BRANCH  22  23
HETATM   23  C   UNL     1     -23.050 -11.064  -3.436  1.00  0.00    -0.000 C 
BRANCH  23  24
HETATM   24  C   UNL     1     -21.900 -10.086  -3.663  1.00  0.00    -0.005 C 
HETATM   25  C   UNL     1     -20.589 -10.654  -3.148  1.00  0.00     0.005 C 
ENDBRANCH  23  24
ENDBRANCH  22  23
ENDBRANCH  21  22
ENDBRANCH  20  21
ENDBRANCH  18  19
ENDBRANCH  17  18
ENDBRANCH  15  16
ENDBRANCH   1  15
TORSDOF 16
BEGIN_RES ARG D 557
REMARK  4 active torsions:
REMARK  status: ('A' for Active; 'I' for Inactive)
REMARK    1  A    between atoms: CA   and  CB  
REMARK    2  A    between atoms: CB   and  CG  
REMARK    3  A    between atoms: CG   and  CD  
REMARK    4  A    between atoms: CD   and  NE  
REMARK       I    between atoms: NE   and  CZ  
REMARK       I    between atoms: CZ   and  NH1 
REMARK       I    between atoms: CZ   and  NH2 
ROOT
ATOM      1  CA  ARG D 557     -26.217   2.705 -17.014  1.00 35.49     0.159 C 
ENDROOT
BRANCH   1   2
ATOM      2  CB  ARG D 557     -26.789   1.319 -17.183  1.00 35.49     0.034 C 
BRANCH   2   3
ATOM      3  CG  ARG D 557     -25.866   0.195 -16.984  1.00 35.49     0.027 C 
BRANCH   3   4
ATOM      4  CD  ARG D 557     -26.283  -0.686 -15.869  1.00 35.49     0.116 C 
BRANCH   4   5
ATOM      5  NE  ARG D 557     -25.212  -0.925 -14.937  1.00 35.49    -0.212 N 
ATOM      6  CZ  ARG D 557     -24.960  -2.063 -14.331  1.00 35.49     0.666 C 
ATOM      7  NH1 ARG D 557     -25.701  -3.141 -14.512  1.00 35.49    -0.235 N 
ATOM      8  NH2 ARG D 557     -23.933  -2.105 -13.534  1.00 35.49    -0.235 N 
ATOM      9  HH  ARG D 557     -26.380  -3.138 -15.034  1.00 35.49     0.174 HD
ATOM     10  HH  ARG D 557     -25.487  -3.857 -14.092  1.00 35.49     0.174 HD
ATOM     11  HH  ARG D 557     -23.468  -1.395 -13.442  1.00 35.49     0.174 HD
ATOM     12  HH  ARG D 557     -23.736  -2.823 -13.128  1.00 35.49     0.174 HD
ATOM     13  HE  ARG D 557     -24.728  -0.264 -14.707  1.00 35.49     0.178 HD
ENDBRANCH   4   5
ENDBRANCH   3   4
ENDBRANCH   2   3
ENDBRANCH   1   2
END_RES ARG D 557
BEGIN_RES GLU D 570
REMARK  3 active torsions:
REMARK  status: ('A' for Active; 'I' for Inactive)
REMARK    5  A    between atoms: CA   and  CB  
REMARK    6  A    between atoms: CB   and  CG  
REMARK    7  A    between atoms: CG   and  CD  
ROOT
ATOM     14  CA  GLU D 570     -18.033  -6.348 -13.375  1.00 32.92     0.160 C 
ENDROOT
BRANCH  14  15
ATOM     15  CB  GLU D 570     -19.500  -6.345 -13.794  1.00 32.92     0.043 C 
BRANCH  15  16
ATOM     16  CG  GLU D 570     -20.441  -5.525 -12.988  1.00 32.92     0.100 C 
BRANCH  16  17
ATOM     17  CD  GLU D 570     -21.686  -5.136 -13.750  1.00 32.92     0.185 C 
ATOM     18  OE1 GLU D 570     -22.761  -5.016 -13.131  1.00 32.92    -0.647 OA
ATOM     19  OE2 GLU D 570     -21.589  -4.967 -14.981  1.00 32.92    -0.647 OA
ENDBRANCH  16  17
ENDBRANCH  15  16
ENDBRANCH  14  15
END_RES GLU D 570
ENDMDL
MODEL 5
REMARK VINA RESULT:      -7.6      6.491     11.802
REMARK  16 active torsions:
REMARK  status: ('A' for Active; 'I' for Inactive)
REMARK    1  A    between atoms: C_2  and  C_3 
REMARK    2  A    between atoms: C_3  and  C_4 
REMARK    3  A    between atoms: C_4  and  C_5 
REMARK    4  A    between atoms: C_5  and  C_6 
REMARK    5  A    between atoms: C_7  and  C_8 
REMARK    6  A    between atoms: C_8  and  C_9 
REMARK    7  A    between atoms: C_10  and  C_11 
REMARK    8  A    between atoms: C_11  and  C_12 
REMARK    9  A    between atoms: C_13  and  C_14 
REMARK   10  A    between atoms: C_15  and  C_16 
REMARK   11  A    between atoms: C_16  and  O_17 
REMARK   12  A    between atoms: C_16  and  C_18 
REMARK   13  A    between atoms: C_18  and  C_19 
REMARK   14  A    between atoms: C_19  and  C_20 
REMARK   15  A    between atoms: C_20  and  C_21 
REMARK   16  A    between atoms: C_21  and  O_23 
ROOT
HETATM    1  C   UNL     1     -34.644  -2.133 -16.792  1.00  0.00    -0.023 C 
HETATM    2  C   UNL     1     -34.629  -3.329 -16.185  1.00  0.00    -0.004 C 
ENDROOT
BRANCH   2   3
HETATM    3  C   UNL     1     -33.440  -4.135 -16.081  1.00  0.00    -0.002 C 
HETATM    4  C   UNL     1     -32.436  -4.069 -16.969  1.00  0.00     0.004 C 
BRANCH   4   5
HETATM    5  C   UNL     1     -31.174  -4.870 -16.834  1.00  0.00     0.141 C 
BRANCH   5   6
HETATM    6  O   UNL     1     -31.497  -6.247 -16.994  1.00  0.00    -0.392 OA
HETATM    7  H   UNL     1     -30.764  -6.770 -16.632  1.00  0.00     0.210 HD
ENDBRANCH   5   6
BRANCH   5   8
HETATM    8  C   UNL     1     -30.117  -4.481 -17.877  1.00  0.00     0.036 C 
BRANCH   8   9
HETATM    9  C   UNL     1     -28.984  -3.651 -17.267  1.00  0.00     0.013 C 
BRANCH   9  10
HETATM   10  C   UNL     1     -27.905  -4.517 -16.623  1.00  0.00     0.110 C 
BRANCH  10  11
HETATM   11  C   UNL     1     -26.947  -3.672 -15.814  1.00  0.00     0.139 C 
HETATM   12  O   UNL     1     -27.064  -2.477 -15.600  1.00  0.00    -0.650 OA
BRANCH  11  13
HETATM   13  O   UNL     1     -25.907  -4.392 -15.332  1.00  0.00    -0.776 OA
HETATM   14  H   UNL     1     -26.049  -5.355 -15.356  1.00  0.00     0.167 HD
ENDBRANCH  11  13
ENDBRANCH  10  11
ENDBRANCH   9  10
ENDBRANCH   8   9
ENDBRANCH   5   8
ENDBRANCH   4   5
ENDBRANCH   2   3
BRANCH   1  15
HETATM   15  C   UNL     1     -35.870  -1.275 -16.876  1.00  0.00     0.054 C 
BRANCH  15  16
HETATM   16  C   UNL     1     -35.966  -0.339 -15.710  1.00  0.00    -0.027 C 
HETATM   17  C   UNL     1     -34.900   0.200 -15.097  1.00  0.00    -0.027 C 
BRANCH  17  18
HETATM   18  C   UNL     1     -35.000   1.105 -13.907  1.00  0.00     0.053 C 
BRANCH  18  19
HETATM   19  C   UNL     1     -34.996   0.325 -12.629  1.00  0.00    -0.027 C 
HETATM   20  C   UNL     1     -34.869  -1.009 -12.576  1.00  0.00    -0.030 C 
BRANCH  20  21
HETATM   21  C   UNL     1     -34.880  -1.785 -11.295  1.00  0.00     0.027 C 
BRANCH  21  22
HETATM   22  C   UNL     1     -33.466  -2.176 -10.876  1.00  0.00     0.004 C 
BRANCH  22  23
HETATM   23  C   UNL     1     -33.164  -3.618 -11.279  1.00  0.00    -0.000 C 
BRANCH  23  24
HETATM   24  C   UNL     1     -34.011  -4.604 -10.478  1.00  0.00    -0.005 C 
HETATM   25  C   UNL     1     -34.022  -5.974 -11.133  1.00  0.00     0.005 C 
ENDBRANCH  23  24
ENDBRANCH  22  23
ENDBRANCH  21  22
ENDBRANCH  20  21
ENDBRANCH  18  19
ENDBRANCH  17  18
ENDBRANCH  15  16
ENDBRANCH   1  15
TORSDOF 16
BEGIN_RES ARG D 557
REMARK  4 active torsions:
REMARK  status: ('A' for Active; 'I' for Inactive)
REMARK    1  A    between atoms: CA   and  CB  
REMARK    2  A    between atoms: CB   and  CG  
REMARK    3  A    between atoms: CG   and  CD  
REMARK    4  A    between atoms: CD   and  NE  
REMARK       I    between atoms: NE   and  CZ  
REMARK       I    between atoms: CZ   and  NH1 
REMARK       I    between atoms: CZ   and  NH2 
ROOT
ATOM      1  CA  ARG D 557     -26.217   2.705 -17.014  1.00 35.49     0.159 C 
ENDROOT
BRANCH   1   2
ATOM      2  CB  ARG D 557     -26.789   1.319 -17.183  1.00 35.49     0.034 C 
BRANCH   2   3
ATOM      3  CG  ARG D 557     -25.834   0.204 -17.175  1.00 35.49     0.027 C 
BRANCH   3   4
ATOM      4  CD  ARG D 557     -24.770   0.380 -16.160  1.00 35.49     0.116 C 
BRANCH   4   5
ATOM      5  NE  ARG D 557     -24.953  -0.486 -15.026  1.00 35.49    -0.212 N 
ATOM      6  CZ  ARG D 557     -24.138  -1.447 -14.653  1.00 35.49     0.666 C 
ATOM      7  NH1 ARG D 557     -23.032  -1.735 -15.315  1.00 35.49    -0.235 N 
ATOM      8  NH2 ARG D 557     -24.452  -2.120 -13.585  1.00 35.49    -0.235 N 
ATOM      9  HH  ARG D 557     -22.805  -1.303 -16.019  1.00 35.49     0.174 HD
ATOM     10  HH  ARG D 557     -22.537  -2.370 -15.023  1.00 35.49     0.174 HD
ATOM     11  HH  ARG D 557     -25.168  -1.907 -13.174  1.00 35.49     0.174 HD
ATOM     12  HH  ARG D 557     -23.948  -2.745 -13.311  1.00 35.49     0.174 HD
ATOM     13  HE  ARG D 557     -25.677  -0.418 -14.585  1.00 35.49     0.178 HD
ENDBRANCH   4   5
ENDBRANCH   3   4
ENDBRANCH   2   3
ENDBRANCH   1   2
END_RES ARG D 557
BEGIN_RES GLU D 570
REMARK  3 active torsions:
REMARK  status: ('A' for Active; 'I' for Inactive)
REMARK    5  A    between atoms: CA   and  CB  
REMARK    6  A    between atoms: CB   and  CG  
REMARK    7  A    between atoms: CG   and  CD  
ROOT
ATOM     14  CA  GLU D 570     -18.033  -6.348 -13.375  1.00 32.92     0.160 C 
ENDROOT
BRANCH  14  15
ATOM     15  CB  GLU D 570     -19.500  -6.345 -13.794  1.00 32.92     0.043 C 
BRANCH  15  16
ATOM     16  CG  GLU D 570     -20.443  -5.534 -12.981  1.00 32.92     0.100 C 
BRANCH  16  17
ATOM     17  CD  GLU D 570     -21.655  -5.082 -13.760  1.00 32.92     0.185 C 
ATOM     18  OE1 GLU D 570     -21.935  -5.655 -14.831  1.00 32.92    -0.647 OA
ATOM     19  OE2 GLU D 570     -22.323  -4.133 -13.304  1.00 32.92    -0.647 OA
ENDBRANCH  16  17
ENDBRANCH  15  16
ENDBRANCH  14  15
END_RES GLU D 570
ENDMDL
MODEL 6
REMARK VINA RESULT:      -7.4      2.047      4.153
REMARK  16 active torsions:
REMARK  status: ('A' for Active; 'I' for Inactive)
REMARK    1  A    between atoms: C_2  and  C_3 
REMARK    2  A    between atoms: C_3  and  C_4 
REMARK    3  A    between atoms: C_4  and  C_5 
REMARK    4  A    between atoms: C_5  and  C_6 
REMARK    5  A    between atoms: C_7  and  C_8 
REMARK    6  A    between atoms: C_8  and  C_9 
REMARK    7  A    between atoms: C_10  and  C_11 
REMARK    8  A    between atoms: C_11  and  C_12 
REMARK    9  A    between atoms: C_13  and  C_14 
REMARK   10  A    between atoms: C_15  and  C_16 
REMARK   11  A    between atoms: C_16  and  O_17 
REMARK   12  A    between atoms: C_16  and  C_18 
REMARK   13  A    between atoms: C_18  and  C_19 
REMARK   14  A    between atoms: C_19  and  C_20 
REMARK   15  A    between atoms: C_20  and  C_21 
REMARK   16  A    between atoms: C_21  and  O_23 
ROOT
HETATM    1  C   UNL     1     -20.388  -7.283  -5.109  1.00  0.00    -0.023 C 
HETATM    2  C   UNL     1     -21.467  -7.011  -5.858  1.00  0.00    -0.004 C 
ENDROOT
BRANCH   2   3
HETATM    3  C   UNL     1     -21.486  -5.964  -6.845  1.00  0.00    -0.002 C 
HETATM    4  C   UNL     1     -20.492  -5.073  -6.981  1.00  0.00     0.004 C 
BRANCH   4   5
HETATM    5  C   UNL     1     -20.486  -4.012  -8.043  1.00  0.00     0.141 C 
BRANCH   5   6
HETATM    6  O   UNL     1     -19.149  -3.554  -8.213  1.00  0.00    -0.392 OA
HETATM    7  H   UNL     1     -19.100  -3.084  -9.061  1.00  0.00     0.210 HD
ENDBRANCH   5   6
BRANCH   5   8
HETATM    8  C   UNL     1     -21.013  -4.526  -9.390  1.00  0.00     0.036 C 
BRANCH   8   9
HETATM    9  C   UNL     1     -22.115  -3.628  -9.958  1.00  0.00     0.013 C 
BRANCH   9  10
HETATM   10  C   UNL     1     -23.500  -4.001  -9.438  1.00  0.00     0.110 C 
BRANCH  10  11
HETATM   11  C   UNL     1     -24.582  -3.323 -10.250  1.00  0.00     0.139 C 
HETATM   12  O   UNL     1     -25.748  -3.201  -9.915  1.00  0.00    -0.650 OA
BRANCH  11  13
HETATM   13  O   UNL     1     -24.117  -2.847 -11.429  1.00  0.00    -0.776 OA
HETATM   14  H   UNL     1     -23.214  -3.139 -11.644  1.00  0.00     0.167 HD
ENDBRANCH  11  13
ENDBRANCH  10  11
ENDBRANCH   9  10
ENDBRANCH   8   9
ENDBRANCH   5   8
ENDBRANCH   4   5
ENDBRANCH   2   3
BRANCH   1  15
HETATM   15  C   UNL     1     -20.350  -8.391  -4.101  1.00  0.00     0.054 C 
BRANCH  15  16
HETATM   16  C   UNL     1     -21.285  -8.128  -2.960  1.00  0.00    -0.027 C 
HETATM   17  C   UNL     1     -21.419  -6.931  -2.369  1.00  0.00    -0.027 C 
BRANCH  17  18
HETATM   18  C   UNL     1     -22.327  -6.682  -1.203  1.00  0.00     0.053 C 
BRANCH  18  19
HETATM   19  C   UNL     1     -22.257  -7.801  -0.211  1.00  0.00    -0.027 C 
HETATM   20  C   UNL     1     -21.117  -8.212   0.363  1.00  0.00    -0.030 C 
BRANCH  20  21
HETATM   21  C   UNL     1     -21.052  -9.343   1.344  1.00  0.00     0.027 C 
BRANCH  21  22
HETATM   22  C   UNL     1     -20.596 -10.632   0.665  1.00  0.00     0.004 C 
BRANCH  22  23
HETATM   23  C   UNL     1     -21.737 -11.648   0.616  1.00  0.00    -0.000 C 
BRANCH  23  24
HETATM   24  C   UNL     1     -22.618 -11.429  -0.611  1.00  0.00    -0.005 C 
HETATM   25  C   UNL     1     -24.029 -11.038  -0.209  1.00  0.00     0.005 C 
ENDBRANCH  23  24
ENDBRANCH  22  23
ENDBRANCH  21  22
ENDBRANCH  20  21
ENDBRANCH  18  19
ENDBRANCH  17  18
ENDBRANCH  15  16
ENDBRANCH   1  15
TORSDOF 16
BEGIN_RES ARG D 557
REMARK  4 active torsions:
REMARK  status: ('A' for Active; 'I' for Inactive)
REMARK    1  A    between atoms: CA   and  CB  
REMARK    2  A    between atoms: CB   and  CG  
REMARK    3  A    between atoms: CG   and  CD  
REMARK    4  A    between atoms: CD   and  NE  
REMARK       I    between atoms: NE   and  CZ  
REMARK       I    between atoms: CZ   and  NH1 
REMARK       I    between atoms: CZ   and  NH2 
ROOT
ATOM      1  CA  ARG D 557     -26.217   2.705 -17.014  1.00 35.49     0.159 C 
ENDROOT
BRANCH   1   2
ATOM      2  CB  ARG D 557     -26.789   1.319 -17.183  1.00 35.49     0.034 C 
BRANCH   2   3
ATOM      3  CG  ARG D 557     -26.062   0.221 -16.535  1.00 35.49     0.027 C 
BRANCH   3   4
ATOM      4  CD  ARG D 557     -26.953  -0.899 -16.155  1.00 35.49     0.116 C 
BRANCH   4   5
ATOM      5  NE  ARG D 557     -26.232  -1.981 -15.538  1.00 35.49    -0.212 N 
ATOM      6  CZ  ARG D 557     -25.150  -1.861 -14.802  1.00 35.49     0.666 C 
ATOM      7  NH1 ARG D 557     -24.585  -0.694 -14.556  1.00 35.49    -0.235 N 
ATOM      8  NH2 ARG D 557     -24.640  -2.950 -14.303  1.00 35.49    -0.235 N 
ATOM      9  HH  ARG D 557     -24.905   0.035 -14.873  1.00 35.49     0.174 HD
ATOM     10  HH  ARG D 557     -23.881  -0.677 -14.067  1.00 35.49     0.174 HD
ATOM     11  HH  ARG D 557     -25.031  -3.689 -14.472  1.00 35.49     0.174 HD
ATOM     12  HH  ARG D 557     -23.944  -2.912 -13.820  1.00 35.49     0.174 HD
ATOM     13  HE  ARG D 557     -26.485  -2.776 -15.704  1.00 35.49     0.178 HD
ENDBRANCH   4   5
ENDBRANCH   3   4
ENDBRANCH   2   3
ENDBRANCH   1   2
END_RES ARG D 557
BEGIN_RES GLU D 570
REMARK  3 active torsions:
REMARK  status: ('A' for Active; 'I' for Inactive)
REMARK    5  A    between atoms: CA   and  CB  
REMARK    6  A    between atoms: CB   and  CG  
REMARK    7  A    between atoms: CG   and  CD  
ROOT
ATOM     14  CA  GLU D 570     -18.033  -6.348 -13.375  1.00 32.92     0.160 C 
ENDROOT
BRANCH  14  15
ATOM     15  CB  GLU D 570     -19.500  -6.345 -13.794  1.00 32.92     0.043 C 
BRANCH  15  16
ATOM     16  CG  GLU D 570     -20.450  -5.572 -12.953  1.00 32.92     0.100 C 
BRANCH  16  17
ATOM     17  CD  GLU D 570     -21.691  -5.148 -13.704  1.00 32.92     0.185 C 
ATOM     18  OE1 GLU D 570     -21.629  -4.997 -14.939  1.00 32.92    -0.647 OA
ATOM     19  OE2 GLU D 570     -22.732  -4.949 -13.048  1.00 32.92    -0.647 OA
ENDBRANCH  16  17
ENDBRANCH  15  16
ENDBRANCH  14  15
END_RES GLU D 570
ENDMDL
MODEL 7
REMARK VINA RESULT:      -7.3      2.604      5.275
REMARK  16 active torsions:
REMARK  status: ('A' for Active; 'I' for Inactive)
REMARK    1  A    between atoms: C_2  and  C_3 
REMARK    2  A    between atoms: C_3  and  C_4 
REMARK    3  A    between atoms: C_4  and  C_5 
REMARK    4  A    between atoms: C_5  and  C_6 
REMARK    5  A    between atoms: C_7  and  C_8 
REMARK    6  A    between atoms: C_8  and  C_9 
REMARK    7  A    between atoms: C_10  and  C_11 
REMARK    8  A    between atoms: C_11  and  C_12 
REMARK    9  A    between atoms: C_13  and  C_14 
REMARK   10  A    between atoms: C_15  and  C_16 
REMARK   11  A    between atoms: C_16  and  O_17 
REMARK   12  A    between atoms: C_16  and  C_18 
REMARK   13  A    between atoms: C_18  and  C_19 
REMARK   14  A    between atoms: C_19  and  C_20 
REMARK   15  A    between atoms: C_20  and  C_21 
REMARK   16  A    between atoms: C_21  and  O_23 
ROOT
HETATM    1  C   UNL     1     -21.760  -5.989  -2.729  1.00  0.00    -0.023 C 
HETATM    2  C   UNL     1     -21.666  -6.890  -3.718  1.00  0.00    -0.004 C 
ENDROOT
BRANCH   2   3
HETATM    3  C   UNL     1     -21.187  -6.554  -5.034  1.00  0.00    -0.002 C 
HETATM    4  C   UNL     1     -20.632  -5.368  -5.327  1.00  0.00     0.004 C 
BRANCH   4   5
HETATM    5  C   UNL     1     -20.087  -5.035  -6.685  1.00  0.00     0.141 C 
BRANCH   5   6
HETATM    6  O   UNL     1     -20.114  -6.215  -7.481  1.00  0.00    -0.392 OA
HETATM    7  H   UNL     1     -20.662  -6.872  -7.023  1.00  0.00     0.210 HD
ENDBRANCH   5   6
BRANCH   5   8
HETATM    8  C   UNL     1     -20.896  -3.937  -7.390  1.00  0.00     0.036 C 
BRANCH   8   9
HETATM    9  C   UNL     1     -22.140  -4.495  -8.084  1.00  0.00     0.013 C 
BRANCH   9  10
HETATM   10  C   UNL     1     -22.318  -3.948  -9.498  1.00  0.00     0.110 C 
BRANCH  10  11
HETATM   11  C   UNL     1     -23.739  -3.480  -9.721  1.00  0.00     0.139 C 
HETATM   12  O   UNL     1     -24.181  -3.030 -10.764  1.00  0.00    -0.650 OA
BRANCH  11  13
HETATM   13  O   UNL     1     -24.504  -3.611  -8.611  1.00  0.00    -0.776 OA
HETATM   14  H   UNL     1     -24.470  -2.842  -8.016  1.00  0.00     0.167 HD
ENDBRANCH  11  13
ENDBRANCH  10  11
ENDBRANCH   9  10
ENDBRANCH   8   9
ENDBRANCH   5   8
ENDBRANCH   4   5
ENDBRANCH   2   3
BRANCH   1  15
HETATM   15  C   UNL     1     -22.227  -6.337  -1.348  1.00  0.00     0.054 C 
BRANCH  15  16
HETATM   16  C   UNL     1     -21.876  -7.749  -0.990  1.00  0.00    -0.027 C 
HETATM   17  C   UNL     1     -21.603  -8.154   0.261  1.00  0.00    -0.027 C 
BRANCH  17  18
HETATM   18  C   UNL     1     -21.216  -9.559   0.608  1.00  0.00     0.053 C 
BRANCH  18  19
HETATM   19  C   UNL     1     -21.994 -10.552  -0.199  1.00  0.00    -0.027 C 
HETATM   20  C   UNL     1     -23.324 -10.697  -0.114  1.00  0.00    -0.030 C 
BRANCH  20  21
HETATM   21  C   UNL     1     -24.095 -11.703  -0.913  1.00  0.00     0.027 C 
BRANCH  21  22
HETATM   22  C   UNL     1     -23.201 -12.386  -1.945  1.00  0.00     0.004 C 
BRANCH  22  23
HETATM   23  C   UNL     1     -23.014 -13.863  -1.603  1.00  0.00    -0.000 C 
BRANCH  23  24
HETATM   24  C   UNL     1     -24.070 -14.337  -0.607  1.00  0.00    -0.005 C 
HETATM   25  C   UNL     1     -24.970 -15.393  -1.224  1.00  0.00     0.005 C 
ENDBRANCH  23  24
ENDBRANCH  22  23
ENDBRANCH  21  22
ENDBRANCH  20  21
ENDBRANCH  18  19
ENDBRANCH  17  18
ENDBRANCH  15  16
ENDBRANCH   1  15
TORSDOF 16
BEGIN_RES ARG D 557
REMARK  4 active torsions:
REMARK  status: ('A' for Active; 'I' for Inactive)
REMARK    1  A    between atoms: CA   and  CB  
REMARK    2  A    between atoms: CB   and  CG  
REMARK    3  A    between atoms: CG   and  CD  
REMARK    4  A    between atoms: CD   and  NE  
REMARK       I    between atoms: NE   and  CZ  
REMARK       I    between atoms: CZ   and  NH1 
REMARK       I    between atoms: CZ   and  NH2 
ROOT
ATOM      1  CA  ARG D 557     -26.217   2.705 -17.014  1.00 35.49     0.159 C 
ENDROOT
BRANCH   1   2
ATOM      2  CB  ARG D 557     -26.789   1.319 -17.183  1.00 35.49     0.034 C 
BRANCH   2   3
ATOM      3  CG  ARG D 557     -25.934   0.197 -16.777  1.00 35.49     0.027 C 
BRANCH   3   4
ATOM      4  CD  ARG D 557     -26.683  -0.844 -16.037  1.00 35.49     0.116 C 
BRANCH   4   5
ATOM      5  NE  ARG D 557     -25.909  -1.411 -14.964  1.00 35.49    -0.212 N 
ATOM      6  CZ  ARG D 557     -25.887  -2.679 -14.619  1.00 35.49     0.666 C 
ATOM      7  NH1 ARG D 557     -26.610  -3.594 -15.236  1.00 35.49    -0.235 N 
ATOM      8  NH2 ARG D 557     -25.108  -3.019 -13.633  1.00 35.49    -0.235 N 
ATOM      9  HH  ARG D 557     -27.128  -3.393 -15.889  1.00 35.49     0.174 HD
ATOM     10  HH  ARG D 557     -26.553  -4.406 -14.969  1.00 35.49     0.174 HD
ATOM     11  HH  ARG D 557     -24.647  -2.407 -13.258  1.00 35.49     0.174 HD
ATOM     12  HH  ARG D 557     -25.064  -3.828 -13.384  1.00 35.49     0.174 HD
ATOM     13  HE  ARG D 557     -25.468  -0.880 -14.467  1.00 35.49     0.178 HD
ENDBRANCH   4   5
ENDBRANCH   3   4
ENDBRANCH   2   3
ENDBRANCH   1   2
END_RES ARG D 557
BEGIN_RES GLU D 570
REMARK  3 active torsions:
REMARK  status: ('A' for Active; 'I' for Inactive)
REMARK    5  A    between atoms: CA   and  CB  
REMARK    6  A    between atoms: CB   and  CG  
REMARK    7  A    between atoms: CG   and  CD  
ROOT
ATOM     14  CA  GLU D 570     -18.033  -6.348 -13.375  1.00 32.92     0.160 C 
ENDROOT
BRANCH  14  15
ATOM     15  CB  GLU D 570     -19.500  -6.345 -13.794  1.00 32.92     0.043 C 
BRANCH  15  16
ATOM     16  CG  GLU D 570     -20.444  -5.542 -12.975  1.00 32.92     0.100 C 
BRANCH  16  17
ATOM     17  CD  GLU D 570     -21.737  -5.237 -13.695  1.00 32.92     0.185 C 
ATOM     18  OE1 GLU D 570     -22.165  -6.046 -14.540  1.00 32.92    -0.647 OA
ATOM     19  OE2 GLU D 570     -22.319  -4.168 -13.424  1.00 32.92    -0.647 OA
ENDBRANCH  16  17
ENDBRANCH  15  16
ENDBRANCH  14  15
END_RES GLU D 570
ENDMDL
MODEL 8
REMARK VINA RESULT:      -7.3      2.422      5.155
REMARK  16 active torsions:
REMARK  status: ('A' for Active; 'I' for Inactive)
REMARK    1  A    between atoms: C_2  and  C_3 
REMARK    2  A    between atoms: C_3  and  C_4 
REMARK    3  A    between atoms: C_4  and  C_5 
REMARK    4  A    between atoms: C_5  and  C_6 
REMARK    5  A    between atoms: C_7  and  C_8 
REMARK    6  A    between atoms: C_8  and  C_9 
REMARK    7  A    between atoms: C_10  and  C_11 
REMARK    8  A    between atoms: C_11  and  C_12 
REMARK    9  A    between atoms: C_13  and  C_14 
REMARK   10  A    between atoms: C_15  and  C_16 
REMARK   11  A    between atoms: C_16  and  O_17 
REMARK   12  A    between atoms: C_16  and  C_18 
REMARK   13  A    between atoms: C_18  and  C_19 
REMARK   14  A    between atoms: C_19  and  C_20 
REMARK   15  A    between atoms: C_20  and  C_21 
REMARK   16  A    between atoms: C_21  and  O_23 
ROOT
HETATM    1  C   UNL     1     -21.591  -6.021  -2.908  1.00  0.00    -0.023 C 
HETATM    2  C   UNL     1     -21.921  -6.679  -4.030  1.00  0.00    -0.004 C 
ENDROOT
BRANCH   2   3
HETATM    3  C   UNL     1     -21.351  -6.364  -5.314  1.00  0.00    -0.002 C 
HETATM    4  C   UNL     1     -20.886  -5.144  -5.625  1.00  0.00     0.004 C 
BRANCH   4   5
HETATM    5  C   UNL     1     -20.244  -4.828  -6.945  1.00  0.00     0.141 C 
BRANCH   5   6
HETATM    6  O   UNL     1     -20.090  -6.042  -7.672  1.00  0.00    -0.392 OA
HETATM    7  H   UNL     1     -19.603  -5.842  -8.487  1.00  0.00     0.210 HD
ENDBRANCH   5   6
BRANCH   5   8
HETATM    8  C   UNL     1     -21.076  -3.846  -7.783  1.00  0.00     0.036 C 
BRANCH   8   9
HETATM    9  C   UNL     1     -21.991  -4.568  -8.775  1.00  0.00     0.013 C 
BRANCH   9  10
HETATM   10  C   UNL     1     -23.425  -4.047  -8.735  1.00  0.00     0.110 C 
BRANCH  10  11
HETATM   11  C   UNL     1     -23.835  -3.490 -10.079  1.00  0.00     0.139 C 
HETATM   12  O   UNL     1     -24.982  -3.304 -10.449  1.00  0.00    -0.650 OA
BRANCH  11  13
HETATM   13  O   UNL     1     -22.770  -3.205 -10.865  1.00  0.00    -0.776 OA
HETATM   14  H   UNL     1     -21.916  -3.479 -10.484  1.00  0.00     0.167 HD
ENDBRANCH  11  13
ENDBRANCH  10  11
ENDBRANCH   9  10
ENDBRANCH   8   9
ENDBRANCH   5   8
ENDBRANCH   4   5
ENDBRANCH   2   3
BRANCH   1  15
HETATM   15  C   UNL     1     -22.156  -6.363  -1.564  1.00  0.00     0.054 C 
BRANCH  15  16
HETATM   16  C   UNL     1     -21.774  -7.750  -1.144  1.00  0.00    -0.027 C 
HETATM   17  C   UNL     1     -22.403  -8.434  -0.176  1.00  0.00    -0.027 C 
BRANCH  17  18
HETATM   18  C   UNL     1     -21.993  -9.807   0.266  1.00  0.00     0.053 C 
BRANCH  18  19
HETATM   19  C   UNL     1     -20.646 -10.172  -0.277  1.00  0.00    -0.027 C 
HETATM   20  C   UNL     1     -20.462 -10.771  -1.462  1.00  0.00    -0.030 C 
BRANCH  20  21
HETATM   21  C   UNL     1     -19.111 -11.148  -1.991  1.00  0.00     0.027 C 
BRANCH  21  22
HETATM   22  C   UNL     1     -18.370  -9.926  -2.527  1.00  0.00     0.004 C 
BRANCH  22  23
HETATM   23  C   UNL     1     -19.254  -9.144  -3.498  1.00  0.00    -0.000 C 
BRANCH  23  24
HETATM   24  C   UNL     1     -19.309  -9.823  -4.864  1.00  0.00    -0.005 C 
HETATM   25  C   UNL     1     -18.148  -9.386  -5.740  1.00  0.00     0.005 C 
ENDBRANCH  23  24
ENDBRANCH  22  23
ENDBRANCH  21  22
ENDBRANCH  20  21
ENDBRANCH  18  19
ENDBRANCH  17  18
ENDBRANCH  15  16
ENDBRANCH   1  15
TORSDOF 16
BEGIN_RES ARG D 557
REMARK  4 active torsions:
REMARK  status: ('A' for Active; 'I' for Inactive)
REMARK    1  A    between atoms: CA   and  CB  
REMARK    2  A    between atoms: CB   and  CG  
REMARK    3  A    between atoms: CG   and  CD  
REMARK    4  A    between atoms: CD   and  NE  
REMARK       I    between atoms: NE   and  CZ  
REMARK       I    between atoms: CZ   and  NH1 
REMARK       I    between atoms: CZ   and  NH2 
ROOT
ATOM      1  CA  ARG D 557     -26.217   2.705 -17.014  1.00 35.49     0.159 C 
ENDROOT
BRANCH   1   2
ATOM      2  CB  ARG D 557     -26.789   1.319 -17.183  1.00 35.49     0.034 C 
BRANCH   2   3
ATOM      3  CG  ARG D 557     -25.876   0.194 -16.945  1.00 35.49     0.027 C 
BRANCH   3   4
ATOM      4  CD  ARG D 557     -26.402  -0.755 -15.937  1.00 35.49     0.116 C 
BRANCH   4   5
ATOM      5  NE  ARG D 557     -25.460  -0.996 -14.876  1.00 35.49    -0.212 N 
ATOM      6  CZ  ARG D 557     -25.224  -2.158 -14.308  1.00 35.49     0.666 C 
ATOM      7  NH1 ARG D 557     -25.860  -3.260 -14.657  1.00 35.49    -0.235 N 
ATOM      8  NH2 ARG D 557     -24.319  -2.195 -13.374  1.00 35.49    -0.235 N 
ATOM      9  HH  ARG D 557     -26.458  -3.259 -15.271  1.00 35.49     0.174 HD
ATOM     10  HH  ARG D 557     -25.662  -3.990 -14.253  1.00 35.49     0.174 HD
ATOM     11  HH  ARG D 557     -23.918  -1.469 -13.174  1.00 35.49     0.174 HD
ATOM     12  HH  ARG D 557     -24.136  -2.927 -12.987  1.00 35.49     0.174 HD
ATOM     13  HE  ARG D 557     -25.058  -0.327 -14.540  1.00 35.49     0.178 HD
ENDBRANCH   4   5
ENDBRANCH   3   4
ENDBRANCH   2   3
ENDBRANCH   1   2
END_RES ARG D 557
BEGIN_RES GLU D 570
REMARK  3 active torsions:
REMARK  status: ('A' for Active; 'I' for Inactive)
REMARK    5  A    between atoms: CA   and  CB  
REMARK    6  A    between atoms: CB   and  CG  
REMARK    7  A    between atoms: CG   and  CD  
ROOT
ATOM     14  CA  GLU D 570     -18.033  -6.348 -13.375  1.00 32.92     0.160 C 
ENDROOT
BRANCH  14  15
ATOM     15  CB  GLU D 570     -19.500  -6.345 -13.794  1.00 32.92     0.043 C 
BRANCH  15  16
ATOM     16  CG  GLU D 570     -20.440  -5.523 -12.989  1.00 32.92     0.100 C 
BRANCH  16  17
ATOM     17  CD  GLU D 570     -21.737  -5.235 -13.709  1.00 32.92     0.185 C 
ATOM     18  OE1 GLU D 570     -22.169  -6.065 -14.532  1.00 32.92    -0.647 OA
ATOM     19  OE2 GLU D 570     -22.318  -4.160 -13.461  1.00 32.92    -0.647 OA
ENDBRANCH  16  17
ENDBRANCH  15  16
ENDBRANCH  14  15
END_RES GLU D 570
ENDMDL
MODEL 9
REMARK VINA RESULT:      -7.2      1.684      2.560
REMARK  16 active torsions:
REMARK  status: ('A' for Active; 'I' for Inactive)
REMARK    1  A    between atoms: C_2  and  C_3 
REMARK    2  A    between atoms: C_3  and  C_4 
REMARK    3  A    between atoms: C_4  and  C_5 
REMARK    4  A    between atoms: C_5  and  C_6 
REMARK    5  A    between atoms: C_7  and  C_8 
REMARK    6  A    between atoms: C_8  and  C_9 
REMARK    7  A    between atoms: C_10  and  C_11 
REMARK    8  A    between atoms: C_11  and  C_12 
REMARK    9  A    between atoms: C_13  and  C_14 
REMARK   10  A    between atoms: C_15  and  C_16 
REMARK   11  A    between atoms: C_16  and  O_17 
REMARK   12  A    between atoms: C_16  and  C_18 
REMARK   13  A    between atoms: C_18  and  C_19 
REMARK   14  A    between atoms: C_19  and  C_20 
REMARK   15  A    between atoms: C_20  and  C_21 
REMARK   16  A    between atoms: C_21  and  O_23 
ROOT
HETATM    1  C   UNL     1     -21.568  -5.392  -6.512  1.00  0.00    -0.023 C 
HETATM    2  C   UNL     1     -20.893  -4.960  -7.588  1.00  0.00    -0.004 C 
ENDROOT
BRANCH   2   3
HETATM    3  C   UNL     1     -21.537  -4.311  -8.701  1.00  0.00    -0.002 C 
HETATM    4  C   UNL     1     -22.847  -4.437  -8.960  1.00  0.00     0.004 C 
BRANCH   4   5
HETATM    5  C   UNL     1     -23.529  -3.721 -10.089  1.00  0.00     0.141 C 
BRANCH   5   6
HETATM    6  O   UNL     1     -24.443  -2.781  -9.537  1.00  0.00    -0.392 OA
HETATM    7  H   UNL     1     -25.190  -3.275  -9.163  1.00  0.00     0.210 HD
ENDBRANCH   5   6
BRANCH   5   8
HETATM    8  C   UNL     1     -22.538  -2.980 -10.998  1.00  0.00     0.036 C 
BRANCH   8   9
HETATM    9  C   UNL     1     -23.167  -2.589 -12.338  1.00  0.00     0.013 C 
BRANCH   9  10
HETATM   10  C   UNL     1     -24.062  -3.687 -12.907  1.00  0.00     0.110 C 
BRANCH  10  11
HETATM   11  C   UNL     1     -23.474  -4.256 -14.179  1.00  0.00     0.139 C 
HETATM   12  O   UNL     1     -24.080  -4.919 -15.004  1.00  0.00    -0.650 OA
BRANCH  11  13
HETATM   13  O   UNL     1     -22.164  -3.949 -14.323  1.00  0.00    -0.776 OA
HETATM   14  H   UNL     1     -21.560  -4.627 -13.972  1.00  0.00     0.167 HD
ENDBRANCH  11  13
ENDBRANCH  10  11
ENDBRANCH   9  10
ENDBRANCH   8   9
ENDBRANCH   5   8
ENDBRANCH   4   5
ENDBRANCH   2   3
BRANCH   1  15
HETATM   15  C   UNL     1     -20.902  -6.040  -5.336  1.00  0.00     0.054 C 
BRANCH  15  16
HETATM   16  C   UNL     1     -21.380  -7.446  -5.141  1.00  0.00    -0.027 C 
HETATM   17  C   UNL     1     -20.560  -8.491  -4.948  1.00  0.00    -0.027 C 
BRANCH  17  18
HETATM   18  C   UNL     1     -21.041  -9.902  -4.791  1.00  0.00     0.053 C 
BRANCH  18  19
HETATM   19  C   UNL     1     -22.004 -10.023  -3.651  1.00  0.00    -0.027 C 
HETATM   20  C   UNL     1     -21.628 -10.066  -2.365  1.00  0.00    -0.030 C 
BRANCH  20  21
HETATM   21  C   UNL     1     -22.596 -10.203  -1.229  1.00  0.00     0.027 C 
BRANCH  21  22
HETATM   22  C   UNL     1     -22.091  -9.477   0.015  1.00  0.00     0.004 C 
BRANCH  22  23
HETATM   23  C   UNL     1     -21.419  -8.159  -0.367  1.00  0.00    -0.000 C 
BRANCH  23  24
HETATM   24  C   UNL     1     -22.447  -7.044  -0.541  1.00  0.00    -0.005 C 
HETATM   25  C   UNL     1     -22.211  -6.279  -1.832  1.00  0.00     0.005 C 
ENDBRANCH  23  24
ENDBRANCH  22  23
ENDBRANCH  21  22
ENDBRANCH  20  21
ENDBRANCH  18  19
ENDBRANCH  17  18
ENDBRANCH  15  16
ENDBRANCH   1  15
TORSDOF 16
BEGIN_RES ARG D 557
REMARK  4 active torsions:
REMARK  status: ('A' for Active; 'I' for Inactive)
REMARK    1  A    between atoms: CA   and  CB  
REMARK    2  A    between atoms: CB   and  CG  
REMARK    3  A    between atoms: CG   and  CD  
REMARK    4  A    between atoms: CD   and  NE  
REMARK       I    between atoms: NE   and  CZ  
REMARK       I    between atoms: CZ   and  NH1 
REMARK       I    between atoms: CZ   and  NH2 
ROOT
ATOM      1  CA  ARG D 557     -26.217   2.705 -17.014  1.00 35.49     0.159 C 
ENDROOT
BRANCH   1   2
ATOM      2  CB  ARG D 557     -26.789   1.319 -17.183  1.00 35.49     0.034 C 
BRANCH   2   3
ATOM      3  CG  ARG D 557     -28.244   1.183 -17.041  1.00 35.49     0.027 C 
BRANCH   3   4
ATOM      4  CD  ARG D 557     -28.652  -0.204 -16.720  1.00 35.49     0.116 C 
BRANCH   4   5
ATOM      5  NE  ARG D 557     -27.614  -0.930 -16.036  1.00 35.49    -0.212 N 
ATOM      6  CZ  ARG D 557     -27.411  -2.227 -16.105  1.00 35.49     0.666 C 
ATOM      7  NH1 ARG D 557     -28.177  -3.027 -16.824  1.00 35.49    -0.235 N 
ATOM      8  NH2 ARG D 557     -26.408  -2.714 -15.434  1.00 35.49    -0.235 N 
ATOM      9  HH  ARG D 557     -28.841  -2.728 -17.274  1.00 35.49     0.174 HD
ATOM     10  HH  ARG D 557     -27.995  -3.865 -16.833  1.00 35.49     0.174 HD
ATOM     11  HH  ARG D 557     -25.926  -2.172 -14.985  1.00 35.49     0.174 HD
ATOM     12  HH  ARG D 557     -26.243  -3.545 -15.457  1.00 35.49     0.174 HD
ATOM     13  HE  ARG D 557     -27.119  -0.503 -15.493  1.00 35.49     0.178 HD
ENDBRANCH   4   5
ENDBRANCH   3   4
ENDBRANCH   2   3
ENDBRANCH   1   2
END_RES ARG D 557
BEGIN_RES GLU D 570
REMARK  3 active torsions:
REMARK  status: ('A' for Active; 'I' for Inactive)
REMARK    5  A    between atoms: CA   and  CB  
REMARK    6  A    between atoms: CB   and  CG  
REMARK    7  A    between atoms: CG   and  CD  
ROOT
ATOM     14  CA  GLU D 570     -18.033  -6.348 -13.375  1.00 32.92     0.160 C 
ENDROOT
BRANCH  14  15
ATOM     15  CB  GLU D 570     -19.500  -6.345 -13.794  1.00 32.92     0.043 C 
BRANCH  15  16
ATOM     16  CG  GLU D 570     -20.100  -7.644 -14.194  1.00 32.92     0.100 C 
BRANCH  16  17
ATOM     17  CD  GLU D 570     -20.860  -7.566 -15.497  1.00 32.92     0.185 C 
ATOM     18  OE1 GLU D 570     -21.264  -6.457 -15.897  1.00 32.92    -0.647 OA
ATOM     19  OE2 GLU D 570     -21.068  -8.628 -16.117  1.00 32.92    -0.647 OA
ENDBRANCH  16  17
ENDBRANCH  15  16
ENDBRANCH  14  15
END_RES GLU D 570
ENDMDL
