MODEL 1
REMARK VINA RESULT:      -8.5      0.000      0.000
REMARK  18 active torsions:
REMARK  status: ('A' for Active; 'I' for Inactive)
REMARK    1  A    between atoms: C_2  and  C_3 
REMARK    2  A    between atoms: C_3  and  C_4 
REMARK    3  A    between atoms: C_4  and  C_5 
REMARK    4  A    between atoms: C_5  and  C_6 
REMARK    5  A    between atoms: C_7  and  C_8 
REMARK    6  A    between atoms: C_8  and  C_9 
REMARK    7  A    between atoms: C_10  and  C_11 
REMARK    8  A    between atoms: C_11  and  C_12 
REMARK    9  A    between atoms: C_13  and  C_14 
REMARK   10  A    between atoms: C_14  and  C_15 
REMARK   11  A    between atoms: C_16  and  C_17 
REMARK   12  A    between atoms: C_17  and  C_18 
REMARK   13  A    between atoms: C_18  and  C_19 
REMARK   14  A    between atoms: C_19  and  C_20 
REMARK       I    between atoms: C_20  and  N_22 
REMARK   15  A    between atoms: N_22  and  C_23 
REMARK   16  A    between atoms: C_23  and  C_24 
REMARK   17  A    between atoms: C_27  and  O_28 
REMARK   18  A    between atoms: C_29  and  O_30 
ROOT
HETATM    1  C   UNL     1     -21.358  -6.429  -3.347  1.00  0.00     0.027 C 
ENDROOT
BRANCH   1   2
HETATM    2  C   UNL     1     -22.089  -6.474  -2.035  1.00  0.00    -0.030 C 
HETATM    3  C   UNL     1     -21.759  -7.317  -1.039  1.00  0.00    -0.027 C 
BRANCH   3   4
HETATM    4  C   UNL     1     -22.487  -7.398   0.264  1.00  0.00     0.053 C 
BRANCH   4   5
HETATM    5  C   UNL     1     -23.194  -8.711   0.425  1.00  0.00    -0.027 C 
HETATM    6  C   UNL     1     -23.096  -9.713  -0.465  1.00  0.00    -0.027 C 
BRANCH   6   7
HETATM    7  C   UNL     1     -23.812 -11.024  -0.340  1.00  0.00     0.053 C 
BRANCH   7   8
HETATM    8  C   UNL     1     -23.439 -11.965  -1.445  1.00  0.00    -0.027 C 
HETATM    9  C   UNL     1     -22.852 -11.559  -2.582  1.00  0.00    -0.027 C 
BRANCH   9  10
HETATM   10  C   UNL     1     -22.504 -12.481  -3.712  1.00  0.00     0.053 C 
BRANCH  10  11
HETATM   11  C   UNL     1     -21.372 -11.927  -4.520  1.00  0.00    -0.027 C 
HETATM   12  C   UNL     1     -20.697 -10.816  -4.186  1.00  0.00    -0.030 C 
BRANCH  12  13
HETATM   13  C   UNL     1     -19.556 -10.269  -4.988  1.00  0.00     0.027 C 
BRANCH  13  14
HETATM   14  C   UNL     1     -18.928  -9.060  -4.296  1.00  0.00     0.004 C 
BRANCH  14  15
HETATM   15  C   UNL     1     -18.557  -9.401  -2.854  1.00  0.00    -0.000 C 
BRANCH  15  16
HETATM   16  C   UNL     1     -17.341 -10.321  -2.796  1.00  0.00    -0.005 C 
HETATM   17  C   UNL     1     -16.051  -9.524  -2.905  1.00  0.00     0.005 C 
ENDBRANCH  15  16
ENDBRANCH  14  15
ENDBRANCH  13  14
ENDBRANCH  12  13
ENDBRANCH  10  11
ENDBRANCH   9  10
ENDBRANCH   7   8
ENDBRANCH   6   7
ENDBRANCH   4   5
ENDBRANCH   3   4
ENDBRANCH   1   2
BRANCH   1  18
HETATM   18  C   UNL     1     -22.285  -6.566  -4.565  1.00  0.00     0.013 C 
BRANCH  18  19
HETATM   19  C   UNL     1     -21.598  -7.220  -5.770  1.00  0.00     0.103 C 
BRANCH  19  20
HETATM   20  C   UNL     1     -20.801  -6.205  -6.564  1.00  0.00     0.217 C 
HETATM   21  O   UNL     1     -19.693  -6.457  -7.029  1.00  0.00    -0.274 OA
HETATM   22  N   UNL     1     -21.420  -4.992  -6.731  1.00  0.00    -0.357 N 
HETATM   23  H   UNL     1     -22.344  -4.841  -6.351  1.00  0.00     0.162 HD
BRANCH  22  24
HETATM   24  C   UNL     1     -20.781  -3.907  -7.445  1.00  0.00     0.161 C 
BRANCH  24  25
HETATM   25  C   UNL     1     -21.191  -3.918  -8.894  1.00  0.00    -0.038 A 
HETATM   26  C   UNL     1     -20.253  -4.234  -9.879  1.00  0.00     0.012 A 
HETATM   27  C   UNL     1     -20.647  -4.352 -11.206  1.00  0.00     0.040 A 
HETATM   28  C   UNL     1     -21.980  -4.150 -11.574  1.00  0.00     0.099 A 
HETATM   29  C   UNL     1     -22.931  -3.807 -10.611  1.00  0.00     0.101 A 
HETATM   30  C   UNL     1     -22.524  -3.686  -9.271  1.00  0.00     0.048 A 
BRANCH  28  31
HETATM   31  O   UNL     1     -22.315  -4.324 -12.886  1.00  0.00    -0.358 OA
HETATM   32  H   UNL     1     -22.349  -3.460 -13.326  1.00  0.00     0.217 HD
ENDBRANCH  28  31
BRANCH  29  33
HETATM   33  O   UNL     1     -24.270  -3.567 -10.799  1.00  0.00    -0.353 OA
HETATM   34  C   UNL     1     -25.053  -3.308  -9.639  1.00  0.00     0.210 C 
ENDBRANCH  29  33
ENDBRANCH  24  25
ENDBRANCH  22  24
ENDBRANCH  19  20
ENDBRANCH  18  19
ENDBRANCH   1  18
TORSDOF 18
BEGIN_RES ARG D 557
REMARK  4 active torsions:
REMARK  status: ('A' for Active; 'I' for Inactive)
REMARK    1  A    between atoms: CA   and  CB  
REMARK    2  A    between atoms: CB   and  CG  
REMARK    3  A    between atoms: CG   and  CD  
REMARK    4  A    between atoms: CD   and  NE  
REMARK       I    between atoms: NE   and  CZ  
REMARK       I    between atoms: CZ   and  NH1 
REMARK       I    between atoms: CZ   and  NH2 
ROOT
ATOM      1  CA  ARG D 557     -26.217   2.705 -17.014  1.00 35.49     0.159 C 
ENDROOT
BRANCH   1   2
ATOM      2  CB  ARG D 557     -26.789   1.319 -17.183  1.00 35.49     0.034 C 
BRANCH   2   3
ATOM      3  CG  ARG D 557     -25.841   0.200 -17.116  1.00 35.49     0.027 C 
BRANCH   3   4
ATOM      4  CD  ARG D 557     -24.776   0.423 -16.111  1.00 35.49     0.116 C 
BRANCH   4   5
ATOM      5  NE  ARG D 557     -24.911  -0.452 -14.976  1.00 35.49    -0.212 N 
ATOM      6  CZ  ARG D 557     -24.093  -1.432 -14.660  1.00 35.49     0.666 C 
ATOM      7  NH1 ARG D 557     -23.033  -1.732 -15.387  1.00 35.49    -0.235 N 
ATOM      8  NH2 ARG D 557     -24.357  -2.110 -13.582  1.00 35.49    -0.235 N 
ATOM      9  HH  ARG D 557     -22.838  -1.298 -16.099  1.00 35.49     0.174 HD
ATOM     10  HH  ARG D 557     -22.534  -2.380 -15.130  1.00 35.49     0.174 HD
ATOM     11  HH  ARG D 557     -25.045  -1.889 -13.128  1.00 35.49     0.174 HD
ATOM     12  HH  ARG D 557     -23.851  -2.747 -13.343  1.00 35.49     0.174 HD
ATOM     13  HE  ARG D 557     -25.606  -0.376 -14.493  1.00 35.49     0.178 HD
ENDBRANCH   4   5
ENDBRANCH   3   4
ENDBRANCH   2   3
ENDBRANCH   1   2
END_RES ARG D 557
BEGIN_RES GLU D 570
REMARK  3 active torsions:
REMARK  status: ('A' for Active; 'I' for Inactive)
REMARK    5  A    between atoms: CA   and  CB  
REMARK    6  A    between atoms: CB   and  CG  
REMARK    7  A    between atoms: CG   and  CD  
ROOT
ATOM     14  CA  GLU D 570     -18.033  -6.348 -13.375  1.00 32.92     0.160 C 
ENDROOT
BRANCH  14  15
ATOM     15  CB  GLU D 570     -19.500  -6.345 -13.794  1.00 32.92     0.043 C 
BRANCH  15  16
ATOM     16  CG  GLU D 570     -19.811  -5.959 -15.195  1.00 32.92     0.100 C 
BRANCH  16  17
ATOM     17  CD  GLU D 570     -21.273  -5.640 -15.407  1.00 32.92     0.185 C 
ATOM     18  OE1 GLU D 570     -22.130  -6.484 -15.082  1.00 32.92    -0.647 OA
ATOM     19  OE2 GLU D 570     -21.563  -4.541 -15.920  1.00 32.92    -0.647 OA
ENDBRANCH  16  17
ENDBRANCH  15  16
ENDBRANCH  14  15
END_RES GLU D 570
ENDMDL
MODEL 2
REMARK VINA RESULT:      -8.5      2.161      3.480
REMARK  18 active torsions:
REMARK  status: ('A' for Active; 'I' for Inactive)
REMARK    1  A    between atoms: C_2  and  C_3 
REMARK    2  A    between atoms: C_3  and  C_4 
REMARK    3  A    between atoms: C_4  and  C_5 
REMARK    4  A    between atoms: C_5  and  C_6 
REMARK    5  A    between atoms: C_7  and  C_8 
REMARK    6  A    between atoms: C_8  and  C_9 
REMARK    7  A    between atoms: C_10  and  C_11 
REMARK    8  A    between atoms: C_11  and  C_12 
REMARK    9  A    between atoms: C_13  and  C_14 
REMARK   10  A    between atoms: C_14  and  C_15 
REMARK   11  A    between atoms: C_16  and  C_17 
REMARK   12  A    between atoms: C_17  and  C_18 
REMARK   13  A    between atoms: C_18  and  C_19 
REMARK   14  A    between atoms: C_19  and  C_20 
REMARK       I    between atoms: C_20  and  N_22 
REMARK   15  A    between atoms: N_22  and  C_23 
REMARK   16  A    between atoms: C_23  and  C_24 
REMARK   17  A    between atoms: C_27  and  O_28 
REMARK   18  A    between atoms: C_29  and  O_30 
ROOT
HETATM    1  C   UNL     1     -21.097  -6.534  -6.211  1.00  0.00     0.027 C 
ENDROOT
BRANCH   1   2
HETATM    2  C   UNL     1     -21.066  -5.981  -4.815  1.00  0.00    -0.030 C 
HETATM    3  C   UNL     1     -21.715  -6.553  -3.784  1.00  0.00    -0.027 C 
BRANCH   3   4
HETATM    4  C   UNL     1     -21.720  -6.008  -2.392  1.00  0.00     0.053 C 
BRANCH   4   5
HETATM    5  C   UNL     1     -22.410  -6.935  -1.435  1.00  0.00    -0.027 C 
HETATM    6  C   UNL     1     -21.800  -7.477  -0.368  1.00  0.00    -0.027 C 
BRANCH   6   7
HETATM    7  C   UNL     1     -22.459  -8.424   0.589  1.00  0.00     0.053 C 
BRANCH   7   8
HETATM    8  C   UNL     1     -22.531  -9.813   0.030  1.00  0.00    -0.027 C 
HETATM    9  C   UNL     1     -23.660 -10.343  -0.466  1.00  0.00    -0.027 C 
BRANCH   9  10
HETATM   10  C   UNL     1     -23.758 -11.742  -0.996  1.00  0.00     0.053 C 
BRANCH  10  11
HETATM   11  C   UNL     1     -22.846 -11.930  -2.169  1.00  0.00    -0.027 C 
HETATM   12  C   UNL     1     -22.853 -11.132  -3.249  1.00  0.00    -0.030 C 
BRANCH  12  13
HETATM   13  C   UNL     1     -21.931 -11.313  -4.416  1.00  0.00     0.027 C 
BRANCH  13  14
HETATM   14  C   UNL     1     -21.308  -9.982  -4.835  1.00  0.00     0.004 C 
BRANCH  14  15
HETATM   15  C   UNL     1     -19.784 -10.059  -4.769  1.00  0.00    -0.000 C 
BRANCH  15  16
HETATM   16  C   UNL     1     -19.222  -9.084  -3.738  1.00  0.00    -0.005 C 
HETATM   17  C   UNL     1     -19.497  -9.569  -2.324  1.00  0.00     0.005 C 
ENDBRANCH  15  16
ENDBRANCH  14  15
ENDBRANCH  13  14
ENDBRANCH  12  13
ENDBRANCH  10  11
ENDBRANCH   9  10
ENDBRANCH   7   8
ENDBRANCH   6   7
ENDBRANCH   4   5
ENDBRANCH   3   4
ENDBRANCH   1   2
BRANCH   1  18
HETATM   18  C   UNL     1     -20.622  -5.530  -7.273  1.00  0.00     0.013 C 
BRANCH  18  19
HETATM   19  C   UNL     1     -21.767  -4.980  -8.133  1.00  0.00     0.103 C 
BRANCH  19  20
HETATM   20  C   UNL     1     -21.242  -4.354  -9.408  1.00  0.00     0.217 C 
HETATM   21  O   UNL     1     -20.065  -4.437  -9.746  1.00  0.00    -0.274 OA
HETATM   22  N   UNL     1     -22.187  -3.701 -10.159  1.00  0.00    -0.357 N 
HETATM   23  H   UNL     1     -23.150  -3.683  -9.852  1.00  0.00     0.162 HD
BRANCH  22  24
HETATM   24  C   UNL     1     -21.843  -3.030 -11.394  1.00  0.00     0.161 C 
BRANCH  24  25
HETATM   25  C   UNL     1     -22.722  -3.513 -12.518  1.00  0.00    -0.038 A 
HETATM   26  C   UNL     1     -22.734  -4.868 -12.857  1.00  0.00     0.012 A 
HETATM   27  C   UNL     1     -23.620  -5.339 -13.818  1.00  0.00     0.040 A 
HETATM   28  C   UNL     1     -24.501  -4.467 -14.462  1.00  0.00     0.099 A 
HETATM   29  C   UNL     1     -24.489  -3.104 -14.160  1.00  0.00     0.101 A 
HETATM   30  C   UNL     1     -23.588  -2.634 -13.188  1.00  0.00     0.048 A 
BRANCH  28  31
HETATM   31  O   UNL     1     -25.379  -4.995 -15.365  1.00  0.00    -0.358 OA
HETATM   32  H   UNL     1     -25.624  -5.892 -15.087  1.00  0.00     0.217 HD
ENDBRANCH  28  31
BRANCH  29  33
HETATM   33  O   UNL     1     -25.275  -2.115 -14.699  1.00  0.00    -0.353 OA
HETATM   34  C   UNL     1     -24.635  -0.892 -15.046  1.00  0.00     0.210 C 
ENDBRANCH  29  33
ENDBRANCH  24  25
ENDBRANCH  22  24
ENDBRANCH  19  20
ENDBRANCH  18  19
ENDBRANCH   1  18
TORSDOF 18
BEGIN_RES ARG D 557
REMARK  4 active torsions:
REMARK  status: ('A' for Active; 'I' for Inactive)
REMARK    1  A    between atoms: CA   and  CB  
REMARK    2  A    between atoms: CB   and  CG  
REMARK    3  A    between atoms: CG   and  CD  
REMARK    4  A    between atoms: CD   and  NE  
REMARK       I    between atoms: NE   and  CZ  
REMARK       I    between atoms: CZ   and  NH1 
REMARK       I    between atoms: CZ   and  NH2 
ROOT
ATOM      1  CA  ARG D 557     -26.217   2.705 -17.014  1.00 35.49     0.159 C 
ENDROOT
BRANCH   1   2
ATOM      2  CB  ARG D 557     -26.789   1.319 -17.183  1.00 35.49     0.034 C 
BRANCH   2   3
ATOM      3  CG  ARG D 557     -28.238   1.224 -17.396  1.00 35.49     0.027 C 
BRANCH   3   4
ATOM      4  CD  ARG D 557     -28.891   0.305 -16.436  1.00 35.49     0.116 C 
BRANCH   4   5
ATOM      5  NE  ARG D 557     -28.102  -0.874 -16.192  1.00 35.49    -0.212 N 
ATOM      6  CZ  ARG D 557     -28.338  -2.071 -16.682  1.00 35.49     0.666 C 
ATOM      7  NH1 ARG D 557     -29.370  -2.326 -17.465  1.00 35.49    -0.235 N 
ATOM      8  NH2 ARG D 557     -27.504  -3.021 -16.372  1.00 35.49    -0.235 N 
ATOM      9  HH  ARG D 557     -29.930  -1.715 -17.683  1.00 35.49     0.174 HD
ATOM     10  HH  ARG D 557     -29.472  -3.125 -17.756  1.00 35.49     0.174 HD
ATOM     11  HH  ARG D 557     -26.843  -2.826 -15.871  1.00 35.49     0.174 HD
ATOM     12  HH  ARG D 557     -27.622  -3.806 -16.672  1.00 35.49     0.174 HD
ATOM     13  HE  ARG D 557     -27.458  -0.817 -15.640  1.00 35.49     0.178 HD
ENDBRANCH   4   5
ENDBRANCH   3   4
ENDBRANCH   2   3
ENDBRANCH   1   2
END_RES ARG D 557
BEGIN_RES GLU D 570
REMARK  3 active torsions:
REMARK  status: ('A' for Active; 'I' for Inactive)
REMARK    5  A    between atoms: CA   and  CB  
REMARK    6  A    between atoms: CB   and  CG  
REMARK    7  A    between atoms: CG   and  CD  
ROOT
ATOM     14  CA  GLU D 570     -18.033  -6.348 -13.375  1.00 32.92     0.160 C 
ENDROOT
BRANCH  14  15
ATOM     15  CB  GLU D 570     -19.500  -6.345 -13.794  1.00 32.92     0.043 C 
BRANCH  15  16
ATOM     16  CG  GLU D 570     -19.803  -6.087 -15.226  1.00 32.92     0.100 C 
BRANCH  16  17
ATOM     17  CD  GLU D 570     -20.815  -7.052 -15.797  1.00 32.92     0.185 C 
ATOM     18  OE1 GLU D 570     -20.778  -8.247 -15.446  1.00 32.92    -0.647 OA
ATOM     19  OE2 GLU D 570     -21.644  -6.611 -16.618  1.00 32.92    -0.647 OA
ENDBRANCH  16  17
ENDBRANCH  15  16
ENDBRANCH  14  15
END_RES GLU D 570
ENDMDL
MODEL 3
REMARK VINA RESULT:      -8.4      4.041      8.808
REMARK  18 active torsions:
REMARK  status: ('A' for Active; 'I' for Inactive)
REMARK    1  A    between atoms: C_2  and  C_3 
REMARK    2  A    between atoms: C_3  and  C_4 
REMARK    3  A    between atoms: C_4  and  C_5 
REMARK    4  A    between atoms: C_5  and  C_6 
REMARK    5  A    between atoms: C_7  and  C_8 
REMARK    6  A    between atoms: C_8  and  C_9 
REMARK    7  A    between atoms: C_10  and  C_11 
REMARK    8  A    between atoms: C_11  and  C_12 
REMARK    9  A    between atoms: C_13  and  C_14 
REMARK   10  A    between atoms: C_14  and  C_15 
REMARK   11  A    between atoms: C_16  and  C_17 
REMARK   12  A    between atoms: C_17  and  C_18 
REMARK   13  A    between atoms: C_18  and  C_19 
REMARK   14  A    between atoms: C_19  and  C_20 
REMARK       I    between atoms: C_20  and  N_22 
REMARK   15  A    between atoms: N_22  and  C_23 
REMARK   16  A    between atoms: C_23  and  C_24 
REMARK   17  A    between atoms: C_27  and  O_28 
REMARK   18  A    between atoms: C_29  and  O_30 
ROOT
HETATM    1  C   UNL     1     -23.753  -6.325 -14.131  1.00  0.00     0.027 C 
ENDROOT
BRANCH   1   2
HETATM    2  C   UNL     1     -23.196  -5.057 -13.551  1.00  0.00    -0.030 C 
HETATM    3  C   UNL     1     -22.332  -5.039 -12.519  1.00  0.00    -0.027 C 
BRANCH   3   4
HETATM    4  C   UNL     1     -21.784  -3.790 -11.908  1.00  0.00     0.053 C 
BRANCH   4   5
HETATM    5  C   UNL     1     -22.414  -3.499 -10.577  1.00  0.00    -0.027 C 
HETATM    6  C   UNL     1     -22.399  -4.367  -9.552  1.00  0.00    -0.027 C 
BRANCH   6   7
HETATM    7  C   UNL     1     -23.043  -4.111  -8.222  1.00  0.00     0.053 C 
BRANCH   7   8
HETATM    8  C   UNL     1     -22.300  -4.787  -7.109  1.00  0.00    -0.027 C 
HETATM    9  C   UNL     1     -21.191  -5.517  -7.310  1.00  0.00    -0.027 C 
BRANCH   9  10
HETATM   10  C   UNL     1     -20.456  -6.228  -6.214  1.00  0.00     0.053 C 
BRANCH  10  11
HETATM   11  C   UNL     1     -20.846  -5.686  -4.874  1.00  0.00    -0.027 C 
HETATM   12  C   UNL     1     -21.304  -6.450  -3.870  1.00  0.00    -0.030 C 
BRANCH  12  13
HETATM   13  C   UNL     1     -21.682  -5.908  -2.525  1.00  0.00     0.027 C 
BRANCH  13  14
HETATM   14  C   UNL     1     -22.173  -7.023  -1.602  1.00  0.00     0.004 C 
BRANCH  14  15
HETATM   15  C   UNL     1     -21.033  -7.983  -1.269  1.00  0.00    -0.000 C 
BRANCH  15  16
HETATM   16  C   UNL     1     -21.404  -8.908  -0.113  1.00  0.00    -0.005 C 
HETATM   17  C   UNL     1     -21.737  -8.109   1.136  1.00  0.00     0.005 C 
ENDBRANCH  15  16
ENDBRANCH  14  15
ENDBRANCH  13  14
ENDBRANCH  12  13
ENDBRANCH  10  11
ENDBRANCH   9  10
ENDBRANCH   7   8
ENDBRANCH   6   7
ENDBRANCH   4   5
ENDBRANCH   3   4
ENDBRANCH   1   2
BRANCH   1  18
HETATM   18  C   UNL     1     -24.636  -6.092 -15.367  1.00  0.00     0.013 C 
BRANCH  18  19
HETATM   19  C   UNL     1     -24.424  -7.143 -16.463  1.00  0.00     0.103 C 
BRANCH  19  20
HETATM   20  C   UNL     1     -25.189  -6.785 -17.721  1.00  0.00     0.217 C 
HETATM   21  O   UNL     1     -24.644  -6.690 -18.817  1.00  0.00    -0.274 OA
HETATM   22  N   UNL     1     -26.535  -6.591 -17.540  1.00  0.00    -0.357 N 
HETATM   23  H   UNL     1     -26.941  -6.707 -16.622  1.00  0.00     0.162 HD
BRANCH  22  24
HETATM   24  C   UNL     1     -27.402  -6.221 -18.638  1.00  0.00     0.161 C 
BRANCH  24  25
HETATM   25  C   UNL     1     -28.724  -5.722 -18.118  1.00  0.00    -0.038 A 
HETATM   26  C   UNL     1     -29.695  -6.635 -17.700  1.00  0.00     0.012 A 
HETATM   27  C   UNL     1     -30.874  -6.182 -17.119  1.00  0.00     0.040 A 
HETATM   28  C   UNL     1     -31.107  -4.814 -16.954  1.00  0.00     0.099 A 
HETATM   29  C   UNL     1     -30.163  -3.882 -17.390  1.00  0.00     0.101 A 
HETATM   30  C   UNL     1     -28.974  -4.347 -17.979  1.00  0.00     0.048 A 
BRANCH  28  31
HETATM   31  O   UNL     1     -32.263  -4.432 -16.337  1.00  0.00    -0.358 OA
HETATM   32  H   UNL     1     -32.586  -3.611 -16.741  1.00  0.00     0.217 HD
ENDBRANCH  28  31
BRANCH  29  33
HETATM   33  O   UNL     1     -30.235  -2.513 -17.312  1.00  0.00    -0.353 OA
HETATM   34  C   UNL     1     -29.016  -1.809 -17.099  1.00  0.00     0.210 C 
ENDBRANCH  29  33
ENDBRANCH  24  25
ENDBRANCH  22  24
ENDBRANCH  19  20
ENDBRANCH  18  19
ENDBRANCH   1  18
TORSDOF 18
BEGIN_RES ARG D 557
REMARK  4 active torsions:
REMARK  status: ('A' for Active; 'I' for Inactive)
REMARK    1  A    between atoms: CA   and  CB  
REMARK    2  A    between atoms: CB   and  CG  
REMARK    3  A    between atoms: CG   and  CD  
REMARK    4  A    between atoms: CD   and  NE  
REMARK       I    between atoms: NE   and  CZ  
REMARK       I    between atoms: CZ   and  NH1 
REMARK       I    between atoms: CZ   and  NH2 
ROOT
ATOM      1  CA  ARG D 557     -26.217   2.705 -17.014  1.00 35.49     0.159 C 
ENDROOT
BRANCH   1   2
ATOM      2  CB  ARG D 557     -26.789   1.319 -17.183  1.00 35.49     0.034 C 
BRANCH   2   3
ATOM      3  CG  ARG D 557     -25.834   0.205 -17.176  1.00 35.49     0.027 C 
BRANCH   3   4
ATOM      4  CD  ARG D 557     -24.728   0.415 -16.214  1.00 35.49     0.116 C 
BRANCH   4   5
ATOM      5  NE  ARG D 557     -24.877  -0.393 -15.032  1.00 35.49    -0.212 N 
ATOM      6  CZ  ARG D 557     -24.074  -1.365 -14.660  1.00 35.49     0.666 C 
ATOM      7  NH1 ARG D 557     -23.018  -1.722 -15.367  1.00 35.49    -0.235 N 
ATOM      8  NH2 ARG D 557     -24.350  -1.978 -13.546  1.00 35.49    -0.235 N 
ATOM      9  HH  ARG D 557     -22.816  -1.330 -16.102  1.00 35.49     0.174 HD
ATOM     10  HH  ARG D 557     -22.529  -2.361 -15.073  1.00 35.49     0.174 HD
ATOM     11  HH  ARG D 557     -25.035  -1.721 -13.107  1.00 35.49     0.174 HD
ATOM     12  HH  ARG D 557     -23.853  -2.608 -13.271  1.00 35.49     0.174 HD
ATOM     13  HE  ARG D 557     -25.572  -0.279 -14.555  1.00 35.49     0.178 HD
ENDBRANCH   4   5
ENDBRANCH   3   4
ENDBRANCH   2   3
ENDBRANCH   1   2
END_RES ARG D 557
BEGIN_RES GLU D 570
REMARK  3 active torsions:
REMARK  status: ('A' for Active; 'I' for Inactive)
REMARK    5  A    between atoms: CA   and  CB  
REMARK    6  A    between atoms: CB   and  CG  
REMARK    7  A    between atoms: CG   and  CD  
ROOT
ATOM     14  CA  GLU D 570     -18.033  -6.348 -13.375  1.00 32.92     0.160 C 
ENDROOT
BRANCH  14  15
ATOM     15  CB  GLU D 570     -19.500  -6.345 -13.794  1.00 32.92     0.043 C 
BRANCH  15  16
ATOM     16  CG  GLU D 570     -20.089  -7.636 -14.234  1.00 32.92     0.100 C 
BRANCH  16  17
ATOM     17  CD  GLU D 570     -20.694  -7.568 -15.617  1.00 32.92     0.185 C 
ATOM     18  OE1 GLU D 570     -20.767  -6.465 -16.191  1.00 32.92    -0.647 OA
ATOM     19  OE2 GLU D 570     -21.114  -8.626 -16.124  1.00 32.92    -0.647 OA
ENDBRANCH  16  17
ENDBRANCH  15  16
ENDBRANCH  14  15
END_RES GLU D 570
ENDMDL
MODEL 4
REMARK VINA RESULT:      -8.1      1.746      2.897
REMARK  18 active torsions:
REMARK  status: ('A' for Active; 'I' for Inactive)
REMARK    1  A    between atoms: C_2  and  C_3 
REMARK    2  A    between atoms: C_3  and  C_4 
REMARK    3  A    between atoms: C_4  and  C_5 
REMARK    4  A    between atoms: C_5  and  C_6 
REMARK    5  A    between atoms: C_7  and  C_8 
REMARK    6  A    between atoms: C_8  and  C_9 
REMARK    7  A    between atoms: C_10  and  C_11 
REMARK    8  A    between atoms: C_11  and  C_12 
REMARK    9  A    between atoms: C_13  and  C_14 
REMARK   10  A    between atoms: C_14  and  C_15 
REMARK   11  A    between atoms: C_16  and  C_17 
REMARK   12  A    between atoms: C_17  and  C_18 
REMARK   13  A    between atoms: C_18  and  C_19 
REMARK   14  A    between atoms: C_19  and  C_20 
REMARK       I    between atoms: C_20  and  N_22 
REMARK   15  A    between atoms: N_22  and  C_23 
REMARK   16  A    between atoms: C_23  and  C_24 
REMARK   17  A    between atoms: C_27  and  O_28 
REMARK   18  A    between atoms: C_29  and  O_30 
ROOT
HETATM    1  C   UNL     1     -21.454  -7.163  -5.591  1.00  0.00     0.027 C 
ENDROOT
BRANCH   1   2
HETATM    2  C   UNL     1     -22.010  -6.479  -4.374  1.00  0.00    -0.030 C 
HETATM    3  C   UNL     1     -21.482  -6.625  -3.145  1.00  0.00    -0.027 C 
BRANCH   3   4
HETATM    4  C   UNL     1     -22.032  -5.976  -1.916  1.00  0.00     0.053 C 
BRANCH   4   5
HETATM    5  C   UNL     1     -22.445  -6.990  -0.889  1.00  0.00    -0.027 C 
HETATM    6  C   UNL     1     -21.568  -7.750  -0.213  1.00  0.00    -0.027 C 
BRANCH   6   7
HETATM    7  C   UNL     1     -21.956  -8.787   0.798  1.00  0.00     0.053 C 
BRANCH   7   8
HETATM    8  C   UNL     1     -22.316 -10.088   0.146  1.00  0.00    -0.027 C 
HETATM    9  C   UNL     1     -23.527 -10.331  -0.380  1.00  0.00    -0.027 C 
BRANCH   9  10
HETATM   10  C   UNL     1     -23.914 -11.638  -1.005  1.00  0.00     0.053 C 
BRANCH  10  11
HETATM   11  C   UNL     1     -23.088 -11.909  -2.224  1.00  0.00    -0.027 C 
HETATM   12  C   UNL     1     -22.802 -10.977  -3.148  1.00  0.00    -0.030 C 
BRANCH  12  13
HETATM   13  C   UNL     1     -21.965 -11.245  -4.361  1.00  0.00     0.027 C 
BRANCH  13  14
HETATM   14  C   UNL     1     -20.685 -10.411  -4.341  1.00  0.00     0.004 C 
BRANCH  14  15
HETATM   15  C   UNL     1     -20.340  -9.994  -2.912  1.00  0.00    -0.000 C 
BRANCH  15  16
HETATM   16  C   UNL     1     -19.045 -10.649  -2.440  1.00  0.00    -0.005 C 
HETATM   17  C   UNL     1     -19.283 -11.489  -1.196  1.00  0.00     0.005 C 
ENDBRANCH  15  16
ENDBRANCH  14  15
ENDBRANCH  13  14
ENDBRANCH  12  13
ENDBRANCH  10  11
ENDBRANCH   9  10
ENDBRANCH   7   8
ENDBRANCH   6   7
ENDBRANCH   4   5
ENDBRANCH   3   4
ENDBRANCH   1   2
BRANCH   1  18
HETATM   18  C   UNL     1     -21.266  -6.217  -6.787  1.00  0.00     0.013 C 
BRANCH  18  19
HETATM   19  C   UNL     1     -19.942  -5.444  -6.738  1.00  0.00     0.103 C 
BRANCH  19  20
HETATM   20  C   UNL     1     -19.767  -4.580  -7.970  1.00  0.00     0.217 C 
HETATM   21  O   UNL     1     -19.164  -3.510  -7.943  1.00  0.00    -0.274 OA
HETATM   22  N   UNL     1     -20.320  -5.093  -9.116  1.00  0.00    -0.357 N 
HETATM   23  H   UNL     1     -20.784  -5.991  -9.093  1.00  0.00     0.162 HD
BRANCH  22  24
HETATM   24  C   UNL     1     -20.260  -4.379 -10.373  1.00  0.00     0.161 C 
BRANCH  24  25
HETATM   25  C   UNL     1     -21.648  -4.077 -10.874  1.00  0.00    -0.038 A 
HETATM   26  C   UNL     1     -22.754  -4.362 -10.070  1.00  0.00     0.012 A 
HETATM   27  C   UNL     1     -24.028  -3.988 -10.479  1.00  0.00     0.040 A 
HETATM   28  C   UNL     1     -24.221  -3.332 -11.697  1.00  0.00     0.099 A 
HETATM   29  C   UNL     1     -23.135  -3.062 -12.531  1.00  0.00     0.101 A 
HETATM   30  C   UNL     1     -21.848  -3.445 -12.112  1.00  0.00     0.048 A 
BRANCH  28  31
HETATM   31  O   UNL     1     -25.491  -2.950 -12.024  1.00  0.00    -0.358 OA
HETATM   32  H   UNL     1     -25.583  -1.994 -11.890  1.00  0.00     0.217 HD
ENDBRANCH  28  31
BRANCH  29  33
HETATM   33  O   UNL     1     -23.147  -2.437 -13.754  1.00  0.00    -0.353 OA
HETATM   34  C   UNL     1     -22.657  -3.178 -14.867  1.00  0.00     0.210 C 
ENDBRANCH  29  33
ENDBRANCH  24  25
ENDBRANCH  22  24
ENDBRANCH  19  20
ENDBRANCH  18  19
ENDBRANCH   1  18
TORSDOF 18
BEGIN_RES ARG D 557
REMARK  4 active torsions:
REMARK  status: ('A' for Active; 'I' for Inactive)
REMARK    1  A    between atoms: CA   and  CB  
REMARK    2  A    between atoms: CB   and  CG  
REMARK    3  A    between atoms: CG   and  CD  
REMARK    4  A    between atoms: CD   and  NE  
REMARK       I    between atoms: NE   and  CZ  
REMARK       I    between atoms: CZ   and  NH1 
REMARK       I    between atoms: CZ   and  NH2 
ROOT
ATOM      1  CA  ARG D 557     -26.217   2.705 -17.014  1.00 35.49     0.159 C 
ENDROOT
BRANCH   1   2
ATOM      2  CB  ARG D 557     -26.789   1.319 -17.183  1.00 35.49     0.034 C 
BRANCH   2   3
ATOM      3  CG  ARG D 557     -28.207   1.144 -16.845  1.00 35.49     0.027 C 
BRANCH   3   4
ATOM      4  CD  ARG D 557     -28.530  -0.253 -16.476  1.00 35.49     0.116 C 
BRANCH   4   5
ATOM      5  NE  ARG D 557     -27.452  -0.890 -15.767  1.00 35.49    -0.212 N 
ATOM      6  CZ  ARG D 557     -27.137  -2.165 -15.831  1.00 35.49     0.666 C 
ATOM      7  NH1 ARG D 557     -27.813  -3.026 -16.570  1.00 35.49    -0.235 N 
ATOM      8  NH2 ARG D 557     -26.113  -2.566 -15.135  1.00 35.49    -0.235 N 
ATOM      9  HH  ARG D 557     -28.489  -2.783 -17.037  1.00 35.49     0.174 HD
ATOM     10  HH  ARG D 557     -27.559  -3.844 -16.574  1.00 35.49     0.174 HD
ATOM     11  HH  ARG D 557     -25.691  -1.986 -14.673  1.00 35.49     0.174 HD
ATOM     12  HH  ARG D 557     -25.877  -3.380 -15.155  1.00 35.49     0.174 HD
ATOM     13  HE  ARG D 557     -27.009  -0.424 -15.211  1.00 35.49     0.178 HD
ENDBRANCH   4   5
ENDBRANCH   3   4
ENDBRANCH   2   3
ENDBRANCH   1   2
END_RES ARG D 557
BEGIN_RES GLU D 570
REMARK  3 active torsions:
REMARK  status: ('A' for Active; 'I' for Inactive)
REMARK    5  A    between atoms: CA   and  CB  
REMARK    6  A    between atoms: CB   and  CG  
REMARK    7  A    between atoms: CG   and  CD  
ROOT
ATOM     14  CA  GLU D 570     -18.033  -6.348 -13.375  1.00 32.92     0.160 C 
ENDROOT
BRANCH  14  15
ATOM     15  CB  GLU D 570     -19.500  -6.345 -13.794  1.00 32.92     0.043 C 
BRANCH  15  16
ATOM     16  CG  GLU D 570     -19.798  -6.470 -15.244  1.00 32.92     0.100 C 
BRANCH  16  17
ATOM     17  CD  GLU D 570     -20.969  -7.381 -15.529  1.00 32.92     0.185 C 
ATOM     18  OE1 GLU D 570     -22.126  -6.937 -15.401  1.00 32.92    -0.647 OA
ATOM     19  OE2 GLU D 570     -20.727  -8.557 -15.867  1.00 32.92    -0.647 OA
ENDBRANCH  16  17
ENDBRANCH  15  16
ENDBRANCH  14  15
END_RES GLU D 570
ENDMDL
MODEL 5
REMARK VINA RESULT:      -8.1      1.442      2.295
REMARK  18 active torsions:
REMARK  status: ('A' for Active; 'I' for Inactive)
REMARK    1  A    between atoms: C_2  and  C_3 
REMARK    2  A    between atoms: C_3  and  C_4 
REMARK    3  A    between atoms: C_4  and  C_5 
REMARK    4  A    between atoms: C_5  and  C_6 
REMARK    5  A    between atoms: C_7  and  C_8 
REMARK    6  A    between atoms: C_8  and  C_9 
REMARK    7  A    between atoms: C_10  and  C_11 
REMARK    8  A    between atoms: C_11  and  C_12 
REMARK    9  A    between atoms: C_13  and  C_14 
REMARK   10  A    between atoms: C_14  and  C_15 
REMARK   11  A    between atoms: C_16  and  C_17 
REMARK   12  A    between atoms: C_17  and  C_18 
REMARK   13  A    between atoms: C_18  and  C_19 
REMARK   14  A    between atoms: C_19  and  C_20 
REMARK       I    between atoms: C_20  and  N_22 
REMARK   15  A    between atoms: N_22  and  C_23 
REMARK   16  A    between atoms: C_23  and  C_24 
REMARK   17  A    between atoms: C_27  and  O_28 
REMARK   18  A    between atoms: C_29  and  O_30 
ROOT
HETATM    1  C   UNL     1     -21.347  -6.053  -3.591  1.00  0.00     0.027 C 
ENDROOT
BRANCH   1   2
HETATM    2  C   UNL     1     -21.881  -6.215  -2.196  1.00  0.00    -0.030 C 
HETATM    3  C   UNL     1     -21.912  -7.397  -1.554  1.00  0.00    -0.027 C 
BRANCH   3   4
HETATM    4  C   UNL     1     -22.461  -7.588  -0.177  1.00  0.00     0.053 C 
BRANCH   4   5
HETATM    5  C   UNL     1     -22.287  -8.999   0.300  1.00  0.00    -0.027 C 
HETATM    6  C   UNL     1     -21.216  -9.751  -0.003  1.00  0.00    -0.027 C 
BRANCH   6   7
HETATM    7  C   UNL     1     -21.030 -11.171   0.441  1.00  0.00     0.053 C 
BRANCH   7   8
HETATM    8  C   UNL     1     -19.594 -11.473   0.745  1.00  0.00    -0.027 C 
HETATM    9  C   UNL     1     -18.880 -12.385   0.066  1.00  0.00    -0.027 C 
BRANCH   9  10
HETATM   10  C   UNL     1     -17.453 -12.723   0.379  1.00  0.00     0.053 C 
BRANCH  10  11
HETATM   11  C   UNL     1     -16.517 -11.854  -0.403  1.00  0.00    -0.027 C 
HETATM   12  C   UNL     1     -16.797 -11.376  -1.626  1.00  0.00    -0.030 C 
BRANCH  12  13
HETATM   13  C   UNL     1     -15.866 -10.496  -2.402  1.00  0.00     0.027 C 
BRANCH  13  14
HETATM   14  C   UNL     1     -16.641  -9.528  -3.295  1.00  0.00     0.004 C 
BRANCH  14  15
HETATM   15  C   UNL     1     -18.033  -9.268  -2.721  1.00  0.00    -0.000 C 
BRANCH  15  16
HETATM   16  C   UNL     1     -19.113  -9.424  -3.787  1.00  0.00    -0.005 C 
HETATM   17  C   UNL     1     -18.510  -9.380  -5.182  1.00  0.00     0.005 C 
ENDBRANCH  15  16
ENDBRANCH  14  15
ENDBRANCH  13  14
ENDBRANCH  12  13
ENDBRANCH  10  11
ENDBRANCH   9  10
ENDBRANCH   7   8
ENDBRANCH   6   7
ENDBRANCH   4   5
ENDBRANCH   3   4
ENDBRANCH   1   2
BRANCH   1  18
HETATM   18  C   UNL     1     -22.271  -6.643  -4.668  1.00  0.00     0.013 C 
BRANCH  18  19
HETATM   19  C   UNL     1     -21.505  -7.281  -5.832  1.00  0.00     0.103 C 
BRANCH  19  20
HETATM   20  C   UNL     1     -20.729  -6.240  -6.614  1.00  0.00     0.217 C 
HETATM   21  O   UNL     1     -19.602  -6.452  -7.052  1.00  0.00    -0.274 OA
HETATM   22  N   UNL     1     -21.391  -5.054  -6.804  1.00  0.00    -0.357 N 
HETATM   23  H   UNL     1     -22.329  -4.938  -6.446  1.00  0.00     0.162 HD
BRANCH  22  24
HETATM   24  C   UNL     1     -20.779  -3.949  -7.510  1.00  0.00     0.161 C 
BRANCH  24  25
HETATM   25  C   UNL     1     -21.187  -3.960  -8.959  1.00  0.00    -0.038 A 
HETATM   26  C   UNL     1     -20.253  -4.294  -9.942  1.00  0.00     0.012 A 
HETATM   27  C   UNL     1     -20.649  -4.413 -11.269  1.00  0.00     0.040 A 
HETATM   28  C   UNL     1     -21.978  -4.192 -11.639  1.00  0.00     0.099 A 
HETATM   29  C   UNL     1     -22.924  -3.830 -10.678  1.00  0.00     0.101 A 
HETATM   30  C   UNL     1     -22.517  -3.710  -9.338  1.00  0.00     0.048 A 
BRANCH  28  31
HETATM   31  O   UNL     1     -22.315  -4.367 -12.950  1.00  0.00    -0.358 OA
HETATM   32  H   UNL     1     -21.514  -4.553 -13.465  1.00  0.00     0.217 HD
ENDBRANCH  28  31
BRANCH  29  33
HETATM   33  O   UNL     1     -24.260  -3.571 -10.868  1.00  0.00    -0.353 OA
HETATM   34  C   UNL     1     -25.032  -3.260  -9.714  1.00  0.00     0.210 C 
ENDBRANCH  29  33
ENDBRANCH  24  25
ENDBRANCH  22  24
ENDBRANCH  19  20
ENDBRANCH  18  19
ENDBRANCH   1  18
TORSDOF 18
BEGIN_RES ARG D 557
REMARK  4 active torsions:
REMARK  status: ('A' for Active; 'I' for Inactive)
REMARK    1  A    between atoms: CA   and  CB  
REMARK    2  A    between atoms: CB   and  CG  
REMARK    3  A    between atoms: CG   and  CD  
REMARK    4  A    between atoms: CD   and  NE  
REMARK       I    between atoms: NE   and  CZ  
REMARK       I    between atoms: CZ   and  NH1 
REMARK       I    between atoms: CZ   and  NH2 
ROOT
ATOM      1  CA  ARG D 557     -26.217   2.705 -17.014  1.00 35.49     0.159 C 
ENDROOT
BRANCH   1   2
ATOM      2  CB  ARG D 557     -26.789   1.319 -17.183  1.00 35.49     0.034 C 
BRANCH   2   3
ATOM      3  CG  ARG D 557     -25.841   0.200 -17.119  1.00 35.49     0.027 C 
BRANCH   3   4
ATOM      4  CD  ARG D 557     -24.761   0.432 -16.132  1.00 35.49     0.116 C 
BRANCH   4   5
ATOM      5  NE  ARG D 557     -24.863  -0.448 -14.999  1.00 35.49    -0.212 N 
ATOM      6  CZ  ARG D 557     -24.016  -1.404 -14.689  1.00 35.49     0.666 C 
ATOM      7  NH1 ARG D 557     -22.952  -1.673 -15.423  1.00 35.49    -0.235 N 
ATOM      8  NH2 ARG D 557     -24.255  -2.092 -13.611  1.00 35.49    -0.235 N 
ATOM      9  HH  ARG D 557     -22.774  -1.232 -16.135  1.00 35.49     0.174 HD
ATOM     10  HH  ARG D 557     -22.433  -2.307 -15.170  1.00 35.49     0.174 HD
ATOM     11  HH  ARG D 557     -24.946  -1.891 -13.153  1.00 35.49     0.174 HD
ATOM     12  HH  ARG D 557     -23.729  -2.714 -13.377  1.00 35.49     0.174 HD
ATOM     13  HE  ARG D 557     -25.558  -0.393 -14.512  1.00 35.49     0.178 HD
ENDBRANCH   4   5
ENDBRANCH   3   4
ENDBRANCH   2   3
ENDBRANCH   1   2
END_RES ARG D 557
BEGIN_RES GLU D 570
REMARK  3 active torsions:
REMARK  status: ('A' for Active; 'I' for Inactive)
REMARK    5  A    between atoms: CA   and  CB  
REMARK    6  A    between atoms: CB   and  CG  
REMARK    7  A    between atoms: CG   and  CD  
ROOT
ATOM     14  CA  GLU D 570     -18.033  -6.348 -13.375  1.00 32.92     0.160 C 
ENDROOT
BRANCH  14  15
ATOM     15  CB  GLU D 570     -19.500  -6.345 -13.794  1.00 32.92     0.043 C 
BRANCH  15  16
ATOM     16  CG  GLU D 570     -19.797  -6.237 -15.246  1.00 32.92     0.100 C 
BRANCH  16  17
ATOM     17  CD  GLU D 570     -20.763  -7.293 -15.730  1.00 32.92     0.185 C 
ATOM     18  OE1 GLU D 570     -20.618  -8.469 -15.344  1.00 32.92    -0.647 OA
ATOM     19  OE2 GLU D 570     -21.665  -6.943 -16.517  1.00 32.92    -0.647 OA
ENDBRANCH  16  17
ENDBRANCH  15  16
ENDBRANCH  14  15
END_RES GLU D 570
ENDMDL
MODEL 6
REMARK VINA RESULT:      -8.0      1.944      2.594
REMARK  18 active torsions:
REMARK  status: ('A' for Active; 'I' for Inactive)
REMARK    1  A    between atoms: C_2  and  C_3 
REMARK    2  A    between atoms: C_3  and  C_4 
REMARK    3  A    between atoms: C_4  and  C_5 
REMARK    4  A    between atoms: C_5  and  C_6 
REMARK    5  A    between atoms: C_7  and  C_8 
REMARK    6  A    between atoms: C_8  and  C_9 
REMARK    7  A    between atoms: C_10  and  C_11 
REMARK    8  A    between atoms: C_11  and  C_12 
REMARK    9  A    between atoms: C_13  and  C_14 
REMARK   10  A    between atoms: C_14  and  C_15 
REMARK   11  A    between atoms: C_16  and  C_17 
REMARK   12  A    between atoms: C_17  and  C_18 
REMARK   13  A    between atoms: C_18  and  C_19 
REMARK   14  A    between atoms: C_19  and  C_20 
REMARK       I    between atoms: C_20  and  N_22 
REMARK   15  A    between atoms: N_22  and  C_23 
REMARK   16  A    between atoms: C_23  and  C_24 
REMARK   17  A    between atoms: C_27  and  O_28 
REMARK   18  A    between atoms: C_29  and  O_30 
ROOT
HETATM    1  C   UNL     1     -21.386  -6.434  -2.990  1.00  0.00     0.027 C 
ENDROOT
BRANCH   1   2
HETATM    2  C   UNL     1     -22.200  -7.232  -2.011  1.00  0.00    -0.030 C 
HETATM    3  C   UNL     1     -22.095  -7.085  -0.677  1.00  0.00    -0.027 C 
BRANCH   3   4
HETATM    4  C   UNL     1     -22.874  -7.884   0.316  1.00  0.00     0.053 C 
BRANCH   4   5
HETATM    5  C   UNL     1     -22.765  -9.357   0.053  1.00  0.00    -0.027 C 
HETATM    6  C   UNL     1     -23.833 -10.155  -0.117  1.00  0.00    -0.027 C 
BRANCH   6   7
HETATM    7  C   UNL     1     -23.751 -11.633  -0.355  1.00  0.00     0.053 C 
BRANCH   7   8
HETATM    8  C   UNL     1     -23.050 -11.947  -1.642  1.00  0.00    -0.027 C 
HETATM    9  C   UNL     1     -22.954 -11.070  -2.654  1.00  0.00    -0.027 C 
BRANCH   9  10
HETATM   10  C   UNL     1     -22.287 -11.379  -3.961  1.00  0.00     0.053 C 
BRANCH  10  11
HETATM   11  C   UNL     1     -21.060 -10.541  -4.142  1.00  0.00    -0.027 C 
HETATM   12  C   UNL     1     -20.299 -10.111  -3.123  1.00  0.00    -0.030 C 
BRANCH  12  13
HETATM   13  C   UNL     1     -19.063  -9.283  -3.306  1.00  0.00     0.027 C 
BRANCH  13  14
HETATM   14  C   UNL     1     -18.514  -9.423  -4.725  1.00  0.00     0.004 C 
BRANCH  14  15
HETATM   15  C   UNL     1     -17.453 -10.521  -4.783  1.00  0.00    -0.000 C 
BRANCH  15  16
HETATM   16  C   UNL     1     -16.133  -9.990  -5.334  1.00  0.00    -0.005 C 
HETATM   17  C   UNL     1     -15.430 -11.045  -6.172  1.00  0.00     0.005 C 
ENDBRANCH  15  16
ENDBRANCH  14  15
ENDBRANCH  13  14
ENDBRANCH  12  13
ENDBRANCH  10  11
ENDBRANCH   9  10
ENDBRANCH   7   8
ENDBRANCH   6   7
ENDBRANCH   4   5
ENDBRANCH   3   4
ENDBRANCH   1   2
BRANCH   1  18
HETATM   18  C   UNL     1     -22.044  -6.316  -4.374  1.00  0.00     0.013 C 
BRANCH  18  19
HETATM   19  C   UNL     1     -21.360  -7.183  -5.438  1.00  0.00     0.103 C 
BRANCH  19  20
HETATM   20  C   UNL     1     -20.751  -6.329  -6.532  1.00  0.00     0.217 C 
HETATM   21  O   UNL     1     -19.716  -6.644  -7.113  1.00  0.00    -0.274 OA
HETATM   22  N   UNL     1     -21.454  -5.189  -6.829  1.00  0.00    -0.357 N 
HETATM   23  H   UNL     1     -22.315  -4.987  -6.340  1.00  0.00     0.162 HD
BRANCH  22  24
HETATM   24  C   UNL     1     -20.993  -4.255  -7.834  1.00  0.00     0.161 C 
BRANCH  24  25
HETATM   25  C   UNL     1     -22.059  -4.035  -8.875  1.00  0.00    -0.038 A 
HETATM   26  C   UNL     1     -23.404  -4.016  -8.500  1.00  0.00     0.012 A 
HETATM   27  C   UNL     1     -24.385  -3.707  -9.434  1.00  0.00     0.040 A 
HETATM   28  C   UNL     1     -24.042  -3.420 -10.758  1.00  0.00     0.099 A 
HETATM   29  C   UNL     1     -22.707  -3.460 -11.164  1.00  0.00     0.101 A 
HETATM   30  C   UNL     1     -21.720  -3.776 -10.213  1.00  0.00     0.048 A 
BRANCH  28  31
HETATM   31  O   UNL     1     -25.045  -3.080 -11.619  1.00  0.00    -0.358 OA
HETATM   32  H   UNL     1     -24.661  -2.709 -12.429  1.00  0.00     0.217 HD
ENDBRANCH  28  31
BRANCH  29  33
HETATM   33  O   UNL     1     -22.200  -3.215 -12.416  1.00  0.00    -0.353 OA
HETATM   34  C   UNL     1     -22.413  -4.211 -13.410  1.00  0.00     0.210 C 
ENDBRANCH  29  33
ENDBRANCH  24  25
ENDBRANCH  22  24
ENDBRANCH  19  20
ENDBRANCH  18  19
ENDBRANCH   1  18
TORSDOF 18
BEGIN_RES ARG D 557
REMARK  4 active torsions:
REMARK  status: ('A' for Active; 'I' for Inactive)
REMARK    1  A    between atoms: CA   and  CB  
REMARK    2  A    between atoms: CB   and  CG  
REMARK    3  A    between atoms: CG   and  CD  
REMARK    4  A    between atoms: CD   and  NE  
REMARK       I    between atoms: NE   and  CZ  
REMARK       I    between atoms: CZ   and  NH1 
REMARK       I    between atoms: CZ   and  NH2 
ROOT
ATOM      1  CA  ARG D 557     -26.217   2.705 -17.014  1.00 35.49     0.159 C 
ENDROOT
BRANCH   1   2
ATOM      2  CB  ARG D 557     -26.789   1.319 -17.183  1.00 35.49     0.034 C 
BRANCH   2   3
ATOM      3  CG  ARG D 557     -28.238   1.224 -17.399  1.00 35.49     0.027 C 
BRANCH   3   4
ATOM      4  CD  ARG D 557     -28.887   0.279 -16.462  1.00 35.49     0.116 C 
BRANCH   4   5
ATOM      5  NE  ARG D 557     -29.272  -0.948 -17.110  1.00 35.49    -0.212 N 
ATOM      6  CZ  ARG D 557     -28.640  -2.096 -17.018  1.00 35.49     0.666 C 
ATOM      7  NH1 ARG D 557     -27.537  -2.244 -16.307  1.00 35.49    -0.235 N 
ATOM      8  NH2 ARG D 557     -29.144  -3.112 -17.656  1.00 35.49    -0.235 N 
ATOM      9  HH  ARG D 557     -27.189  -1.589 -15.877  1.00 35.49     0.174 HD
ATOM     10  HH  ARG D 557     -27.170  -3.017 -16.281  1.00 35.49     0.174 HD
ATOM     11  HH  ARG D 557     -29.861  -2.989 -18.102  1.00 35.49     0.174 HD
ATOM     12  HH  ARG D 557     -28.766  -3.870 -17.618  1.00 35.49     0.174 HD
ATOM     13  HE  ARG D 557     -29.931  -0.926 -17.647  1.00 35.49     0.178 HD
ENDBRANCH   4   5
ENDBRANCH   3   4
ENDBRANCH   2   3
ENDBRANCH   1   2
END_RES ARG D 557
BEGIN_RES GLU D 570
REMARK  3 active torsions:
REMARK  status: ('A' for Active; 'I' for Inactive)
REMARK    5  A    between atoms: CA   and  CB  
REMARK    6  A    between atoms: CB   and  CG  
REMARK    7  A    between atoms: CG   and  CD  
ROOT
ATOM     14  CA  GLU D 570     -18.033  -6.348 -13.375  1.00 32.92     0.160 C 
ENDROOT
BRANCH  14  15
ATOM     15  CB  GLU D 570     -19.500  -6.345 -13.794  1.00 32.92     0.043 C 
BRANCH  15  16
ATOM     16  CG  GLU D 570     -20.084  -7.633 -14.251  1.00 32.92     0.100 C 
BRANCH  16  17
ATOM     17  CD  GLU D 570     -20.739  -7.534 -15.609  1.00 32.92     0.185 C 
ATOM     18  OE1 GLU D 570     -20.887  -6.411 -16.129  1.00 32.92    -0.647 OA
ATOM     19  OE2 GLU D 570     -21.124  -8.589 -16.150  1.00 32.92    -0.647 OA
ENDBRANCH  16  17
ENDBRANCH  15  16
ENDBRANCH  14  15
END_RES GLU D 570
ENDMDL
MODEL 7
REMARK VINA RESULT:      -8.0      1.722      2.596
REMARK  18 active torsions:
REMARK  status: ('A' for Active; 'I' for Inactive)
REMARK    1  A    between atoms: C_2  and  C_3 
REMARK    2  A    between atoms: C_3  and  C_4 
REMARK    3  A    between atoms: C_4  and  C_5 
REMARK    4  A    between atoms: C_5  and  C_6 
REMARK    5  A    between atoms: C_7  and  C_8 
REMARK    6  A    between atoms: C_8  and  C_9 
REMARK    7  A    between atoms: C_10  and  C_11 
REMARK    8  A    between atoms: C_11  and  C_12 
REMARK    9  A    between atoms: C_13  and  C_14 
REMARK   10  A    between atoms: C_14  and  C_15 
REMARK   11  A    between atoms: C_16  and  C_17 
REMARK   12  A    between atoms: C_17  and  C_18 
REMARK   13  A    between atoms: C_18  and  C_19 
REMARK   14  A    between atoms: C_19  and  C_20 
REMARK       I    between atoms: C_20  and  N_22 
REMARK   15  A    between atoms: N_22  and  C_23 
REMARK   16  A    between atoms: C_23  and  C_24 
REMARK   17  A    between atoms: C_27  and  O_28 
REMARK   18  A    between atoms: C_29  and  O_30 
ROOT
HETATM    1  C   UNL     1     -21.184  -6.321  -2.987  1.00  0.00     0.027 C 
ENDROOT
BRANCH   1   2
HETATM    2  C   UNL     1     -22.180  -6.539  -1.884  1.00  0.00    -0.030 C 
HETATM    3  C   UNL     1     -21.949  -7.352  -0.837  1.00  0.00    -0.027 C 
BRANCH   3   4
HETATM    4  C   UNL     1     -22.934  -7.605   0.259  1.00  0.00     0.053 C 
BRANCH   4   5
HETATM    5  C   UNL     1     -23.248  -9.065   0.398  1.00  0.00    -0.027 C 
HETATM    6  C   UNL     1     -22.779 -10.001  -0.444  1.00  0.00    -0.027 C 
BRANCH   6   7
HETATM    7  C   UNL     1     -23.099 -11.463  -0.343  1.00  0.00     0.053 C 
BRANCH   7   8
HETATM    8  C   UNL     1     -21.871 -12.309  -0.486  1.00  0.00    -0.027 C 
HETATM    9  C   UNL     1     -20.665 -11.927  -0.036  1.00  0.00    -0.027 C 
BRANCH   9  10
HETATM   10  C   UNL     1     -19.419 -12.745  -0.202  1.00  0.00     0.053 C 
BRANCH  10  11
HETATM   11  C   UNL     1     -18.227 -11.862  -0.407  1.00  0.00    -0.027 C 
HETATM   12  C   UNL     1     -17.389 -11.980  -1.448  1.00  0.00    -0.030 C 
BRANCH  12  13
HETATM   13  C   UNL     1     -16.203 -11.088  -1.660  1.00  0.00     0.027 C 
BRANCH  13  14
HETATM   14  C   UNL     1     -16.544  -9.936  -2.605  1.00  0.00     0.004 C 
BRANCH  14  15
HETATM   15  C   UNL     1     -17.556 -10.388  -3.656  1.00  0.00    -0.000 C 
BRANCH  15  16
HETATM   16  C   UNL     1     -18.669  -9.359  -3.835  1.00  0.00    -0.005 C 
HETATM   17  C   UNL     1     -19.844  -9.665  -2.922  1.00  0.00     0.005 C 
ENDBRANCH  15  16
ENDBRANCH  14  15
ENDBRANCH  13  14
ENDBRANCH  12  13
ENDBRANCH  10  11
ENDBRANCH   9  10
ENDBRANCH   7   8
ENDBRANCH   6   7
ENDBRANCH   4   5
ENDBRANCH   3   4
ENDBRANCH   1   2
BRANCH   1  18
HETATM   18  C   UNL     1     -21.773  -6.536  -4.390  1.00  0.00     0.013 C 
BRANCH  18  19
HETATM   19  C   UNL     1     -20.704  -6.814  -5.453  1.00  0.00     0.103 C 
BRANCH  19  20
HETATM   20  C   UNL     1     -20.465  -5.595  -6.321  1.00  0.00     0.217 C 
HETATM   21  O   UNL     1     -20.293  -4.475  -5.848  1.00  0.00    -0.274 OA
HETATM   22  N   UNL     1     -20.442  -5.845  -7.670  1.00  0.00    -0.357 N 
HETATM   23  H   UNL     1     -20.562  -6.790  -8.008  1.00  0.00     0.162 HD
BRANCH  22  24
HETATM   24  C   UNL     1     -20.248  -4.784  -8.635  1.00  0.00     0.161 C 
BRANCH  24  25
HETATM   25  C   UNL     1     -21.550  -4.442  -9.309  1.00  0.00    -0.038 A 
HETATM   26  C   UNL     1     -22.660  -4.089  -8.538  1.00  0.00     0.012 A 
HETATM   27  C   UNL     1     -23.832  -3.668  -9.155  1.00  0.00     0.040 A 
HETATM   28  C   UNL     1     -23.919  -3.600 -10.547  1.00  0.00     0.099 A 
HETATM   29  C   UNL     1     -22.833  -3.974 -11.340  1.00  0.00     0.101 A 
HETATM   30  C   UNL     1     -21.650  -4.401 -10.709  1.00  0.00     0.048 A 
BRANCH  28  31
HETATM   31  O   UNL     1     -25.082  -3.136 -11.093  1.00  0.00    -0.358 OA
HETATM   32  H   UNL     1     -25.466  -2.465 -10.508  1.00  0.00     0.217 HD
ENDBRANCH  28  31
BRANCH  29  33
HETATM   33  O   UNL     1     -22.751  -3.974 -12.710  1.00  0.00    -0.353 OA
HETATM   34  C   UNL     1     -22.948  -5.219 -13.373  1.00  0.00     0.210 C 
ENDBRANCH  29  33
ENDBRANCH  24  25
ENDBRANCH  22  24
ENDBRANCH  19  20
ENDBRANCH  18  19
ENDBRANCH   1  18
TORSDOF 18
BEGIN_RES ARG D 557
REMARK  4 active torsions:
REMARK  status: ('A' for Active; 'I' for Inactive)
REMARK    1  A    between atoms: CA   and  CB  
REMARK    2  A    between atoms: CB   and  CG  
REMARK    3  A    between atoms: CG   and  CD  
REMARK    4  A    between atoms: CD   and  NE  
REMARK       I    between atoms: NE   and  CZ  
REMARK       I    between atoms: CZ   and  NH1 
REMARK       I    between atoms: CZ   and  NH2 
ROOT
ATOM      1  CA  ARG D 557     -26.217   2.705 -17.014  1.00 35.49     0.159 C 
ENDROOT
BRANCH   1   2
ATOM      2  CB  ARG D 557     -26.789   1.319 -17.183  1.00 35.49     0.034 C 
BRANCH   2   3
ATOM      3  CG  ARG D 557     -26.006   0.209 -16.627  1.00 35.49     0.027 C 
BRANCH   3   4
ATOM      4  CD  ARG D 557     -26.861  -0.909 -16.164  1.00 35.49     0.116 C 
BRANCH   4   5
ATOM      5  NE  ARG D 557     -26.275  -1.617 -15.058  1.00 35.49    -0.212 N 
ATOM      6  CZ  ARG D 557     -26.305  -2.919 -14.876  1.00 35.49     0.666 C 
ATOM      7  NH1 ARG D 557     -26.911  -3.738 -15.716  1.00 35.49    -0.235 N 
ATOM      8  NH2 ARG D 557     -25.701  -3.393 -13.825  1.00 35.49    -0.235 N 
ATOM      9  HH  ARG D 557     -27.312  -3.448 -16.415  1.00 35.49     0.174 HD
ATOM     10  HH  ARG D 557     -26.895  -4.578 -15.547  1.00 35.49     0.174 HD
ATOM     11  HH  ARG D 557     -25.312  -2.841 -13.305  1.00 35.49     0.174 HD
ATOM     12  HH  ARG D 557     -25.696  -4.227 -13.677  1.00 35.49     0.174 HD
ATOM     13  HE  ARG D 557     -25.926  -1.161 -14.431  1.00 35.49     0.178 HD
ENDBRANCH   4   5
ENDBRANCH   3   4
ENDBRANCH   2   3
ENDBRANCH   1   2
END_RES ARG D 557
BEGIN_RES GLU D 570
REMARK  3 active torsions:
REMARK  status: ('A' for Active; 'I' for Inactive)
REMARK    5  A    between atoms: CA   and  CB  
REMARK    6  A    between atoms: CB   and  CG  
REMARK    7  A    between atoms: CG   and  CD  
ROOT
ATOM     14  CA  GLU D 570     -18.033  -6.348 -13.375  1.00 32.92     0.160 C 
ENDROOT
BRANCH  14  15
ATOM     15  CB  GLU D 570     -19.500  -6.345 -13.794  1.00 32.92     0.043 C 
BRANCH  15  16
ATOM     16  CG  GLU D 570     -20.098  -7.642 -14.204  1.00 32.92     0.100 C 
BRANCH  16  17
ATOM     17  CD  GLU D 570     -20.661  -7.615 -15.605  1.00 32.92     0.185 C 
ATOM     18  OE1 GLU D 570     -20.759  -8.683 -16.239  1.00 32.92    -0.647 OA
ATOM     19  OE2 GLU D 570     -20.993  -6.511 -16.081  1.00 32.92    -0.647 OA
ENDBRANCH  16  17
ENDBRANCH  15  16
ENDBRANCH  14  15
END_RES GLU D 570
ENDMDL
MODEL 8
REMARK VINA RESULT:      -7.9      2.411      4.339
REMARK  18 active torsions:
REMARK  status: ('A' for Active; 'I' for Inactive)
REMARK    1  A    between atoms: C_2  and  C_3 
REMARK    2  A    between atoms: C_3  and  C_4 
REMARK    3  A    between atoms: C_4  and  C_5 
REMARK    4  A    between atoms: C_5  and  C_6 
REMARK    5  A    between atoms: C_7  and  C_8 
REMARK    6  A    between atoms: C_8  and  C_9 
REMARK    7  A    between atoms: C_10  and  C_11 
REMARK    8  A    between atoms: C_11  and  C_12 
REMARK    9  A    between atoms: C_13  and  C_14 
REMARK   10  A    between atoms: C_14  and  C_15 
REMARK   11  A    between atoms: C_16  and  C_17 
REMARK   12  A    between atoms: C_17  and  C_18 
REMARK   13  A    between atoms: C_18  and  C_19 
REMARK   14  A    between atoms: C_19  and  C_20 
REMARK       I    between atoms: C_20  and  N_22 
REMARK   15  A    between atoms: N_22  and  C_23 
REMARK   16  A    between atoms: C_23  and  C_24 
REMARK   17  A    between atoms: C_27  and  O_28 
REMARK   18  A    between atoms: C_29  and  O_30 
ROOT
HETATM    1  C   UNL     1     -22.082  -4.980  -6.435  1.00  0.00     0.027 C 
ENDROOT
BRANCH   1   2
HETATM    2  C   UNL     1     -21.201  -6.170  -6.182  1.00  0.00    -0.030 C 
HETATM    3  C   UNL     1     -21.463  -7.088  -5.233  1.00  0.00    -0.027 C 
BRANCH   3   4
HETATM    4  C   UNL     1     -20.589  -8.266  -4.945  1.00  0.00     0.053 C 
BRANCH   4   5
HETATM    5  C   UNL     1     -21.356  -9.383  -4.302  1.00  0.00    -0.027 C 
HETATM    6  C   UNL     1     -21.556 -10.573  -4.893  1.00  0.00    -0.027 C 
BRANCH   6   7
HETATM    7  C   UNL     1     -22.340 -11.696  -4.283  1.00  0.00     0.053 C 
BRANCH   7   8
HETATM    8  C   UNL     1     -22.995 -11.280  -3.001  1.00  0.00    -0.027 C 
HETATM    9  C   UNL     1     -23.194 -12.125  -1.976  1.00  0.00    -0.027 C 
BRANCH   9  10
HETATM   10  C   UNL     1     -23.879 -11.735  -0.700  1.00  0.00     0.053 C 
BRANCH  10  11
HETATM   11  C   UNL     1     -23.016 -10.813   0.105  1.00  0.00    -0.027 C 
HETATM   12  C   UNL     1     -21.689 -10.967   0.237  1.00  0.00    -0.030 C 
BRANCH  12  13
HETATM   13  C   UNL     1     -20.824 -10.037   1.032  1.00  0.00     0.027 C 
BRANCH  13  14
HETATM   14  C   UNL     1     -21.418  -8.629   1.066  1.00  0.00     0.004 C 
BRANCH  14  15
HETATM   15  C   UNL     1     -21.231  -7.936  -0.283  1.00  0.00    -0.000 C 
BRANCH  15  16
HETATM   16  C   UNL     1     -22.468  -7.132  -0.671  1.00  0.00    -0.005 C 
HETATM   17  C   UNL     1     -22.194  -6.268  -1.890  1.00  0.00     0.005 C 
ENDBRANCH  15  16
ENDBRANCH  14  15
ENDBRANCH  13  14
ENDBRANCH  12  13
ENDBRANCH  10  11
ENDBRANCH   9  10
ENDBRANCH   7   8
ENDBRANCH   6   7
ENDBRANCH   4   5
ENDBRANCH   3   4
ENDBRANCH   1   2
BRANCH   1  18
HETATM   18  C   UNL     1     -21.761  -4.255  -7.752  1.00  0.00     0.013 C 
BRANCH  18  19
HETATM   19  C   UNL     1     -21.016  -5.140  -8.758  1.00  0.00     0.103 C 
BRANCH  19  20
HETATM   20  C   UNL     1     -20.783  -4.409 -10.064  1.00  0.00     0.217 C 
HETATM   21  O   UNL     1     -19.760  -4.557 -10.728  1.00  0.00    -0.274 OA
HETATM   22  N   UNL     1     -21.807  -3.583 -10.451  1.00  0.00    -0.357 N 
HETATM   23  H   UNL     1     -22.641  -3.515  -9.883  1.00  0.00     0.162 HD
BRANCH  22  24
HETATM   24  C   UNL     1     -21.730  -2.795 -11.663  1.00  0.00     0.161 C 
BRANCH  24  25
HETATM   25  C   UNL     1     -22.668  -3.342 -12.706  1.00  0.00    -0.038 A 
HETATM   26  C   UNL     1     -22.706  -4.716 -12.954  1.00  0.00     0.012 A 
HETATM   27  C   UNL     1     -23.644  -5.240 -13.836  1.00  0.00     0.040 A 
HETATM   28  C   UNL     1     -24.551  -4.404 -14.491  1.00  0.00     0.099 A 
HETATM   29  C   UNL     1     -24.514  -3.024 -14.280  1.00  0.00     0.101 A 
HETATM   30  C   UNL     1     -23.562  -2.500 -13.388  1.00  0.00     0.048 A 
BRANCH  28  31
HETATM   31  O   UNL     1     -25.477  -4.982 -15.311  1.00  0.00    -0.358 OA
HETATM   32  H   UNL     1     -25.546  -5.926 -15.102  1.00  0.00     0.217 HD
ENDBRANCH  28  31
BRANCH  29  33
HETATM   33  O   UNL     1     -25.321  -2.065 -14.842  1.00  0.00    -0.353 OA
HETATM   34  C   UNL     1     -24.739  -0.790 -15.091  1.00  0.00     0.210 C 
ENDBRANCH  29  33
ENDBRANCH  24  25
ENDBRANCH  22  24
ENDBRANCH  19  20
ENDBRANCH  18  19
ENDBRANCH   1  18
TORSDOF 18
BEGIN_RES ARG D 557
REMARK  4 active torsions:
REMARK  status: ('A' for Active; 'I' for Inactive)
REMARK    1  A    between atoms: CA   and  CB  
REMARK    2  A    between atoms: CB   and  CG  
REMARK    3  A    between atoms: CG   and  CD  
REMARK    4  A    between atoms: CD   and  NE  
REMARK       I    between atoms: NE   and  CZ  
REMARK       I    between atoms: CZ   and  NH1 
REMARK       I    between atoms: CZ   and  NH2 
ROOT
ATOM      1  CA  ARG D 557     -26.217   2.705 -17.014  1.00 35.49     0.159 C 
ENDROOT
BRANCH   1   2
ATOM      2  CB  ARG D 557     -26.789   1.319 -17.183  1.00 35.49     0.034 C 
BRANCH   2   3
ATOM      3  CG  ARG D 557     -28.234   1.226 -17.424  1.00 35.49     0.027 C 
BRANCH   3   4
ATOM      4  CD  ARG D 557     -28.904   0.298 -16.485  1.00 35.49     0.116 C 
BRANCH   4   5
ATOM      5  NE  ARG D 557     -28.126  -0.889 -16.247  1.00 35.49    -0.212 N 
ATOM      6  CZ  ARG D 557     -28.384  -2.086 -16.725  1.00 35.49     0.666 C 
ATOM      7  NH1 ARG D 557     -29.432  -2.333 -17.490  1.00 35.49    -0.235 N 
ATOM      8  NH2 ARG D 557     -27.557  -3.044 -16.423  1.00 35.49    -0.235 N 
ATOM      9  HH  ARG D 557     -29.988  -1.716 -17.703  1.00 35.49     0.174 HD
ATOM     10  HH  ARG D 557     -29.548  -3.132 -17.775  1.00 35.49     0.174 HD
ATOM     11  HH  ARG D 557     -26.885  -2.854 -15.934  1.00 35.49     0.174 HD
ATOM     12  HH  ARG D 557     -27.689  -3.829 -16.717  1.00 35.49     0.174 HD
ATOM     13  HE  ARG D 557     -27.473  -0.836 -15.705  1.00 35.49     0.178 HD
ENDBRANCH   4   5
ENDBRANCH   3   4
ENDBRANCH   2   3
ENDBRANCH   1   2
END_RES ARG D 557
BEGIN_RES GLU D 570
REMARK  3 active torsions:
REMARK  status: ('A' for Active; 'I' for Inactive)
REMARK    5  A    between atoms: CA   and  CB  
REMARK    6  A    between atoms: CB   and  CG  
REMARK    7  A    between atoms: CG   and  CD  
ROOT
ATOM     14  CA  GLU D 570     -18.033  -6.348 -13.375  1.00 32.92     0.160 C 
ENDROOT
BRANCH  14  15
ATOM     15  CB  GLU D 570     -19.500  -6.345 -13.794  1.00 32.92     0.043 C 
BRANCH  15  16
ATOM     16  CG  GLU D 570     -19.855  -5.614 -15.038  1.00 32.92     0.100 C 
BRANCH  16  17
ATOM     17  CD  GLU D 570     -20.643  -6.459 -16.013  1.00 32.92     0.185 C 
ATOM     18  OE1 GLU D 570     -21.006  -7.600 -15.669  1.00 32.92    -0.647 OA
ATOM     19  OE2 GLU D 570     -20.884  -5.980 -17.138  1.00 32.92    -0.647 OA
ENDBRANCH  16  17
ENDBRANCH  15  16
ENDBRANCH  14  15
END_RES GLU D 570
ENDMDL
MODEL 9
REMARK VINA RESULT:      -7.9      3.722      7.530
REMARK  18 active torsions:
REMARK  status: ('A' for Active; 'I' for Inactive)
REMARK    1  A    between atoms: C_2  and  C_3 
REMARK    2  A    between atoms: C_3  and  C_4 
REMARK    3  A    between atoms: C_4  and  C_5 
REMARK    4  A    between atoms: C_5  and  C_6 
REMARK    5  A    between atoms: C_7  and  C_8 
REMARK    6  A    between atoms: C_8  and  C_9 
REMARK    7  A    between atoms: C_10  and  C_11 
REMARK    8  A    between atoms: C_11  and  C_12 
REMARK    9  A    between atoms: C_13  and  C_14 
REMARK   10  A    between atoms: C_14  and  C_15 
REMARK   11  A    between atoms: C_16  and  C_17 
REMARK   12  A    between atoms: C_17  and  C_18 
REMARK   13  A    between atoms: C_18  and  C_19 
REMARK   14  A    between atoms: C_19  and  C_20 
REMARK       I    between atoms: C_20  and  N_22 
REMARK   15  A    between atoms: N_22  and  C_23 
REMARK   16  A    between atoms: C_23  and  C_24 
REMARK   17  A    between atoms: C_27  and  O_28 
REMARK   18  A    between atoms: C_29  and  O_30 
ROOT
HETATM    1  C   UNL     1     -22.654  -2.698 -11.836  1.00  0.00     0.027 C 
ENDROOT
BRANCH   1   2
HETATM    2  C   UNL     1     -23.291  -3.290 -10.611  1.00  0.00    -0.030 C 
HETATM    3  C   UNL     1     -22.589  -3.667  -9.527  1.00  0.00    -0.027 C 
BRANCH   3   4
HETATM    4  C   UNL     1     -23.197  -4.281  -8.308  1.00  0.00     0.053 C 
BRANCH   4   5
HETATM    5  C   UNL     1     -22.196  -4.425  -7.199  1.00  0.00    -0.027 C 
HETATM    6  C   UNL     1     -20.869  -4.348  -7.392  1.00  0.00    -0.027 C 
BRANCH   6   7
HETATM    7  C   UNL     1     -19.849  -4.513  -6.307  1.00  0.00     0.053 C 
BRANCH   7   8
HETATM    8  C   UNL     1     -20.231  -5.601  -5.349  1.00  0.00    -0.027 C 
HETATM    9  C   UNL     1     -20.267  -6.898  -5.694  1.00  0.00    -0.027 C 
BRANCH   9  10
HETATM   10  C   UNL     1     -20.681  -7.994  -4.759  1.00  0.00     0.053 C 
BRANCH  10  11
HETATM   11  C   UNL     1     -21.600  -7.470  -3.699  1.00  0.00    -0.027 C 
HETATM   12  C   UNL     1     -21.307  -7.489  -2.390  1.00  0.00    -0.030 C 
BRANCH  12  13
HETATM   13  C   UNL     1     -22.221  -6.952  -1.330  1.00  0.00     0.027 C 
BRANCH  13  14
HETATM   14  C   UNL     1     -21.897  -7.560   0.034  1.00  0.00     0.004 C 
BRANCH  14  15
HETATM   15  C   UNL     1     -23.091  -8.349   0.566  1.00  0.00    -0.000 C 
BRANCH  15  16
HETATM   16  C   UNL     1     -23.209  -9.708  -0.118  1.00  0.00    -0.005 C 
HETATM   17  C   UNL     1     -21.931 -10.514   0.051  1.00  0.00     0.005 C 
ENDBRANCH  15  16
ENDBRANCH  14  15
ENDBRANCH  13  14
ENDBRANCH  12  13
ENDBRANCH  10  11
ENDBRANCH   9  10
ENDBRANCH   7   8
ENDBRANCH   6   7
ENDBRANCH   4   5
ENDBRANCH   3   4
ENDBRANCH   1   2
BRANCH   1  18
HETATM   18  C   UNL     1     -22.304  -3.745 -12.905  1.00  0.00     0.013 C 
BRANCH  18  19
HETATM   19  C   UNL     1     -23.378  -4.829 -13.057  1.00  0.00     0.103 C 
BRANCH  19  20
HETATM   20  C   UNL     1     -23.454  -5.329 -14.486  1.00  0.00     0.217 C 
HETATM   21  O   UNL     1     -22.856  -4.779 -15.407  1.00  0.00    -0.274 OA
HETATM   22  N   UNL     1     -24.228  -6.447 -14.663  1.00  0.00    -0.357 N 
HETATM   23  H   UNL     1     -24.679  -6.878 -13.868  1.00  0.00     0.162 HD
BRANCH  22  24
HETATM   24  C   UNL     1     -24.422  -7.035 -15.971  1.00  0.00     0.161 C 
BRANCH  24  25
HETATM   25  C   UNL     1     -25.834  -6.812 -16.444  1.00  0.00    -0.038 A 
HETATM   26  C   UNL     1     -26.884  -6.813 -15.523  1.00  0.00     0.012 A 
HETATM   27  C   UNL     1     -28.174  -6.500 -15.935  1.00  0.00     0.040 A 
HETATM   28  C   UNL     1     -28.439  -6.191 -17.272  1.00  0.00     0.099 A 
HETATM   29  C   UNL     1     -27.411  -6.211 -18.216  1.00  0.00     0.101 A 
HETATM   30  C   UNL     1     -26.109  -6.530 -17.793  1.00  0.00     0.048 A 
BRANCH  28  31
HETATM   31  O   UNL     1     -29.718  -5.849 -17.608  1.00  0.00    -0.358 OA
HETATM   32  H   UNL     1     -30.214  -5.632 -16.803  1.00  0.00     0.217 HD
ENDBRANCH  28  31
BRANCH  29  33
HETATM   33  O   UNL     1     -27.498  -5.942 -19.560  1.00  0.00    -0.353 OA
HETATM   34  C   UNL     1     -26.522  -6.539 -20.406  1.00  0.00     0.210 C 
ENDBRANCH  29  33
ENDBRANCH  24  25
ENDBRANCH  22  24
ENDBRANCH  19  20
ENDBRANCH  18  19
ENDBRANCH   1  18
TORSDOF 18
BEGIN_RES ARG D 557
REMARK  4 active torsions:
REMARK  status: ('A' for Active; 'I' for Inactive)
REMARK    1  A    between atoms: CA   and  CB  
REMARK    2  A    between atoms: CB   and  CG  
REMARK    3  A    between atoms: CG   and  CD  
REMARK    4  A    between atoms: CD   and  NE  
REMARK       I    between atoms: NE   and  CZ  
REMARK       I    between atoms: CZ   and  NH1 
REMARK       I    between atoms: CZ   and  NH2 
ROOT
ATOM      1  CA  ARG D 557     -26.217   2.705 -17.014  1.00 35.49     0.159 C 
ENDROOT
BRANCH   1   2
ATOM      2  CB  ARG D 557     -26.789   1.319 -17.183  1.00 35.49     0.034 C 
BRANCH   2   3
ATOM      3  CG  ARG D 557     -28.252   1.207 -17.212  1.00 35.49     0.027 C 
BRANCH   3   4
ATOM      4  CD  ARG D 557     -28.753   0.122 -16.338  1.00 35.49     0.116 C 
BRANCH   4   5
ATOM      5  NE  ARG D 557     -29.376  -0.936 -17.089  1.00 35.49    -0.212 N 
ATOM      6  CZ  ARG D 557     -28.966  -2.183 -17.143  1.00 35.49     0.666 C 
ATOM      7  NH1 ARG D 557     -27.892  -2.606 -16.501  1.00 35.49    -0.235 N 
ATOM      8  NH2 ARG D 557     -29.666  -3.015 -17.858  1.00 35.49    -0.235 N 
ATOM      9  HH  ARG D 557     -27.417  -2.076 -16.023  1.00 35.49     0.174 HD
ATOM     10  HH  ARG D 557     -27.674  -3.431 -16.571  1.00 35.49     0.174 HD
ATOM     11  HH  ARG D 557     -30.359  -2.716 -18.256  1.00 35.49     0.174 HD
ATOM     12  HH  ARG D 557     -29.435  -3.829 -17.914  1.00 35.49     0.174 HD
ATOM     13  HE  ARG D 557     -30.033  -0.736 -17.590  1.00 35.49     0.178 HD
ENDBRANCH   4   5
ENDBRANCH   3   4
ENDBRANCH   2   3
ENDBRANCH   1   2
END_RES ARG D 557
BEGIN_RES GLU D 570
REMARK  3 active torsions:
REMARK  status: ('A' for Active; 'I' for Inactive)
REMARK    5  A    between atoms: CA   and  CB  
REMARK    6  A    between atoms: CB   and  CG  
REMARK    7  A    between atoms: CG   and  CD  
ROOT
ATOM     14  CA  GLU D 570     -18.033  -6.348 -13.375  1.00 32.92     0.160 C 
ENDROOT
BRANCH  14  15
ATOM     15  CB  GLU D 570     -19.500  -6.345 -13.794  1.00 32.92     0.043 C 
BRANCH  15  16
ATOM     16  CG  GLU D 570     -19.796  -6.306 -15.249  1.00 32.92     0.100 C 
BRANCH  16  17
ATOM     17  CD  GLU D 570     -20.634  -7.475 -15.712  1.00 32.92     0.185 C 
ATOM     18  OE1 GLU D 570     -20.673  -8.506 -15.013  1.00 32.92    -0.647 OA
ATOM     19  OE2 GLU D 570     -21.244  -7.365 -16.794  1.00 32.92    -0.647 OA
ENDBRANCH  16  17
ENDBRANCH  15  16
ENDBRANCH  14  15
END_RES GLU D 570
ENDMDL
