MODEL 1
REMARK VINA RESULT:      -9.7      0.000      0.000
REMARK  15 active torsions:
REMARK  status: ('A' for Active; 'I' for Inactive)
REMARK    1  A    between atoms: O_2  and  C_3 
REMARK    2  A    between atoms: C_5  and  C_6 
REMARK    3  A    between atoms: C_6  and  C_7 
REMARK    4  A    between atoms: C_7  and  O_9 
REMARK    5  A    between atoms: O_9  and  C_10 
REMARK    6  A    between atoms: C_10  and  C_11 
REMARK    7  A    between atoms: C_18  and  O_19 
REMARK    8  A    between atoms: O_19  and  C_20 
REMARK    9  A    between atoms: C_23  and  O_24 
REMARK   10  A    between atoms: O_24  and  C_25 
REMARK   11  A    between atoms: C_25  and  C_27 
REMARK   12  A    between atoms: C_27  and  C_28 
REMARK   13  A    between atoms: C_36  and  O_37 
REMARK   14  A    between atoms: C_44  and  O_45 
REMARK   15  A    between atoms: C_49  and  O_50 
ROOT
HETATM    1  C   UNL     1     -21.096  -8.841  -5.045  1.00  0.00    -0.050 C 
HETATM    2  C   UNL     1     -21.908  -9.929  -4.419  1.00  0.00    -0.013 C 
HETATM    3  C   UNL     1     -21.373 -11.483  -3.445  1.00  0.00     0.052 C 
HETATM    4  C   UNL     1     -22.473 -12.704  -2.930  1.00  0.00     0.046 A 
HETATM    5  C   UNL     1     -23.305 -12.777  -1.650  1.00  0.00    -0.005 A 
HETATM    6  C   UNL     1     -23.602 -11.407  -1.109  1.00  0.00     0.018 C 
HETATM    7  C   UNL     1     -24.496 -13.699  -1.426  1.00  0.00     0.018 C 
HETATM    8  C   UNL     1     -21.990 -13.604  -1.742  1.00  0.00     0.110 A 
HETATM    9  C   UNL     1     -20.628 -13.256  -1.251  1.00  0.00     0.174 C 
HETATM   10  C   UNL     1     -19.628 -13.373  -2.516  1.00  0.00     0.050 C 
HETATM   11  C   UNL     1     -19.924 -14.349  -3.673  1.00  0.00     0.016 C 
HETATM   12  C   UNL     1     -19.553 -11.957  -3.019  1.00  0.00     0.086 C 
HETATM   13  C   UNL     1     -18.271 -11.456  -4.225  1.00  0.00     0.131 A 
HETATM   14  C   UNL     1     -18.653 -11.793  -5.600  1.00  0.00    -0.000 C 
HETATM   15  C   UNL     1     -19.815 -11.172  -5.653  1.00  0.00    -0.029 C 
HETATM   16  C   UNL     1     -20.921 -11.698  -6.541  1.00  0.00     0.051 C 
HETATM   17  C   UNL     1     -19.497 -10.179  -4.267  1.00  0.00     0.099 A 
HETATM   18  O   UNL     1     -20.006  -9.766  -3.200  1.00  0.00    -0.304 OA
HETATM   19  C   UNL     1     -18.169  -9.795  -4.354  1.00  0.00     0.134 A 
HETATM   20  C   UNL     1     -19.266  -8.582  -4.903  1.00  0.00     0.141 A 
ENDROOT
BRANCH   1  21
HETATM   21  C   UNL     1     -21.330  -7.677  -6.010  1.00  0.00     0.213 C 
BRANCH  21  22
HETATM   22  O   UNL     1     -21.739  -6.417  -5.534  1.00  0.00    -0.317 OA
BRANCH  22  23
HETATM   23  C   UNL     1     -20.985  -5.378  -5.985  1.00  0.00     0.263 C 
HETATM   24  O   UNL     1     -19.791  -5.248  -5.747  1.00  0.00    -0.265 OA
BRANCH  23  25
HETATM   25  C   UNL     1     -21.762  -4.288  -6.725  1.00  0.00     0.149 C 
BRANCH  25  26
HETATM   26  C   UNL     1     -21.675  -4.231  -8.234  1.00  0.00    -0.046 C 
HETATM   27  C   UNL     1     -22.821  -4.066  -9.008  1.00  0.00     0.047 C 
HETATM   28  C   UNL     1     -22.756  -3.771 -10.364  1.00  0.00     0.101 C 
HETATM   29  C   UNL     1     -21.530  -3.882 -11.014  1.00  0.00     0.099 C 
HETATM   30  C   UNL     1     -20.379  -4.213 -10.295  1.00  0.00     0.040 C 
HETATM   31  C   UNL     1     -20.444  -4.353  -8.903  1.00  0.00     0.010 C 
BRANCH  28  32
HETATM   32  O   UNL     1     -23.860  -3.364 -11.067  1.00  0.00    -0.353 OA
HETATM   33  C   UNL     1     -25.054  -3.306 -10.289  1.00  0.00     0.210 C 
ENDBRANCH  28  32
BRANCH  29  34
HETATM   34  O   UNL     1     -21.466  -3.650 -12.358  1.00  0.00    -0.358 OA
HETATM   35  H   UNL     1     -20.537  -3.571 -12.622  1.00  0.00     0.217 HD
ENDBRANCH  29  34
ENDBRANCH  25  26
ENDBRANCH  23  25
ENDBRANCH  22  23
ENDBRANCH  21  22
ENDBRANCH   1  21
BRANCH  19  36
HETATM   36  O   UNL     1     -17.553  -9.330  -3.167  1.00  0.00    -0.381 OA
HETATM   37  H   UNL     1     -17.321 -10.157  -2.676  1.00  0.00     0.211 HD
ENDBRANCH  19  36
BRANCH  12  38
HETATM   38  O   UNL     1     -18.902 -11.273  -1.867  1.00  0.00    -0.387 OA
HETATM   39  H   UNL     1     -18.846 -10.322  -2.066  1.00  0.00     0.210 HD
ENDBRANCH  12  38
BRANCH   8  40
HETATM   40  O   UNL     1     -22.103 -15.095  -1.933  1.00  0.00    -0.306 OA
BRANCH  40  41
HETATM   41  C   UNL     1     -21.610 -15.928  -0.942  1.00  0.00     0.255 C 
HETATM   42  C   UNL     1     -22.419 -15.928   0.332  1.00  0.00     0.126 C 
HETATM   43  O   UNL     1     -20.662 -16.695  -1.070  1.00  0.00    -0.266 OA
ENDBRANCH  40  41
ENDBRANCH   8  40
BRANCH   9  44
HETATM   44  O   UNL     1     -20.706 -11.929  -0.666  1.00  0.00    -0.312 OA
BRANCH  44  45
HETATM   45  C   UNL     1     -20.919 -11.743   0.649  1.00  0.00     0.263 C 
HETATM   46  O   UNL     1     -21.533 -12.518   1.386  1.00  0.00    -0.265 OA
BRANCH  45  47
HETATM   47  C   UNL     1     -20.424 -10.367   1.077  1.00  0.00     0.149 C 
BRANCH  47  48
HETATM   48  C   UNL     1     -21.222  -9.289   0.410  1.00  0.00    -0.049 A 
HETATM   49  C   UNL     1     -20.682  -8.601  -0.682  1.00  0.00     0.007 A 
HETATM   50  C   UNL     1     -21.349  -7.497  -1.205  1.00  0.00     0.001 A 
HETATM   51  C   UNL     1     -22.560  -7.082  -0.642  1.00  0.00     0.000 A 
HETATM   52  C   UNL     1     -23.115  -7.784   0.425  1.00  0.00     0.001 A 
HETATM   53  C   UNL     1     -22.452  -8.891   0.949  1.00  0.00     0.007 A 
ENDBRANCH  47  48
ENDBRANCH  45  47
ENDBRANCH  44  45
ENDBRANCH   9  44
TORSDOF 15
BEGIN_RES ARG D 557
REMARK  4 active torsions:
REMARK  status: ('A' for Active; 'I' for Inactive)
REMARK    1  A    between atoms: CA   and  CB  
REMARK    2  A    between atoms: CB   and  CG  
REMARK    3  A    between atoms: CG   and  CD  
REMARK    4  A    between atoms: CD   and  NE  
REMARK       I    between atoms: NE   and  CZ  
REMARK       I    between atoms: CZ   and  NH1 
REMARK       I    between atoms: CZ   and  NH2 
ROOT
ATOM      1  CA  ARG D 557     -26.217   2.705 -17.014  1.00 35.49     0.159 C 
ENDROOT
BRANCH   1   2
ATOM      2  CB  ARG D 557     -26.789   1.319 -17.183  1.00 35.49     0.034 C 
BRANCH   2   3
ATOM      3  CG  ARG D 557     -25.861   0.195 -17.005  1.00 35.49     0.027 C 
BRANCH   3   4
ATOM      4  CD  ARG D 557     -26.240  -0.674 -15.868  1.00 35.49     0.116 C 
BRANCH   4   5
ATOM      5  NE  ARG D 557     -25.149  -0.873 -14.950  1.00 35.49    -0.212 N 
ATOM      6  CZ  ARG D 557     -24.840  -2.004 -14.357  1.00 35.49     0.666 C 
ATOM      7  NH1 ARG D 557     -25.534  -3.113 -14.539  1.00 35.49    -0.235 N 
ATOM      8  NH2 ARG D 557     -23.803  -2.006 -13.571  1.00 35.49    -0.235 N 
ATOM      9  HH  ARG D 557     -26.219  -3.134 -15.054  1.00 35.49     0.174 HD
ATOM     10  HH  ARG D 557     -25.284  -3.821 -14.128  1.00 35.49     0.174 HD
ATOM     11  HH  ARG D 557     -23.370  -1.278 -13.478  1.00 35.49     0.174 HD
ATOM     12  HH  ARG D 557     -23.571  -2.719 -13.174  1.00 35.49     0.174 HD
ATOM     13  HE  ARG D 557     -24.693  -0.193 -14.719  1.00 35.49     0.178 HD
ENDBRANCH   4   5
ENDBRANCH   3   4
ENDBRANCH   2   3
ENDBRANCH   1   2
END_RES ARG D 557
BEGIN_RES GLU D 570
REMARK  3 active torsions:
REMARK  status: ('A' for Active; 'I' for Inactive)
REMARK    5  A    between atoms: CA   and  CB  
REMARK    6  A    between atoms: CB   and  CG  
REMARK    7  A    between atoms: CG   and  CD  
ROOT
ATOM     14  CA  GLU D 570     -18.033  -6.348 -13.375  1.00 32.92     0.160 C 
ENDROOT
BRANCH  14  15
ATOM     15  CB  GLU D 570     -19.500  -6.345 -13.794  1.00 32.92     0.043 C 
BRANCH  15  16
ATOM     16  CG  GLU D 570     -19.809  -5.992 -15.204  1.00 32.92     0.100 C 
BRANCH  16  17
ATOM     17  CD  GLU D 570     -21.216  -5.474 -15.387  1.00 32.92     0.185 C 
ATOM     18  OE1 GLU D 570     -21.542  -4.984 -16.485  1.00 32.92    -0.647 OA
ATOM     19  OE2 GLU D 570     -21.996  -5.544 -14.417  1.00 32.92    -0.647 OA
ENDBRANCH  16  17
ENDBRANCH  15  16
ENDBRANCH  14  15
END_RES GLU D 570
ENDMDL
MODEL 2
REMARK VINA RESULT:      -9.7      2.053      4.401
REMARK  15 active torsions:
REMARK  status: ('A' for Active; 'I' for Inactive)
REMARK    1  A    between atoms: O_2  and  C_3 
REMARK    2  A    between atoms: C_5  and  C_6 
REMARK    3  A    between atoms: C_6  and  C_7 
REMARK    4  A    between atoms: C_7  and  O_9 
REMARK    5  A    between atoms: O_9  and  C_10 
REMARK    6  A    between atoms: C_10  and  C_11 
REMARK    7  A    between atoms: C_18  and  O_19 
REMARK    8  A    between atoms: O_19  and  C_20 
REMARK    9  A    between atoms: C_23  and  O_24 
REMARK   10  A    between atoms: O_24  and  C_25 
REMARK   11  A    between atoms: C_25  and  C_27 
REMARK   12  A    between atoms: C_27  and  C_28 
REMARK   13  A    between atoms: C_36  and  O_37 
REMARK   14  A    between atoms: C_44  and  O_45 
REMARK   15  A    between atoms: C_49  and  O_50 
ROOT
HETATM    1  C   UNL     1     -20.619  -8.375  -3.467  1.00  0.00    -0.050 C 
HETATM    2  C   UNL     1     -19.578  -8.990  -2.588  1.00  0.00    -0.013 C 
HETATM    3  C   UNL     1     -19.426 -10.757  -1.880  1.00  0.00     0.052 C 
HETATM    4  C   UNL     1     -18.213 -11.226  -0.752  1.00  0.00     0.046 A 
HETATM    5  C   UNL     1     -16.792 -11.726  -1.013  1.00  0.00    -0.005 A 
HETATM    6  C   UNL     1     -16.258 -11.207  -2.318  1.00  0.00     0.018 C 
HETATM    7  C   UNL     1     -15.677 -11.790   0.022  1.00  0.00     0.018 C 
HETATM    8  C   UNL     1     -17.905 -12.760  -0.673  1.00  0.00     0.110 A 
HETATM    9  C   UNL     1     -18.737 -13.579  -1.599  1.00  0.00     0.174 C 
HETATM   10  C   UNL     1     -20.282 -13.273  -1.235  1.00  0.00     0.050 C 
HETATM   11  C   UNL     1     -20.695 -12.868   0.194  1.00  0.00     0.016 C 
HETATM   12  C   UNL     1     -20.657 -12.202  -2.222  1.00  0.00     0.086 C 
HETATM   13  C   UNL     1     -22.407 -11.743  -2.491  1.00  0.00     0.131 A 
HETATM   14  C   UNL     1     -22.887 -10.800  -1.475  1.00  0.00    -0.000 C 
HETATM   15  C   UNL     1     -21.980  -9.855  -1.622  1.00  0.00    -0.029 C 
HETATM   16  C   UNL     1     -21.583  -8.988  -0.446  1.00  0.00     0.051 C 
HETATM   17  C   UNL     1     -21.452 -10.419  -3.175  1.00  0.00     0.099 A 
HETATM   18  O   UNL     1     -20.426 -10.671  -3.847  1.00  0.00    -0.304 OA
HETATM   19  C   UNL     1     -22.591 -10.807  -3.860  1.00  0.00     0.134 A 
HETATM   20  C   UNL     1     -22.034  -9.236  -4.302  1.00  0.00     0.141 A 
ENDROOT
BRANCH   1  21
HETATM   21  C   UNL     1     -21.005  -6.973  -3.943  1.00  0.00     0.213 C 
BRANCH  21  22
HETATM   22  O   UNL     1     -20.245  -6.311  -4.925  1.00  0.00    -0.317 OA
BRANCH  22  23
HETATM   23  C   UNL     1     -20.865  -6.208  -6.133  1.00  0.00     0.263 C 
HETATM   24  O   UNL     1     -21.196  -7.169  -6.814  1.00  0.00    -0.265 OA
BRANCH  23  25
HETATM   25  C   UNL     1     -21.017  -4.780  -6.662  1.00  0.00     0.149 C 
BRANCH  25  26
HETATM   26  C   UNL     1     -21.142  -4.568  -8.154  1.00  0.00    -0.046 C 
HETATM   27  C   UNL     1     -22.368  -4.239  -8.726  1.00  0.00     0.047 C 
HETATM   28  C   UNL     1     -22.473  -3.805 -10.042  1.00  0.00     0.101 C 
HETATM   29  C   UNL     1     -21.367  -3.933 -10.877  1.00  0.00     0.099 C 
HETATM   30  C   UNL     1     -20.158  -4.421 -10.376  1.00  0.00     0.040 C 
HETATM   31  C   UNL     1     -20.035  -4.704  -9.010  1.00  0.00     0.010 C 
BRANCH  28  32
HETATM   32  O   UNL     1     -23.627  -3.246 -10.528  1.00  0.00    -0.353 OA
HETATM   33  C   UNL     1     -24.746  -3.376  -9.653  1.00  0.00     0.210 C 
ENDBRANCH  28  32
BRANCH  29  34
HETATM   34  O   UNL     1     -21.477  -3.562 -12.187  1.00  0.00    -0.358 OA
HETATM   35  H   UNL     1     -22.353  -3.177 -12.334  1.00  0.00     0.217 HD
ENDBRANCH  29  34
ENDBRANCH  25  26
ENDBRANCH  23  25
ENDBRANCH  22  23
ENDBRANCH  21  22
ENDBRANCH   1  21
BRANCH  19  36
HETATM   36  O   UNL     1     -22.414 -11.668  -4.970  1.00  0.00    -0.381 OA
HETATM   37  H   UNL     1     -21.443 -11.854  -4.978  1.00  0.00     0.211 HD
ENDBRANCH  19  36
BRANCH  12  38
HETATM   38  O   UNL     1     -20.531 -12.938  -3.512  1.00  0.00    -0.387 OA
HETATM   39  H   UNL     1     -20.478 -13.890  -3.317  1.00  0.00     0.210 HD
ENDBRANCH  12  38
BRANCH   8  40
HETATM   40  O   UNL     1     -17.900 -13.380   0.700  1.00  0.00    -0.306 OA
BRANCH  40  41
HETATM   41  C   UNL     1     -17.501 -14.701   0.829  1.00  0.00     0.255 C 
HETATM   42  C   UNL     1     -18.509 -15.593   1.511  1.00  0.00     0.126 C 
HETATM   43  O   UNL     1     -16.474 -15.178   0.359  1.00  0.00    -0.266 OA
ENDBRANCH  40  41
ENDBRANCH   8  40
BRANCH   9  44
HETATM   44  O   UNL     1     -18.355 -13.220  -2.953  1.00  0.00    -0.312 OA
BRANCH  44  45
HETATM   45  C   UNL     1     -17.588 -14.024  -3.712  1.00  0.00     0.263 C 
HETATM   46  O   UNL     1     -16.730 -14.799  -3.283  1.00  0.00    -0.265 OA
BRANCH  45  47
HETATM   47  C   UNL     1     -17.821 -13.739  -5.190  1.00  0.00     0.149 C 
BRANCH  47  48
HETATM   48  C   UNL     1     -17.222 -12.420  -5.572  1.00  0.00    -0.049 A 
HETATM   49  C   UNL     1     -15.833 -12.295  -5.688  1.00  0.00     0.007 A 
HETATM   50  C   UNL     1     -15.263 -11.041  -5.886  1.00  0.00     0.001 A 
HETATM   51  C   UNL     1     -16.080  -9.909  -5.976  1.00  0.00     0.000 A 
HETATM   52  C   UNL     1     -17.464 -10.035  -5.893  1.00  0.00     0.001 A 
HETATM   53  C   UNL     1     -18.038 -11.288  -5.697  1.00  0.00     0.007 A 
ENDBRANCH  47  48
ENDBRANCH  45  47
ENDBRANCH  44  45
ENDBRANCH   9  44
TORSDOF 15
BEGIN_RES ARG D 557
REMARK  4 active torsions:
REMARK  status: ('A' for Active; 'I' for Inactive)
REMARK    1  A    between atoms: CA   and  CB  
REMARK    2  A    between atoms: CB   and  CG  
REMARK    3  A    between atoms: CG   and  CD  
REMARK    4  A    between atoms: CD   and  NE  
REMARK       I    between atoms: NE   and  CZ  
REMARK       I    between atoms: CZ   and  NH1 
REMARK       I    between atoms: CZ   and  NH2 
ROOT
ATOM      1  CA  ARG D 557     -26.217   2.705 -17.014  1.00 35.49     0.159 C 
ENDROOT
BRANCH   1   2
ATOM      2  CB  ARG D 557     -26.789   1.319 -17.183  1.00 35.49     0.034 C 
BRANCH   2   3
ATOM      3  CG  ARG D 557     -25.870   0.194 -16.968  1.00 35.49     0.027 C 
BRANCH   3   4
ATOM      4  CD  ARG D 557     -26.305  -0.685 -15.859  1.00 35.49     0.116 C 
BRANCH   4   5
ATOM      5  NE  ARG D 557     -25.252  -0.918 -14.906  1.00 35.49    -0.212 N 
ATOM      6  CZ  ARG D 557     -24.978  -2.066 -14.329  1.00 35.49     0.666 C 
ATOM      7  NH1 ARG D 557     -25.677  -3.162 -14.562  1.00 35.49    -0.235 N 
ATOM      8  NH2 ARG D 557     -23.971  -2.099 -13.505  1.00 35.49    -0.235 N 
ATOM      9  HH  ARG D 557     -26.343  -3.163 -15.102  1.00 35.49     0.174 HD
ATOM     10  HH  ARG D 557     -25.451  -3.883 -14.158  1.00 35.49     0.174 HD
ATOM     11  HH  ARG D 557     -23.533  -1.378 -13.380  1.00 35.49     0.174 HD
ATOM     12  HH  ARG D 557     -23.762  -2.823 -13.116  1.00 35.49     0.174 HD
ATOM     13  HE  ARG D 557     -24.797  -0.249 -14.643  1.00 35.49     0.178 HD
ENDBRANCH   4   5
ENDBRANCH   3   4
ENDBRANCH   2   3
ENDBRANCH   1   2
END_RES ARG D 557
BEGIN_RES GLU D 570
REMARK  3 active torsions:
REMARK  status: ('A' for Active; 'I' for Inactive)
REMARK    5  A    between atoms: CA   and  CB  
REMARK    6  A    between atoms: CB   and  CG  
REMARK    7  A    between atoms: CG   and  CD  
ROOT
ATOM     14  CA  GLU D 570     -18.033  -6.348 -13.375  1.00 32.92     0.160 C 
ENDROOT
BRANCH  14  15
ATOM     15  CB  GLU D 570     -19.500  -6.345 -13.794  1.00 32.92     0.043 C 
BRANCH  15  16
ATOM     16  CG  GLU D 570     -19.798  -6.199 -15.242  1.00 32.92     0.100 C 
BRANCH  16  17
ATOM     17  CD  GLU D 570     -21.073  -5.433 -15.507  1.00 32.92     0.185 C 
ATOM     18  OE1 GLU D 570     -21.800  -5.117 -14.546  1.00 32.92    -0.647 OA
ATOM     19  OE2 GLU D 570     -21.357  -5.162 -16.691  1.00 32.92    -0.647 OA
ENDBRANCH  16  17
ENDBRANCH  15  16
ENDBRANCH  14  15
END_RES GLU D 570
ENDMDL
MODEL 3
REMARK VINA RESULT:      -9.5      2.678      5.077
REMARK  15 active torsions:
REMARK  status: ('A' for Active; 'I' for Inactive)
REMARK    1  A    between atoms: O_2  and  C_3 
REMARK    2  A    between atoms: C_5  and  C_6 
REMARK    3  A    between atoms: C_6  and  C_7 
REMARK    4  A    between atoms: C_7  and  O_9 
REMARK    5  A    between atoms: O_9  and  C_10 
REMARK    6  A    between atoms: C_10  and  C_11 
REMARK    7  A    between atoms: C_18  and  O_19 
REMARK    8  A    between atoms: O_19  and  C_20 
REMARK    9  A    between atoms: C_23  and  O_24 
REMARK   10  A    between atoms: O_24  and  C_25 
REMARK   11  A    between atoms: C_25  and  C_27 
REMARK   12  A    between atoms: C_27  and  C_28 
REMARK   13  A    between atoms: C_36  and  O_37 
REMARK   14  A    between atoms: C_44  and  O_45 
REMARK   15  A    between atoms: C_49  and  O_50 
ROOT
HETATM    1  C   UNL     1     -20.438  -8.112  -4.409  1.00  0.00    -0.050 C 
HETATM    2  C   UNL     1     -19.471  -8.733  -3.453  1.00  0.00    -0.013 C 
HETATM    3  C   UNL     1     -19.091 -10.567  -3.075  1.00  0.00     0.052 C 
HETATM    4  C   UNL     1     -18.035 -11.076  -1.815  1.00  0.00     0.046 A 
HETATM    5  C   UNL     1     -16.518 -11.268  -1.844  1.00  0.00    -0.005 A 
HETATM    6  C   UNL     1     -15.873 -10.387  -2.877  1.00  0.00     0.018 C 
HETATM    7  C   UNL     1     -15.622 -11.383  -0.619  1.00  0.00     0.018 C 
HETATM    8  C   UNL     1     -17.438 -12.518  -1.961  1.00  0.00     0.110 A 
HETATM    9  C   UNL     1     -17.902 -13.229  -3.185  1.00  0.00     0.174 C 
HETATM   10  C   UNL     1     -19.517 -13.268  -3.122  1.00  0.00     0.050 C 
HETATM   11  C   UNL     1     -20.258 -13.269  -1.769  1.00  0.00     0.016 C 
HETATM   12  C   UNL     1     -19.916 -12.076  -3.947  1.00  0.00     0.086 C 
HETATM   13  C   UNL     1     -21.645 -11.857  -4.505  1.00  0.00     0.131 A 
HETATM   14  C   UNL     1     -22.484 -11.260  -3.462  1.00  0.00    -0.000 C 
HETATM   15  C   UNL     1     -21.780 -10.171  -3.223  1.00  0.00    -0.029 C 
HETATM   16  C   UNL     1     -21.790  -9.541  -1.848  1.00  0.00     0.051 C 
HETATM   17  C   UNL     1     -20.873 -10.276  -4.699  1.00  0.00     0.099 A 
HETATM   18  O   UNL     1     -19.713 -10.200  -5.162  1.00  0.00    -0.304 OA
HETATM   19  C   UNL     1     -21.764 -10.678  -5.680  1.00  0.00     0.134 A 
HETATM   20  C   UNL     1     -21.470  -8.978  -5.683  1.00  0.00     0.141 A 
ENDROOT
BRANCH   1  21
HETATM   21  C   UNL     1     -21.010  -6.720  -4.685  1.00  0.00     0.213 C 
BRANCH  21  22
HETATM   22  O   UNL     1     -20.209  -5.713  -5.255  1.00  0.00    -0.317 OA
BRANCH  22  23
HETATM   23  C   UNL     1     -20.287  -5.639  -6.613  1.00  0.00     0.263 C 
HETATM   24  O   UNL     1     -19.868  -6.507  -7.368  1.00  0.00    -0.265 OA
BRANCH  23  25
HETATM   25  C   UNL     1     -20.834  -4.319  -7.159  1.00  0.00     0.149 C 
BRANCH  25  26
HETATM   26  C   UNL     1     -21.117  -4.208  -8.640  1.00  0.00    -0.046 C 
HETATM   27  C   UNL     1     -22.423  -4.072  -9.107  1.00  0.00     0.047 C 
HETATM   28  C   UNL     1     -22.700  -3.729 -10.424  1.00  0.00     0.101 C 
HETATM   29  C   UNL     1     -21.665  -3.760 -11.354  1.00  0.00     0.099 C 
HETATM   30  C   UNL     1     -20.362  -4.059 -10.949  1.00  0.00     0.040 C 
HETATM   31  C   UNL     1     -20.082  -4.248  -9.591  1.00  0.00     0.010 C 
BRANCH  28  32
HETATM   32  O   UNL     1     -23.957  -3.351 -10.822  1.00  0.00    -0.353 OA
HETATM   33  C   UNL     1     -24.911  -3.308  -9.763  1.00  0.00     0.210 C 
ENDBRANCH  28  32
BRANCH  29  34
HETATM   34  O   UNL     1     -21.938  -3.480 -12.663  1.00  0.00    -0.358 OA
HETATM   35  H   UNL     1     -22.371  -4.247 -13.067  1.00  0.00     0.217 HD
ENDBRANCH  29  34
ENDBRANCH  25  26
ENDBRANCH  23  25
ENDBRANCH  22  23
ENDBRANCH  21  22
ENDBRANCH   1  21
BRANCH  19  36
HETATM   36  O   UNL     1     -21.215 -11.224  -6.865  1.00  0.00    -0.381 OA
HETATM   37  H   UNL     1     -21.986 -11.653  -7.312  1.00  0.00     0.211 HD
ENDBRANCH  19  36
BRANCH  12  38
HETATM   38  O   UNL     1     -19.410 -12.471  -5.292  1.00  0.00    -0.387 OA
HETATM   39  H   UNL     1     -18.596 -11.969  -5.472  1.00  0.00     0.210 HD
ENDBRANCH  12  38
BRANCH   8  40
HETATM   40  O   UNL     1     -17.557 -13.424  -0.762  1.00  0.00    -0.306 OA
BRANCH  40  41
HETATM   41  C   UNL     1     -17.131 -14.737  -0.881  1.00  0.00     0.255 C 
HETATM   42  C   UNL     1     -15.631 -14.908  -0.876  1.00  0.00     0.126 C 
HETATM   43  O   UNL     1     -17.863 -15.720  -0.892  1.00  0.00    -0.266 OA
ENDBRANCH  40  41
ENDBRANCH   8  40
BRANCH   9  44
HETATM   44  O   UNL     1     -17.362 -12.516  -4.328  1.00  0.00    -0.312 OA
BRANCH  44  45
HETATM   45  C   UNL     1     -16.681 -13.147  -5.303  1.00  0.00     0.263 C 
HETATM   46  O   UNL     1     -17.126 -14.056  -6.006  1.00  0.00    -0.265 OA
BRANCH  45  47
HETATM   47  C   UNL     1     -15.229 -12.685  -5.320  1.00  0.00     0.149 C 
BRANCH  47  48
HETATM   48  C   UNL     1     -14.387 -13.560  -4.442  1.00  0.00    -0.049 A 
HETATM   49  C   UNL     1     -13.570 -12.982  -3.464  1.00  0.00     0.007 A 
HETATM   50  C   UNL     1     -12.671 -13.773  -2.755  1.00  0.00     0.001 A 
HETATM   51  C   UNL     1     -12.590 -15.145  -3.018  1.00  0.00     0.000 A 
HETATM   52  C   UNL     1     -13.424 -15.727  -3.968  1.00  0.00     0.001 A 
HETATM   53  C   UNL     1     -14.327 -14.940  -4.678  1.00  0.00     0.007 A 
ENDBRANCH  47  48
ENDBRANCH  45  47
ENDBRANCH  44  45
ENDBRANCH   9  44
TORSDOF 15
BEGIN_RES ARG D 557
REMARK  4 active torsions:
REMARK  status: ('A' for Active; 'I' for Inactive)
REMARK    1  A    between atoms: CA   and  CB  
REMARK    2  A    between atoms: CB   and  CG  
REMARK    3  A    between atoms: CG   and  CD  
REMARK    4  A    between atoms: CD   and  NE  
REMARK       I    between atoms: NE   and  CZ  
REMARK       I    between atoms: CZ   and  NH1 
REMARK       I    between atoms: CZ   and  NH2 
ROOT
ATOM      1  CA  ARG D 557     -26.217   2.705 -17.014  1.00 35.49     0.159 C 
ENDROOT
BRANCH   1   2
ATOM      2  CB  ARG D 557     -26.789   1.319 -17.183  1.00 35.49     0.034 C 
BRANCH   2   3
ATOM      3  CG  ARG D 557     -25.836   0.203 -17.151  1.00 35.49     0.027 C 
BRANCH   3   4
ATOM      4  CD  ARG D 557     -24.779   0.392 -16.133  1.00 35.49     0.116 C 
BRANCH   4   5
ATOM      5  NE  ARG D 557     -24.951  -0.482 -15.003  1.00 35.49    -0.212 N 
ATOM      6  CZ  ARG D 557     -24.131  -1.444 -14.644  1.00 35.49     0.666 C 
ATOM      7  NH1 ARG D 557     -23.031  -1.726 -15.317  1.00 35.49    -0.235 N 
ATOM      8  NH2 ARG D 557     -24.434  -2.126 -13.577  1.00 35.49    -0.235 N 
ATOM      9  HH  ARG D 557     -22.810  -1.290 -16.020  1.00 35.49     0.174 HD
ATOM     10  HH  ARG D 557     -22.532  -2.363 -15.034  1.00 35.49     0.174 HD
ATOM     11  HH  ARG D 557     -25.147  -1.916 -13.158  1.00 35.49     0.174 HD
ATOM     12  HH  ARG D 557     -23.927  -2.751 -13.312  1.00 35.49     0.174 HD
ATOM     13  HE  ARG D 557     -25.671  -0.419 -14.555  1.00 35.49     0.178 HD
ENDBRANCH   4   5
ENDBRANCH   3   4
ENDBRANCH   2   3
ENDBRANCH   1   2
END_RES ARG D 557
BEGIN_RES GLU D 570
REMARK  3 active torsions:
REMARK  status: ('A' for Active; 'I' for Inactive)
REMARK    5  A    between atoms: CA   and  CB  
REMARK    6  A    between atoms: CB   and  CG  
REMARK    7  A    between atoms: CG   and  CD  
ROOT
ATOM     14  CA  GLU D 570     -18.033  -6.348 -13.375  1.00 32.92     0.160 C 
ENDROOT
BRANCH  14  15
ATOM     15  CB  GLU D 570     -19.500  -6.345 -13.794  1.00 32.92     0.043 C 
BRANCH  15  16
ATOM     16  CG  GLU D 570     -19.810  -5.972 -15.198  1.00 32.92     0.100 C 
BRANCH  16  17
ATOM     17  CD  GLU D 570     -21.284  -5.738 -15.434  1.00 32.92     0.185 C 
ATOM     18  OE1 GLU D 570     -21.712  -4.568 -15.472  1.00 32.92    -0.647 OA
ATOM     19  OE2 GLU D 570     -22.021  -6.735 -15.566  1.00 32.92    -0.647 OA
ENDBRANCH  16  17
ENDBRANCH  15  16
ENDBRANCH  14  15
END_RES GLU D 570
ENDMDL
MODEL 4
REMARK VINA RESULT:      -9.4      1.759      3.305
REMARK  15 active torsions:
REMARK  status: ('A' for Active; 'I' for Inactive)
REMARK    1  A    between atoms: O_2  and  C_3 
REMARK    2  A    between atoms: C_5  and  C_6 
REMARK    3  A    between atoms: C_6  and  C_7 
REMARK    4  A    between atoms: C_7  and  O_9 
REMARK    5  A    between atoms: O_9  and  C_10 
REMARK    6  A    between atoms: C_10  and  C_11 
REMARK    7  A    between atoms: C_18  and  O_19 
REMARK    8  A    between atoms: O_19  and  C_20 
REMARK    9  A    between atoms: C_23  and  O_24 
REMARK   10  A    between atoms: O_24  and  C_25 
REMARK   11  A    between atoms: C_25  and  C_27 
REMARK   12  A    between atoms: C_27  and  C_28 
REMARK   13  A    between atoms: C_36  and  O_37 
REMARK   14  A    between atoms: C_44  and  O_45 
REMARK   15  A    between atoms: C_49  and  O_50 
ROOT
HETATM    1  C   UNL     1     -21.119  -8.158  -5.253  1.00  0.00    -0.050 C 
HETATM    2  C   UNL     1     -21.105  -9.636  -5.480  1.00  0.00    -0.013 C 
HETATM    3  C   UNL     1     -20.834 -11.084  -4.264  1.00  0.00     0.052 C 
HETATM    4  C   UNL     1     -20.705 -12.727  -4.761  1.00  0.00     0.046 A 
HETATM    5  C   UNL     1     -21.812 -13.757  -4.987  1.00  0.00    -0.005 A 
HETATM    6  C   UNL     1     -23.110 -13.097  -5.359  1.00  0.00     0.018 C 
HETATM    7  C   UNL     1     -21.654 -15.067  -5.748  1.00  0.00     0.018 C 
HETATM    8  C   UNL     1     -21.002 -13.802  -3.660  1.00  0.00     0.110 A 
HETATM    9  C   UNL     1     -21.342 -13.212  -2.334  1.00  0.00     0.174 C 
HETATM   10  C   UNL     1     -20.102 -12.266  -1.909  1.00  0.00     0.050 C 
HETATM   11  C   UNL     1     -18.671 -12.568  -2.397  1.00  0.00     0.016 C 
HETATM   12  C   UNL     1     -20.545 -10.903  -2.366  1.00  0.00     0.086 C 
HETATM   13  C   UNL     1     -19.670  -9.396  -1.809  1.00  0.00     0.131 A 
HETATM   14  C   UNL     1     -18.467  -9.136  -2.607  1.00  0.00    -0.000 C 
HETATM   15  C   UNL     1     -19.012  -9.115  -3.807  1.00  0.00    -0.029 C 
HETATM   16  C   UNL     1     -18.209  -9.539  -5.018  1.00  0.00     0.051 C 
HETATM   17  C   UNL     1     -20.629  -8.904  -3.214  1.00  0.00     0.099 A 
HETATM   18  O   UNL     1     -21.801  -9.323  -3.347  1.00  0.00    -0.304 OA
HETATM   19  C   UNL     1     -20.546  -8.018  -2.153  1.00  0.00     0.134 A 
HETATM   20  C   UNL     1     -21.047  -7.272  -3.626  1.00  0.00     0.141 A 
ENDROOT
BRANCH   1  21
HETATM   21  C   UNL     1     -21.109  -6.888  -6.107  1.00  0.00     0.213 C 
BRANCH  21  22
HETATM   22  O   UNL     1     -20.015  -6.589  -6.940  1.00  0.00    -0.317 OA
BRANCH  22  23
HETATM   23  C   UNL     1     -19.784  -5.257  -7.101  1.00  0.00     0.263 C 
HETATM   24  O   UNL     1     -18.702  -4.722  -6.897  1.00  0.00    -0.265 OA
BRANCH  23  25
HETATM   25  C   UNL     1     -21.020  -4.423  -7.444  1.00  0.00     0.149 C 
BRANCH  25  26
HETATM   26  C   UNL     1     -21.341  -4.167  -8.899  1.00  0.00    -0.046 C 
HETATM   27  C   UNL     1     -22.651  -3.924  -9.307  1.00  0.00     0.047 C 
HETATM   28  C   UNL     1     -22.949  -3.451 -10.579  1.00  0.00     0.101 C 
HETATM   29  C   UNL     1     -21.945  -3.451 -11.544  1.00  0.00     0.099 C 
HETATM   30  C   UNL     1     -20.649  -3.851 -11.211  1.00  0.00     0.040 C 
HETATM   31  C   UNL     1     -20.339  -4.174  -9.884  1.00  0.00     0.010 C 
BRANCH  28  32
HETATM   32  O   UNL     1     -24.195  -2.977 -10.899  1.00  0.00    -0.353 OA
HETATM   33  C   UNL     1     -25.177  -3.200  -9.889  1.00  0.00     0.210 C 
ENDBRANCH  28  32
BRANCH  29  34
HETATM   34  O   UNL     1     -22.242  -3.042 -12.812  1.00  0.00    -0.358 OA
HETATM   35  H   UNL     1     -21.418  -2.838 -13.280  1.00  0.00     0.217 HD
ENDBRANCH  29  34
ENDBRANCH  25  26
ENDBRANCH  23  25
ENDBRANCH  22  23
ENDBRANCH  21  22
ENDBRANCH   1  21
BRANCH  19  36
HETATM   36  O   UNL     1     -21.635  -7.990  -1.249  1.00  0.00    -0.381 OA
HETATM   37  H   UNL     1     -22.366  -7.569  -1.766  1.00  0.00     0.211 HD
ENDBRANCH  19  36
BRANCH  12  38
HETATM   38  O   UNL     1     -21.732 -10.676  -1.496  1.00  0.00    -0.387 OA
HETATM   39  H   UNL     1     -22.414 -10.220  -2.019  1.00  0.00     0.210 HD
ENDBRANCH  12  38
BRANCH   8  40
HETATM   40  O   UNL     1     -19.980 -14.896  -3.489  1.00  0.00    -0.306 OA
BRANCH  40  41
HETATM   41  C   UNL     1     -20.159 -15.815  -2.468  1.00  0.00     0.255 C 
HETATM   42  C   UNL     1     -21.282 -16.797  -2.702  1.00  0.00     0.126 C 
HETATM   43  O   UNL     1     -19.436 -15.930  -1.485  1.00  0.00    -0.266 OA
ENDBRANCH  40  41
ENDBRANCH   8  40
BRANCH   9  44
HETATM   44  O   UNL     1     -22.607 -12.516  -2.484  1.00  0.00    -0.312 OA
BRANCH  44  45
HETATM   45  C   UNL     1     -23.658 -12.771  -1.683  1.00  0.00     0.263 C 
HETATM   46  O   UNL     1     -24.369 -11.916  -1.151  1.00  0.00    -0.265 OA
BRANCH  45  47
HETATM   47  C   UNL     1     -23.762 -14.265  -1.405  1.00  0.00     0.149 C 
BRANCH  47  48
HETATM   48  C   UNL     1     -23.848 -14.521   0.069  1.00  0.00    -0.049 A 
HETATM   49  C   UNL     1     -23.173 -13.680   0.960  1.00  0.00     0.007 A 
HETATM   50  C   UNL     1     -23.119 -14.003   2.313  1.00  0.00     0.001 A 
HETATM   51  C   UNL     1     -23.742 -15.165   2.779  1.00  0.00     0.000 A 
HETATM   52  C   UNL     1     -24.440 -15.988   1.898  1.00  0.00     0.001 A 
HETATM   53  C   UNL     1     -24.500 -15.666   0.545  1.00  0.00     0.007 A 
ENDBRANCH  47  48
ENDBRANCH  45  47
ENDBRANCH  44  45
ENDBRANCH   9  44
TORSDOF 15
BEGIN_RES ARG D 557
REMARK  4 active torsions:
REMARK  status: ('A' for Active; 'I' for Inactive)
REMARK    1  A    between atoms: CA   and  CB  
REMARK    2  A    between atoms: CB   and  CG  
REMARK    3  A    between atoms: CG   and  CD  
REMARK    4  A    between atoms: CD   and  NE  
REMARK       I    between atoms: NE   and  CZ  
REMARK       I    between atoms: CZ   and  NH1 
REMARK       I    between atoms: CZ   and  NH2 
ROOT
ATOM      1  CA  ARG D 557     -26.217   2.705 -17.014  1.00 35.49     0.159 C 
ENDROOT
BRANCH   1   2
ATOM      2  CB  ARG D 557     -26.789   1.319 -17.183  1.00 35.49     0.034 C 
BRANCH   2   3
ATOM      3  CG  ARG D 557     -25.928   0.197 -16.792  1.00 35.49     0.027 C 
BRANCH   3   4
ATOM      4  CD  ARG D 557     -26.674  -0.865 -16.079  1.00 35.49     0.116 C 
BRANCH   4   5
ATOM      5  NE  ARG D 557     -25.923  -1.411 -14.979  1.00 35.49    -0.212 N 
ATOM      6  CZ  ARG D 557     -25.913  -2.671 -14.605  1.00 35.49     0.666 C 
ATOM      7  NH1 ARG D 557     -26.628  -3.597 -15.216  1.00 35.49    -0.235 N 
ATOM      8  NH2 ARG D 557     -25.155  -2.992 -13.597  1.00 35.49    -0.235 N 
ATOM      9  HH  ARG D 557     -27.132  -3.409 -15.883  1.00 35.49     0.174 HD
ATOM     10  HH  ARG D 557     -26.580  -4.403 -14.930  1.00 35.49     0.174 HD
ATOM     11  HH  ARG D 557     -24.698  -2.374 -13.227  1.00 35.49     0.174 HD
ATOM     12  HH  ARG D 557     -25.119  -3.796 -13.329  1.00 35.49     0.174 HD
ATOM     13  HE  ARG D 557     -25.490  -0.871 -14.484  1.00 35.49     0.178 HD
ENDBRANCH   4   5
ENDBRANCH   3   4
ENDBRANCH   2   3
ENDBRANCH   1   2
END_RES ARG D 557
BEGIN_RES GLU D 570
REMARK  3 active torsions:
REMARK  status: ('A' for Active; 'I' for Inactive)
REMARK    5  A    between atoms: CA   and  CB  
REMARK    6  A    between atoms: CB   and  CG  
REMARK    7  A    between atoms: CG   and  CD  
ROOT
ATOM     14  CA  GLU D 570     -18.033  -6.348 -13.375  1.00 32.92     0.160 C 
ENDROOT
BRANCH  14  15
ATOM     15  CB  GLU D 570     -19.500  -6.345 -13.794  1.00 32.92     0.043 C 
BRANCH  15  16
ATOM     16  CG  GLU D 570     -19.796  -6.273 -15.248  1.00 32.92     0.100 C 
BRANCH  16  17
ATOM     17  CD  GLU D 570     -21.051  -5.489 -15.556  1.00 32.92     0.185 C 
ATOM     18  OE1 GLU D 570     -21.816  -5.180 -14.622  1.00 32.92    -0.647 OA
ATOM     19  OE2 GLU D 570     -21.279  -5.195 -16.746  1.00 32.92    -0.647 OA
ENDBRANCH  16  17
ENDBRANCH  15  16
ENDBRANCH  14  15
END_RES GLU D 570
ENDMDL
MODEL 5
REMARK VINA RESULT:      -8.7      2.639      5.733
REMARK  15 active torsions:
REMARK  status: ('A' for Active; 'I' for Inactive)
REMARK    1  A    between atoms: O_2  and  C_3 
REMARK    2  A    between atoms: C_5  and  C_6 
REMARK    3  A    between atoms: C_6  and  C_7 
REMARK    4  A    between atoms: C_7  and  O_9 
REMARK    5  A    between atoms: O_9  and  C_10 
REMARK    6  A    between atoms: C_10  and  C_11 
REMARK    7  A    between atoms: C_18  and  O_19 
REMARK    8  A    between atoms: O_19  and  C_20 
REMARK    9  A    between atoms: C_23  and  O_24 
REMARK   10  A    between atoms: O_24  and  C_25 
REMARK   11  A    between atoms: C_25  and  C_27 
REMARK   12  A    between atoms: C_27  and  C_28 
REMARK   13  A    between atoms: C_36  and  O_37 
REMARK   14  A    between atoms: C_44  and  O_45 
REMARK   15  A    between atoms: C_49  and  O_50 
ROOT
HETATM    1  C   UNL     1     -15.716 -12.860  -2.606  1.00  0.00    -0.050 C 
HETATM    2  C   UNL     1     -17.136 -13.113  -2.998  1.00  0.00    -0.013 C 
HETATM    3  C   UNL     1     -18.696 -13.388  -1.930  1.00  0.00     0.052 C 
HETATM    4  C   UNL     1     -20.229 -13.817  -2.585  1.00  0.00     0.046 A 
HETATM    5  C   UNL     1     -21.340 -12.911  -3.116  1.00  0.00    -0.005 A 
HETATM    6  C   UNL     1     -20.791 -11.608  -3.625  1.00  0.00     0.018 C 
HETATM    7  C   UNL     1     -22.505 -13.364  -3.985  1.00  0.00     0.018 C 
HETATM    8  C   UNL     1     -21.472 -13.503  -1.683  1.00  0.00     0.110 A 
HETATM    9  C   UNL     1     -21.114 -12.884  -0.377  1.00  0.00     0.174 C 
HETATM   10  C   UNL     1     -20.097 -13.901   0.362  1.00  0.00     0.050 C 
HETATM   11  C   UNL     1     -20.160 -15.418   0.095  1.00  0.00     0.016 C 
HETATM   12  C   UNL     1     -18.745 -13.351  -0.003  1.00  0.00     0.086 C 
HETATM   13  C   UNL     1     -17.237 -13.913   0.868  1.00  0.00     0.131 A 
HETATM   14  C   UNL     1     -16.732 -15.178   0.324  1.00  0.00    -0.000 C 
HETATM   15  C   UNL     1     -16.609 -14.828  -0.941  1.00  0.00    -0.029 C 
HETATM   16  C   UNL     1     -16.767 -15.860  -2.037  1.00  0.00     0.051 C 
HETATM   17  C   UNL     1     -16.672 -13.126  -0.614  1.00  0.00     0.099 A 
HETATM   18  O   UNL     1     -17.202 -12.058  -0.994  1.00  0.00    -0.304 OA
HETATM   19  C   UNL     1     -15.936 -12.921   0.541  1.00  0.00     0.134 A 
HETATM   20  C   UNL     1     -15.059 -12.556  -0.899  1.00  0.00     0.141 A 
ENDROOT
BRANCH   1  21
HETATM   21  C   UNL     1     -14.348 -12.828  -3.292  1.00  0.00     0.213 C 
BRANCH  21  22
HETATM   22  O   UNL     1     -14.037 -13.736  -4.321  1.00  0.00    -0.317 OA
BRANCH  22  23
HETATM   23  C   UNL     1     -13.981 -13.177  -5.561  1.00  0.00     0.263 C 
HETATM   24  O   UNL     1     -13.009 -12.571  -5.993  1.00  0.00    -0.265 OA
BRANCH  23  25
HETATM   25  C   UNL     1     -15.283 -13.247  -6.361  1.00  0.00     0.149 C 
BRANCH  25  26
HETATM   26  C   UNL     1     -16.223 -12.063  -6.322  1.00  0.00    -0.046 C 
HETATM   27  C   UNL     1     -17.521 -12.167  -6.815  1.00  0.00     0.047 C 
HETATM   28  C   UNL     1     -18.478 -11.188  -6.580  1.00  0.00     0.101 C 
HETATM   29  C   UNL     1     -18.068  -9.967  -6.052  1.00  0.00     0.099 C 
HETATM   30  C   UNL     1     -16.732  -9.765  -5.700  1.00  0.00     0.040 C 
HETATM   31  C   UNL     1     -15.818 -10.821  -5.801  1.00  0.00     0.010 C 
BRANCH  28  32
HETATM   32  O   UNL     1     -19.807 -11.400  -6.842  1.00  0.00    -0.353 OA
HETATM   33  C   UNL     1     -20.118 -12.743  -7.208  1.00  0.00     0.210 C 
ENDBRANCH  28  32
BRANCH  29  34
HETATM   34  O   UNL     1     -18.992  -8.977  -5.870  1.00  0.00    -0.358 OA
HETATM   35  H   UNL     1     -18.533  -8.153  -5.651  1.00  0.00     0.217 HD
ENDBRANCH  29  34
ENDBRANCH  25  26
ENDBRANCH  23  25
ENDBRANCH  22  23
ENDBRANCH  21  22
ENDBRANCH   1  21
BRANCH  19  36
HETATM   36  O   UNL     1     -16.159 -11.710   1.242  1.00  0.00    -0.381 OA
HETATM   37  H   UNL     1     -17.141 -11.676   1.355  1.00  0.00     0.211 HD
ENDBRANCH  19  36
BRANCH  12  38
HETATM   38  O   UNL     1     -18.779 -12.023   0.672  1.00  0.00    -0.387 OA
HETATM   39  H   UNL     1     -19.462 -12.049   1.365  1.00  0.00     0.210 HD
ENDBRANCH  12  38
BRANCH   8  40
HETATM   40  O   UNL     1     -22.453 -14.627  -1.469  1.00  0.00    -0.306 OA
BRANCH  40  41
HETATM   41  C   UNL     1     -23.633 -14.355  -0.796  1.00  0.00     0.255 C 
HETATM   42  C   UNL     1     -23.891 -15.246   0.396  1.00  0.00     0.126 C 
HETATM   43  O   UNL     1     -24.389 -13.422  -1.042  1.00  0.00    -0.266 OA
ENDBRANCH  40  41
ENDBRANCH   8  40
BRANCH   9  44
HETATM   44  O   UNL     1     -20.555 -11.574  -0.659  1.00  0.00    -0.312 OA
BRANCH  44  45
HETATM   45  C   UNL     1     -21.036 -10.457  -0.083  1.00  0.00     0.263 C 
HETATM   46  O   UNL     1     -20.656  -9.993   0.993  1.00  0.00    -0.265 OA
BRANCH  45  47
HETATM   47  C   UNL     1     -22.223  -9.921  -0.875  1.00  0.00     0.149 C 
BRANCH  47  48
HETATM   48  C   UNL     1     -21.904  -8.577  -1.456  1.00  0.00    -0.049 A 
HETATM   49  C   UNL     1     -22.363  -7.419  -0.820  1.00  0.00     0.007 A 
HETATM   50  C   UNL     1     -22.207  -6.181  -1.437  1.00  0.00     0.001 A 
HETATM   51  C   UNL     1     -21.586  -6.097  -2.687  1.00  0.00     0.000 A 
HETATM   52  C   UNL     1     -21.101  -7.245  -3.308  1.00  0.00     0.001 A 
HETATM   53  C   UNL     1     -21.252  -8.485  -2.693  1.00  0.00     0.007 A 
ENDBRANCH  47  48
ENDBRANCH  45  47
ENDBRANCH  44  45
ENDBRANCH   9  44
TORSDOF 15
BEGIN_RES ARG D 557
REMARK  4 active torsions:
REMARK  status: ('A' for Active; 'I' for Inactive)
REMARK    1  A    between atoms: CA   and  CB  
REMARK    2  A    between atoms: CB   and  CG  
REMARK    3  A    between atoms: CG   and  CD  
REMARK    4  A    between atoms: CD   and  NE  
REMARK       I    between atoms: NE   and  CZ  
REMARK       I    between atoms: CZ   and  NH1 
REMARK       I    between atoms: CZ   and  NH2 
ROOT
ATOM      1  CA  ARG D 557     -26.217   2.705 -17.014  1.00 35.49     0.159 C 
ENDROOT
BRANCH   1   2
ATOM      2  CB  ARG D 557     -26.789   1.319 -17.183  1.00 35.49     0.034 C 
BRANCH   2   3
ATOM      3  CG  ARG D 557     -25.865   0.195 -16.989  1.00 35.49     0.027 C 
BRANCH   3   4
ATOM      4  CD  ARG D 557     -26.280  -0.691 -15.877  1.00 35.49     0.116 C 
BRANCH   4   5
ATOM      5  NE  ARG D 557     -25.217  -0.911 -14.933  1.00 35.49    -0.212 N 
ATOM      6  CZ  ARG D 557     -24.919  -2.058 -14.365  1.00 35.49     0.666 C 
ATOM      7  NH1 ARG D 557     -25.600  -3.164 -14.601  1.00 35.49    -0.235 N 
ATOM      8  NH2 ARG D 557     -23.906  -2.079 -13.548  1.00 35.49    -0.235 N 
ATOM      9  HH  ARG D 557     -26.269  -3.174 -15.136  1.00 35.49     0.174 HD
ATOM     10  HH  ARG D 557     -25.358  -3.884 -14.203  1.00 35.49     0.174 HD
ATOM     11  HH  ARG D 557     -23.480  -1.351 -13.421  1.00 35.49     0.174 HD
ATOM     12  HH  ARG D 557     -23.681  -2.801 -13.166  1.00 35.49     0.174 HD
ATOM     13  HE  ARG D 557     -24.772  -0.236 -14.668  1.00 35.49     0.178 HD
ENDBRANCH   4   5
ENDBRANCH   3   4
ENDBRANCH   2   3
ENDBRANCH   1   2
END_RES ARG D 557
BEGIN_RES GLU D 570
REMARK  3 active torsions:
REMARK  status: ('A' for Active; 'I' for Inactive)
REMARK    5  A    between atoms: CA   and  CB  
REMARK    6  A    between atoms: CB   and  CG  
REMARK    7  A    between atoms: CG   and  CD  
ROOT
ATOM     14  CA  GLU D 570     -18.033  -6.348 -13.375  1.00 32.92     0.160 C 
ENDROOT
BRANCH  14  15
ATOM     15  CB  GLU D 570     -19.500  -6.345 -13.794  1.00 32.92     0.043 C 
BRANCH  15  16
ATOM     16  CG  GLU D 570     -20.445  -5.546 -12.972  1.00 32.92     0.100 C 
BRANCH  16  17
ATOM     17  CD  GLU D 570     -21.682  -5.130 -13.733  1.00 32.92     0.185 C 
ATOM     18  OE1 GLU D 570     -22.742  -4.939 -13.106  1.00 32.92    -0.647 OA
ATOM     19  OE2 GLU D 570     -21.595  -5.011 -14.971  1.00 32.92    -0.647 OA
ENDBRANCH  16  17
ENDBRANCH  15  16
ENDBRANCH  14  15
END_RES GLU D 570
ENDMDL
MODEL 6
REMARK VINA RESULT:      -8.5      1.761      3.361
REMARK  15 active torsions:
REMARK  status: ('A' for Active; 'I' for Inactive)
REMARK    1  A    between atoms: O_2  and  C_3 
REMARK    2  A    between atoms: C_5  and  C_6 
REMARK    3  A    between atoms: C_6  and  C_7 
REMARK    4  A    between atoms: C_7  and  O_9 
REMARK    5  A    between atoms: O_9  and  C_10 
REMARK    6  A    between atoms: C_10  and  C_11 
REMARK    7  A    between atoms: C_18  and  O_19 
REMARK    8  A    between atoms: O_19  and  C_20 
REMARK    9  A    between atoms: C_23  and  O_24 
REMARK   10  A    between atoms: O_24  and  C_25 
REMARK   11  A    between atoms: C_25  and  C_27 
REMARK   12  A    between atoms: C_27  and  C_28 
REMARK   13  A    between atoms: C_36  and  O_37 
REMARK   14  A    between atoms: C_44  and  O_45 
REMARK   15  A    between atoms: C_49  and  O_50 
ROOT
HETATM    1  C   UNL     1     -21.460  -8.587  -4.495  1.00  0.00    -0.050 C 
HETATM    2  C   UNL     1     -21.200  -9.834  -5.276  1.00  0.00    -0.013 C 
HETATM    3  C   UNL     1     -20.198 -11.400  -4.834  1.00  0.00     0.052 C 
HETATM    4  C   UNL     1     -19.895 -12.677  -5.948  1.00  0.00     0.046 A 
HETATM    5  C   UNL     1     -20.752 -13.902  -6.270  1.00  0.00    -0.005 A 
HETATM    6  C   UNL     1     -22.208 -13.637  -6.011  1.00  0.00     0.018 C 
HETATM    7  C   UNL     1     -20.590 -14.792  -7.494  1.00  0.00     0.018 C 
HETATM    8  C   UNL     1     -19.532 -14.065  -5.317  1.00  0.00     0.110 A 
HETATM    9  C   UNL     1     -19.497 -14.047  -3.828  1.00  0.00     0.174 C 
HETATM   10  C   UNL     1     -18.430 -12.912  -3.397  1.00  0.00     0.050 C 
HETATM   11  C   UNL     1     -17.239 -12.555  -4.309  1.00  0.00     0.016 C 
HETATM   12  C   UNL     1     -19.298 -11.706  -3.157  1.00  0.00     0.086 C 
HETATM   13  C   UNL     1     -18.639 -10.232  -2.297  1.00  0.00     0.131 A 
HETATM   14  C   UNL     1     -17.891  -9.358  -3.207  1.00  0.00    -0.000 C 
HETATM   15  C   UNL     1     -18.819  -9.165  -4.123  1.00  0.00    -0.029 C 
HETATM   16  C   UNL     1     -18.430  -8.914  -5.563  1.00  0.00     0.051 C 
HETATM   17  C   UNL     1     -20.120  -9.696  -3.105  1.00  0.00     0.099 A 
HETATM   18  O   UNL     1     -21.138 -10.424  -3.090  1.00  0.00    -0.304 OA
HETATM   19  C   UNL     1     -19.862  -9.192  -1.842  1.00  0.00     0.134 A 
HETATM   20  C   UNL     1     -21.009  -8.256  -2.727  1.00  0.00     0.141 A 
ENDROOT
BRANCH   1  21
HETATM   21  C   UNL     1     -22.037  -7.194  -4.757  1.00  0.00     0.213 C 
BRANCH  21  22
HETATM   22  O   UNL     1     -21.329  -6.038  -4.380  1.00  0.00    -0.317 OA
BRANCH  22  23
HETATM   23  C   UNL     1     -20.604  -5.475  -5.387  1.00  0.00     0.263 C 
HETATM   24  O   UNL     1     -19.979  -4.429  -5.274  1.00  0.00    -0.265 OA
BRANCH  23  25
HETATM   25  C   UNL     1     -20.718  -6.181  -6.739  1.00  0.00     0.149 C 
BRANCH  25  26
HETATM   26  C   UNL     1     -21.053  -5.358  -7.962  1.00  0.00    -0.046 C 
HETATM   27  C   UNL     1     -22.349  -4.893  -8.175  1.00  0.00     0.047 C 
HETATM   28  C   UNL     1     -22.639  -3.943  -9.147  1.00  0.00     0.101 C 
HETATM   29  C   UNL     1     -21.661  -3.630 -10.087  1.00  0.00     0.099 C 
HETATM   30  C   UNL     1     -20.393  -4.209 -10.004  1.00  0.00     0.040 C 
HETATM   31  C   UNL     1     -20.078  -5.043  -8.925  1.00  0.00     0.010 C 
BRANCH  28  32
HETATM   32  O   UNL     1     -23.851  -3.304  -9.192  1.00  0.00    -0.353 OA
HETATM   33  C   UNL     1     -24.742  -3.822 -10.178  1.00  0.00     0.210 C 
ENDBRANCH  28  32
BRANCH  29  34
HETATM   34  O   UNL     1     -21.955  -2.741 -11.081  1.00  0.00    -0.358 OA
HETATM   35  H   UNL     1     -21.176  -2.627 -11.645  1.00  0.00     0.217 HD
ENDBRANCH  29  34
ENDBRANCH  25  26
ENDBRANCH  23  25
ENDBRANCH  22  23
ENDBRANCH  21  22
ENDBRANCH   1  21
BRANCH  19  36
HETATM   36  O   UNL     1     -20.533  -9.802  -0.754  1.00  0.00    -0.381 OA
HETATM   37  H   UNL     1     -21.295 -10.272  -1.175  1.00  0.00     0.211 HD
ENDBRANCH  19  36
BRANCH  12  38
HETATM   38  O   UNL     1     -20.114 -12.162  -1.997  1.00  0.00    -0.387 OA
HETATM   39  H   UNL     1     -19.821 -13.056  -1.748  1.00  0.00     0.210 HD
ENDBRANCH  12  38
BRANCH   8  40
HETATM   40  O   UNL     1     -18.302 -14.750  -5.853  1.00  0.00    -0.306 OA
BRANCH  40  41
HETATM   41  C   UNL     1     -18.018 -16.035  -5.418  1.00  0.00     0.255 C 
HETATM   42  C   UNL     1     -16.635 -16.205  -4.836  1.00  0.00     0.126 C 
HETATM   43  O   UNL     1     -18.815 -16.966  -5.392  1.00  0.00    -0.266 OA
ENDBRANCH  40  41
ENDBRANCH   8  40
BRANCH   9  44
HETATM   44  O   UNL     1     -20.853 -13.805  -3.368  1.00  0.00    -0.312 OA
BRANCH  44  45
HETATM   45  C   UNL     1     -21.577 -14.759  -2.755  1.00  0.00     0.263 C 
HETATM   46  O   UNL     1     -21.155 -15.870  -2.427  1.00  0.00    -0.265 OA
BRANCH  45  47
HETATM   47  C   UNL     1     -23.036 -14.334  -2.652  1.00  0.00     0.149 C 
BRANCH  47  48
HETATM   48  C   UNL     1     -23.203 -13.276  -1.604  1.00  0.00    -0.049 A 
HETATM   49  C   UNL     1     -23.139 -13.624  -0.250  1.00  0.00     0.007 A 
HETATM   50  C   UNL     1     -23.450 -12.680   0.724  1.00  0.00     0.001 A 
HETATM   51  C   UNL     1     -23.819 -11.384   0.349  1.00  0.00     0.000 A 
HETATM   52  C   UNL     1     -23.854 -11.027  -0.997  1.00  0.00     0.001 A 
HETATM   53  C   UNL     1     -23.541 -11.968  -1.974  1.00  0.00     0.007 A 
ENDBRANCH  47  48
ENDBRANCH  45  47
ENDBRANCH  44  45
ENDBRANCH   9  44
TORSDOF 15
BEGIN_RES ARG D 557
REMARK  4 active torsions:
REMARK  status: ('A' for Active; 'I' for Inactive)
REMARK    1  A    between atoms: CA   and  CB  
REMARK    2  A    between atoms: CB   and  CG  
REMARK    3  A    between atoms: CG   and  CD  
REMARK    4  A    between atoms: CD   and  NE  
REMARK       I    between atoms: NE   and  CZ  
REMARK       I    between atoms: CZ   and  NH1 
REMARK       I    between atoms: CZ   and  NH2 
ROOT
ATOM      1  CA  ARG D 557     -26.217   2.705 -17.014  1.00 35.49     0.159 C 
ENDROOT
BRANCH   1   2
ATOM      2  CB  ARG D 557     -26.789   1.319 -17.183  1.00 35.49     0.034 C 
BRANCH   2   3
ATOM      3  CG  ARG D 557     -25.861   0.195 -17.005  1.00 35.49     0.027 C 
BRANCH   3   4
ATOM      4  CD  ARG D 557     -26.238  -0.672 -15.865  1.00 35.49     0.116 C 
BRANCH   4   5
ATOM      5  NE  ARG D 557     -25.182  -0.779 -14.893  1.00 35.49    -0.212 N 
ATOM      6  CZ  ARG D 557     -24.754  -1.894 -14.344  1.00 35.49     0.666 C 
ATOM      7  NH1 ARG D 557     -25.278  -3.072 -14.629  1.00 35.49    -0.235 N 
ATOM      8  NH2 ARG D 557     -23.770  -1.806 -13.496  1.00 35.49    -0.235 N 
ATOM      9  HH  ARG D 557     -25.925  -3.153 -15.185  1.00 35.49     0.174 HD
ATOM     10  HH  ARG D 557     -24.956  -3.765 -14.242  1.00 35.49     0.174 HD
ATOM     11  HH  ARG D 557     -23.446  -1.034 -13.338  1.00 35.49     0.174 HD
ATOM     12  HH  ARG D 557     -23.464  -2.504 -13.125  1.00 35.49     0.174 HD
ATOM     13  HE  ARG D 557     -24.836  -0.061 -14.598  1.00 35.49     0.178 HD
ENDBRANCH   4   5
ENDBRANCH   3   4
ENDBRANCH   2   3
ENDBRANCH   1   2
END_RES ARG D 557
BEGIN_RES GLU D 570
REMARK  3 active torsions:
REMARK  status: ('A' for Active; 'I' for Inactive)
REMARK    5  A    between atoms: CA   and  CB  
REMARK    6  A    between atoms: CB   and  CG  
REMARK    7  A    between atoms: CG   and  CD  
ROOT
ATOM     14  CA  GLU D 570     -18.033  -6.348 -13.375  1.00 32.92     0.160 C 
ENDROOT
BRANCH  14  15
ATOM     15  CB  GLU D 570     -19.500  -6.345 -13.794  1.00 32.92     0.043 C 
BRANCH  15  16
ATOM     16  CG  GLU D 570     -20.442  -5.531 -12.983  1.00 32.92     0.100 C 
BRANCH  16  17
ATOM     17  CD  GLU D 570     -21.770  -5.308 -13.669  1.00 32.92     0.185 C 
ATOM     18  OE1 GLU D 570     -22.219  -6.195 -14.420  1.00 32.92    -0.647 OA
ATOM     19  OE2 GLU D 570     -22.359  -4.229 -13.465  1.00 32.92    -0.647 OA
ENDBRANCH  16  17
ENDBRANCH  15  16
ENDBRANCH  14  15
END_RES GLU D 570
ENDMDL
MODEL 7
REMARK VINA RESULT:      -8.5      2.596      4.571
REMARK  15 active torsions:
REMARK  status: ('A' for Active; 'I' for Inactive)
REMARK    1  A    between atoms: O_2  and  C_3 
REMARK    2  A    between atoms: C_5  and  C_6 
REMARK    3  A    between atoms: C_6  and  C_7 
REMARK    4  A    between atoms: C_7  and  O_9 
REMARK    5  A    between atoms: O_9  and  C_10 
REMARK    6  A    between atoms: C_10  and  C_11 
REMARK    7  A    between atoms: C_18  and  O_19 
REMARK    8  A    between atoms: O_19  and  C_20 
REMARK    9  A    between atoms: C_23  and  O_24 
REMARK   10  A    between atoms: O_24  and  C_25 
REMARK   11  A    between atoms: C_25  and  C_27 
REMARK   12  A    between atoms: C_27  and  C_28 
REMARK   13  A    between atoms: C_36  and  O_37 
REMARK   14  A    between atoms: C_44  and  O_45 
REMARK   15  A    between atoms: C_49  and  O_50 
ROOT
HETATM    1  C   UNL     1     -19.366  -8.911  -5.202  1.00  0.00    -0.050 C 
HETATM    2  C   UNL     1     -19.006 -10.016  -6.142  1.00  0.00    -0.013 C 
HETATM    3  C   UNL     1     -18.183 -11.710  -5.822  1.00  0.00     0.052 C 
HETATM    4  C   UNL     1     -17.714 -12.788  -7.079  1.00  0.00     0.046 A 
HETATM    5  C   UNL     1     -18.538 -13.864  -7.787  1.00  0.00    -0.005 A 
HETATM    6  C   UNL     1     -20.004 -13.533  -7.769  1.00  0.00     0.018 C 
HETATM    7  C   UNL     1     -18.167 -14.531  -9.104  1.00  0.00     0.018 C 
HETATM    8  C   UNL     1     -17.546 -14.291  -6.667  1.00  0.00     0.110 A 
HETATM    9  C   UNL     1     -17.816 -14.542  -5.223  1.00  0.00     0.174 C 
HETATM   10  C   UNL     1     -16.812 -13.590  -4.386  1.00  0.00     0.050 C 
HETATM   11  C   UNL     1     -15.445 -13.173  -4.967  1.00  0.00     0.016 C 
HETATM   12  C   UNL     1     -17.658 -12.382  -4.092  1.00  0.00     0.086 C 
HETATM   13  C   UNL     1     -17.126 -11.141  -2.857  1.00  0.00     0.131 A 
HETATM   14  C   UNL     1     -16.171 -10.182  -3.422  1.00  0.00    -0.000 C 
HETATM   15  C   UNL     1     -16.884  -9.755  -4.445  1.00  0.00    -0.029 C 
HETATM   16  C   UNL     1     -16.198  -9.283  -5.709  1.00  0.00     0.051 C 
HETATM   17  C   UNL     1     -18.387 -10.353  -3.818  1.00  0.00     0.099 A 
HETATM   18  O   UNL     1     -19.417 -10.989  -4.138  1.00  0.00    -0.304 OA
HETATM   19  C   UNL     1     -18.371 -10.105  -2.456  1.00  0.00     0.134 A 
HETATM   20  C   UNL     1     -19.272  -8.937  -3.350  1.00  0.00     0.141 A 
ENDROOT
BRANCH   1  21
HETATM   21  C   UNL     1     -19.818  -7.452  -5.300  1.00  0.00     0.213 C 
BRANCH  21  22
HETATM   22  O   UNL     1     -20.824  -7.070  -6.207  1.00  0.00    -0.317 OA
BRANCH  22  23
HETATM   23  C   UNL     1     -21.507  -5.949  -5.842  1.00  0.00     0.263 C 
HETATM   24  O   UNL     1     -22.508  -5.960  -5.138  1.00  0.00    -0.265 OA
BRANCH  23  25
HETATM   25  C   UNL     1     -21.008  -4.651  -6.480  1.00  0.00     0.149 C 
BRANCH  25  26
HETATM   26  C   UNL     1     -21.085  -4.504  -7.982  1.00  0.00    -0.046 C 
HETATM   27  C   UNL     1     -22.263  -4.085  -8.597  1.00  0.00     0.047 C 
HETATM   28  C   UNL     1     -22.301  -3.710  -9.934  1.00  0.00     0.101 C 
HETATM   29  C   UNL     1     -21.199  -3.990 -10.738  1.00  0.00     0.099 C 
HETATM   30  C   UNL     1     -20.054  -4.569 -10.186  1.00  0.00     0.040 C 
HETATM   31  C   UNL     1     -19.983  -4.793  -8.806  1.00  0.00     0.010 C 
BRANCH  28  32
HETATM   32  O   UNL     1     -23.385  -3.066 -10.473  1.00  0.00    -0.353 OA
HETATM   33  C   UNL     1     -24.629  -3.718 -10.225  1.00  0.00     0.210 C 
ENDBRANCH  28  32
BRANCH  29  34
HETATM   34  O   UNL     1     -21.249  -3.677 -12.067  1.00  0.00    -0.358 OA
HETATM   35  H   UNL     1     -21.956  -4.190 -12.486  1.00  0.00     0.217 HD
ENDBRANCH  29  34
ENDBRANCH  25  26
ENDBRANCH  23  25
ENDBRANCH  22  23
ENDBRANCH  21  22
ENDBRANCH   1  21
BRANCH  19  36
HETATM   36  O   UNL     1     -19.275 -10.844  -1.655  1.00  0.00    -0.381 OA
HETATM   37  H   UNL     1     -18.696 -11.304  -0.999  1.00  0.00     0.211 HD
ENDBRANCH  19  36
BRANCH  12  38
HETATM   38  O   UNL     1     -18.712 -12.970  -3.220  1.00  0.00    -0.387 OA
HETATM   39  H   UNL     1     -18.283 -13.352  -2.435  1.00  0.00     0.210 HD
ENDBRANCH  12  38
BRANCH   8  40
HETATM   40  O   UNL     1     -16.263 -14.966  -7.076  1.00  0.00    -0.306 OA
BRANCH  40  41
HETATM   41  C   UNL     1     -16.126 -16.325  -6.841  1.00  0.00     0.255 C 
HETATM   42  C   UNL     1     -14.834 -16.713  -6.163  1.00  0.00     0.126 C 
HETATM   43  O   UNL     1     -16.988 -17.170  -7.053  1.00  0.00    -0.266 OA
ENDBRANCH  40  41
ENDBRANCH   8  40
BRANCH   9  44
HETATM   44  O   UNL     1     -19.225 -14.278  -4.995  1.00  0.00    -0.312 OA
BRANCH  44  45
HETATM   45  C   UNL     1     -20.072 -15.241  -4.589  1.00  0.00     0.263 C 
HETATM   46  O   UNL     1     -19.739 -16.300  -4.054  1.00  0.00    -0.265 OA
BRANCH  45  47
HETATM   47  C   UNL     1     -21.496 -14.909  -5.016  1.00  0.00     0.149 C 
BRANCH  47  48
HETATM   48  C   UNL     1     -22.017 -13.735  -4.245  1.00  0.00    -0.049 A 
HETATM   49  C   UNL     1     -22.334 -12.549  -4.917  1.00  0.00     0.007 A 
HETATM   50  C   UNL     1     -22.665 -11.408  -4.191  1.00  0.00     0.001 A 
HETATM   51  C   UNL     1     -22.688 -11.452  -2.793  1.00  0.00     0.000 A 
HETATM   52  C   UNL     1     -22.403 -12.639  -2.124  1.00  0.00     0.001 A 
HETATM   53  C   UNL     1     -22.074 -13.783  -2.846  1.00  0.00     0.007 A 
ENDBRANCH  47  48
ENDBRANCH  45  47
ENDBRANCH  44  45
ENDBRANCH   9  44
TORSDOF 15
BEGIN_RES ARG D 557
REMARK  4 active torsions:
REMARK  status: ('A' for Active; 'I' for Inactive)
REMARK    1  A    between atoms: CA   and  CB  
REMARK    2  A    between atoms: CB   and  CG  
REMARK    3  A    between atoms: CG   and  CD  
REMARK    4  A    between atoms: CD   and  NE  
REMARK       I    between atoms: NE   and  CZ  
REMARK       I    between atoms: CZ   and  NH1 
REMARK       I    between atoms: CZ   and  NH2 
ROOT
ATOM      1  CA  ARG D 557     -26.217   2.705 -17.014  1.00 35.49     0.159 C 
ENDROOT
BRANCH   1   2
ATOM      2  CB  ARG D 557     -26.789   1.319 -17.183  1.00 35.49     0.034 C 
BRANCH   2   3
ATOM      3  CG  ARG D 557     -28.150   1.100 -16.679  1.00 35.49     0.027 C 
BRANCH   3   4
ATOM      4  CD  ARG D 557     -28.791  -0.090 -17.284  1.00 35.49     0.116 C 
BRANCH   4   5
ATOM      5  NE  ARG D 557     -28.176  -1.316 -16.852  1.00 35.49    -0.212 N 
ATOM      6  CZ  ARG D 557     -28.649  -2.526 -17.052  1.00 35.49     0.666 C 
ATOM      7  NH1 ARG D 557     -29.788  -2.746 -17.682  1.00 35.49    -0.235 N 
ATOM      8  NH2 ARG D 557     -27.946  -3.527 -16.608  1.00 35.49    -0.235 N 
ATOM      9  HH  ARG D 557     -30.266  -2.102 -17.984  1.00 35.49     0.174 HD
ATOM     10  HH  ARG D 557     -30.046  -3.557 -17.785  1.00 35.49     0.174 HD
ATOM     11  HH  ARG D 557     -27.211  -3.355 -16.212  1.00 35.49     0.174 HD
ATOM     12  HH  ARG D 557     -28.217  -4.322 -16.722  1.00 35.49     0.174 HD
ATOM     13  HE  ARG D 557     -27.474  -1.264 -16.374  1.00 35.49     0.178 HD
ENDBRANCH   4   5
ENDBRANCH   3   4
ENDBRANCH   2   3
ENDBRANCH   1   2
END_RES ARG D 557
BEGIN_RES GLU D 570
REMARK  3 active torsions:
REMARK  status: ('A' for Active; 'I' for Inactive)
REMARK    5  A    between atoms: CA   and  CB  
REMARK    6  A    between atoms: CB   and  CG  
REMARK    7  A    between atoms: CG   and  CD  
ROOT
ATOM     14  CA  GLU D 570     -18.033  -6.348 -13.375  1.00 32.92     0.160 C 
ENDROOT
BRANCH  14  15
ATOM     15  CB  GLU D 570     -19.500  -6.345 -13.794  1.00 32.92     0.043 C 
BRANCH  15  16
ATOM     16  CG  GLU D 570     -19.811  -5.961 -15.195  1.00 32.92     0.100 C 
BRANCH  16  17
ATOM     17  CD  GLU D 570     -21.234  -5.488 -15.375  1.00 32.92     0.185 C 
ATOM     18  OE1 GLU D 570     -21.743  -5.516 -16.512  1.00 32.92    -0.647 OA
ATOM     19  OE2 GLU D 570     -21.842  -5.068 -14.370  1.00 32.92    -0.647 OA
ENDBRANCH  16  17
ENDBRANCH  15  16
ENDBRANCH  14  15
END_RES GLU D 570
ENDMDL
MODEL 8
REMARK VINA RESULT:      -8.4      2.698      5.728
REMARK  15 active torsions:
REMARK  status: ('A' for Active; 'I' for Inactive)
REMARK    1  A    between atoms: O_2  and  C_3 
REMARK    2  A    between atoms: C_5  and  C_6 
REMARK    3  A    between atoms: C_6  and  C_7 
REMARK    4  A    between atoms: C_7  and  O_9 
REMARK    5  A    between atoms: O_9  and  C_10 
REMARK    6  A    between atoms: C_10  and  C_11 
REMARK    7  A    between atoms: C_18  and  O_19 
REMARK    8  A    between atoms: O_19  and  C_20 
REMARK    9  A    between atoms: C_23  and  O_24 
REMARK   10  A    between atoms: O_24  and  C_25 
REMARK   11  A    between atoms: C_25  and  C_27 
REMARK   12  A    between atoms: C_27  and  C_28 
REMARK   13  A    between atoms: C_36  and  O_37 
REMARK   14  A    between atoms: C_44  and  O_45 
REMARK   15  A    between atoms: C_49  and  O_50 
ROOT
HETATM    1  C   UNL     1     -20.667  -8.889  -4.948  1.00  0.00    -0.050 C 
HETATM    2  C   UNL     1     -19.235  -9.318  -4.934  1.00  0.00    -0.013 C 
HETATM    3  C   UNL     1     -18.379 -10.783  -4.055  1.00  0.00     0.052 C 
HETATM    4  C   UNL     1     -16.674 -11.017  -4.047  1.00  0.00     0.046 A 
HETATM    5  C   UNL     1     -15.792 -11.739  -5.066  1.00  0.00    -0.005 A 
HETATM    6  C   UNL     1     -16.409 -11.720  -6.436  1.00  0.00     0.018 C 
HETATM    7  C   UNL     1     -14.279 -11.609  -5.170  1.00  0.00     0.018 C 
HETATM    8  C   UNL     1     -16.183 -12.475  -3.752  1.00  0.00     0.110 A 
HETATM    9  C   UNL     1     -17.295 -13.437  -3.512  1.00  0.00     0.174 C 
HETATM   10  C   UNL     1     -18.164 -12.852  -2.280  1.00  0.00     0.050 C 
HETATM   11  C   UNL     1     -17.509 -11.975  -1.194  1.00  0.00     0.016 C 
HETATM   12  C   UNL     1     -19.271 -12.105  -2.972  1.00  0.00     0.086 C 
HETATM   13  C   UNL     1     -20.748 -11.547  -2.046  1.00  0.00     0.131 A 
HETATM   14  C   UNL     1     -20.506 -10.285  -1.341  1.00  0.00    -0.000 C 
HETATM   15  C   UNL     1     -20.112  -9.547  -2.359  1.00  0.00    -0.029 C 
HETATM   16  C   UNL     1     -19.135  -8.411  -2.146  1.00  0.00     0.051 C 
HETATM   17  C   UNL     1     -20.751 -10.626  -3.558  1.00  0.00     0.099 A 
HETATM   18  O   UNL     1     -20.469 -11.195  -4.637  1.00  0.00    -0.304 OA
HETATM   19  C   UNL     1     -21.971 -11.070  -3.077  1.00  0.00     0.134 A 
HETATM   20  C   UNL     1     -22.117  -9.792  -4.227  1.00  0.00     0.141 A 
ENDROOT
BRANCH   1  21
HETATM   21  C   UNL     1     -21.472  -7.669  -5.403  1.00  0.00     0.213 C 
BRANCH  21  22
HETATM   22  O   UNL     1     -21.048  -6.895  -6.499  1.00  0.00    -0.317 OA
BRANCH  22  23
HETATM   23  C   UNL     1     -21.557  -5.632  -6.519  1.00  0.00     0.263 C 
HETATM   24  O   UNL     1     -22.644  -5.327  -6.045  1.00  0.00    -0.265 OA
BRANCH  23  25
HETATM   25  C   UNL     1     -20.725  -4.611  -7.298  1.00  0.00     0.149 C 
BRANCH  25  26
HETATM   26  C   UNL     1     -21.041  -4.380  -8.758  1.00  0.00    -0.046 C 
HETATM   27  C   UNL     1     -22.340  -4.090  -9.168  1.00  0.00     0.047 C 
HETATM   28  C   UNL     1     -22.623  -3.638 -10.451  1.00  0.00     0.101 C 
HETATM   29  C   UNL     1     -21.625  -3.708 -11.419  1.00  0.00     0.099 C 
HETATM   30  C   UNL     1     -20.346  -4.157 -11.080  1.00  0.00     0.040 C 
HETATM   31  C   UNL     1     -20.044  -4.458  -9.747  1.00  0.00     0.010 C 
BRANCH  28  32
HETATM   32  O   UNL     1     -23.848  -3.117 -10.779  1.00  0.00    -0.353 OA
HETATM   33  C   UNL     1     -24.847  -3.310  -9.779  1.00  0.00     0.210 C 
ENDBRANCH  28  32
BRANCH  29  34
HETATM   34  O   UNL     1     -21.910  -3.321 -12.697  1.00  0.00    -0.358 OA
HETATM   35  H   UNL     1     -22.117  -4.105 -13.227  1.00  0.00     0.217 HD
ENDBRANCH  29  34
ENDBRANCH  25  26
ENDBRANCH  23  25
ENDBRANCH  22  23
ENDBRANCH  21  22
ENDBRANCH   1  21
BRANCH  19  36
HETATM   36  O   UNL     1     -22.502 -12.248  -3.655  1.00  0.00    -0.381 OA
HETATM   37  H   UNL     1     -23.461 -12.043  -3.782  1.00  0.00     0.211 HD
ENDBRANCH  19  36
BRANCH  12  38
HETATM   38  O   UNL     1     -19.982 -13.216  -3.666  1.00  0.00    -0.387 OA
HETATM   39  H   UNL     1     -20.818 -13.385  -3.197  1.00  0.00     0.210 HD
ENDBRANCH  12  38
BRANCH   8  40
HETATM   40  O   UNL     1     -15.128 -12.633  -2.688  1.00  0.00    -0.306 OA
BRANCH  40  41
HETATM   41  C   UNL     1     -14.573 -13.886  -2.487  1.00  0.00     0.255 C 
HETATM   42  C   UNL     1     -14.638 -14.375  -1.060  1.00  0.00     0.126 C 
HETATM   43  O   UNL     1     -14.143 -14.620  -3.370  1.00  0.00    -0.266 OA
ENDBRANCH  40  41
ENDBRANCH   8  40
BRANCH   9  44
HETATM   44  O   UNL     1     -18.030 -13.566  -4.758  1.00  0.00    -0.312 OA
BRANCH  44  45
HETATM   45  C   UNL     1     -18.246 -14.763  -5.335  1.00  0.00     0.263 C 
HETATM   46  O   UNL     1     -19.217 -15.490  -5.120  1.00  0.00    -0.265 OA
BRANCH  45  47
HETATM   47  C   UNL     1     -17.046 -15.166  -6.184  1.00  0.00     0.149 C 
BRANCH  47  48
HETATM   48  C   UNL     1     -17.463 -15.409  -7.602  1.00  0.00    -0.049 A 
HETATM   49  C   UNL     1     -17.050 -16.574  -8.258  1.00  0.00     0.007 A 
HETATM   50  C   UNL     1     -17.300 -16.730  -9.618  1.00  0.00     0.001 A 
HETATM   51  C   UNL     1     -17.969 -15.726 -10.325  1.00  0.00     0.000 A 
HETATM   52  C   UNL     1     -18.408 -14.579  -9.669  1.00  0.00     0.001 A 
HETATM   53  C   UNL     1     -18.163 -14.420  -8.308  1.00  0.00     0.007 A 
ENDBRANCH  47  48
ENDBRANCH  45  47
ENDBRANCH  44  45
ENDBRANCH   9  44
TORSDOF 15
BEGIN_RES ARG D 557
REMARK  4 active torsions:
REMARK  status: ('A' for Active; 'I' for Inactive)
REMARK    1  A    between atoms: CA   and  CB  
REMARK    2  A    between atoms: CB   and  CG  
REMARK    3  A    between atoms: CG   and  CD  
REMARK    4  A    between atoms: CD   and  NE  
REMARK       I    between atoms: NE   and  CZ  
REMARK       I    between atoms: CZ   and  NH1 
REMARK       I    between atoms: CZ   and  NH2 
ROOT
ATOM      1  CA  ARG D 557     -26.217   2.705 -17.014  1.00 35.49     0.159 C 
ENDROOT
BRANCH   1   2
ATOM      2  CB  ARG D 557     -26.789   1.319 -17.183  1.00 35.49     0.034 C 
BRANCH   2   3
ATOM      3  CG  ARG D 557     -26.878   0.489 -15.975  1.00 35.49     0.027 C 
BRANCH   3   4
ATOM      4  CD  ARG D 557     -26.603  -0.939 -16.251  1.00 35.49     0.116 C 
BRANCH   4   5
ATOM      5  NE  ARG D 557     -25.972  -1.595 -15.135  1.00 35.49    -0.212 N 
ATOM      6  CZ  ARG D 557     -24.761  -1.351 -14.685  1.00 35.49     0.666 C 
ATOM      7  NH1 ARG D 557     -23.965  -0.456 -15.241  1.00 35.49    -0.235 N 
ATOM      8  NH2 ARG D 557     -24.359  -2.027 -13.648  1.00 35.49    -0.235 N 
ATOM      9  HH  ARG D 557     -24.210   0.001 -15.923  1.00 35.49     0.174 HD
ATOM     10  HH  ARG D 557     -23.187  -0.338 -14.902  1.00 35.49     0.174 HD
ATOM     11  HH  ARG D 557     -24.898  -2.592 -13.306  1.00 35.49     0.174 HD
ATOM     12  HH  ARG D 557     -23.586  -1.894 -13.327  1.00 35.49     0.174 HD
ATOM     13  HE  ARG D 557     -26.387  -2.237 -14.763  1.00 35.49     0.178 HD
ENDBRANCH   4   5
ENDBRANCH   3   4
ENDBRANCH   2   3
ENDBRANCH   1   2
END_RES ARG D 557
BEGIN_RES GLU D 570
REMARK  3 active torsions:
REMARK  status: ('A' for Active; 'I' for Inactive)
REMARK    5  A    between atoms: CA   and  CB  
REMARK    6  A    between atoms: CB   and  CG  
REMARK    7  A    between atoms: CG   and  CD  
ROOT
ATOM     14  CA  GLU D 570     -18.033  -6.348 -13.375  1.00 32.92     0.160 C 
ENDROOT
BRANCH  14  15
ATOM     15  CB  GLU D 570     -19.500  -6.345 -13.794  1.00 32.92     0.043 C 
BRANCH  15  16
ATOM     16  CG  GLU D 570     -19.812  -5.950 -15.192  1.00 32.92     0.100 C 
BRANCH  16  17
ATOM     17  CD  GLU D 570     -21.244  -5.505 -15.373  1.00 32.92     0.185 C 
ATOM     18  OE1 GLU D 570     -22.042  -5.630 -14.424  1.00 32.92    -0.647 OA
ATOM     19  OE2 GLU D 570     -21.576  -5.040 -16.482  1.00 32.92    -0.647 OA
ENDBRANCH  16  17
ENDBRANCH  15  16
ENDBRANCH  14  15
END_RES GLU D 570
ENDMDL
MODEL 9
REMARK VINA RESULT:      -8.2      2.154      4.279
REMARK  15 active torsions:
REMARK  status: ('A' for Active; 'I' for Inactive)
REMARK    1  A    between atoms: O_2  and  C_3 
REMARK    2  A    between atoms: C_5  and  C_6 
REMARK    3  A    between atoms: C_6  and  C_7 
REMARK    4  A    between atoms: C_7  and  O_9 
REMARK    5  A    between atoms: O_9  and  C_10 
REMARK    6  A    between atoms: C_10  and  C_11 
REMARK    7  A    between atoms: C_18  and  O_19 
REMARK    8  A    between atoms: O_19  and  C_20 
REMARK    9  A    between atoms: C_23  and  O_24 
REMARK   10  A    between atoms: O_24  and  C_25 
REMARK   11  A    between atoms: C_25  and  C_27 
REMARK   12  A    between atoms: C_27  and  C_28 
REMARK   13  A    between atoms: C_36  and  O_37 
REMARK   14  A    between atoms: C_44  and  O_45 
REMARK   15  A    between atoms: C_49  and  O_50 
ROOT
HETATM    1  C   UNL     1     -21.733  -8.166  -4.300  1.00  0.00    -0.050 C 
HETATM    2  C   UNL     1     -21.519  -9.409  -5.102  1.00  0.00    -0.013 C 
HETATM    3  C   UNL     1     -20.756 -11.092  -4.618  1.00  0.00     0.052 C 
HETATM    4  C   UNL     1     -20.461 -12.359  -5.745  1.00  0.00     0.046 A 
HETATM    5  C   UNL     1     -21.402 -13.466  -6.222  1.00  0.00    -0.005 A 
HETATM    6  C   UNL     1     -22.841 -13.045  -6.126  1.00  0.00     0.018 C 
HETATM    7  C   UNL     1     -21.190 -14.329  -7.459  1.00  0.00     0.018 C 
HETATM    8  C   UNL     1     -20.333 -13.799  -5.141  1.00  0.00     0.110 A 
HETATM    9  C   UNL     1     -20.479 -13.834  -3.659  1.00  0.00     0.174 C 
HETATM   10  C   UNL     1     -19.355 -12.843  -3.053  1.00  0.00     0.050 C 
HETATM   11  C   UNL     1     -18.029 -12.596  -3.801  1.00  0.00     0.016 C 
HETATM   12  C   UNL     1     -20.107 -11.555  -2.861  1.00  0.00     0.086 C 
HETATM   13  C   UNL     1     -19.400 -10.194  -1.863  1.00  0.00     0.131 A 
HETATM   14  C   UNL     1     -18.455  -9.383  -2.636  1.00  0.00    -0.000 C 
HETATM   15  C   UNL     1     -19.237  -9.055  -3.646  1.00  0.00    -0.029 C 
HETATM   16  C   UNL     1     -18.649  -8.803  -5.017  1.00  0.00     0.051 C 
HETATM   17  C   UNL     1     -20.704  -9.466  -2.815  1.00  0.00     0.099 A 
HETATM   18  O   UNL     1     -21.790 -10.073  -2.953  1.00  0.00    -0.304 OA
HETATM   19  C   UNL     1     -20.548  -9.036  -1.508  1.00  0.00     0.134 A 
HETATM   20  C   UNL     1     -21.468  -7.946  -2.478  1.00  0.00     0.141 A 
ENDROOT
BRANCH   1  21
HETATM   21  C   UNL     1     -22.117  -6.709  -4.564  1.00  0.00     0.213 C 
BRANCH  21  22
HETATM   22  O   UNL     1     -21.174  -5.676  -4.412  1.00  0.00    -0.317 OA
BRANCH  22  23
HETATM   23  C   UNL     1     -20.505  -5.358  -5.554  1.00  0.00     0.263 C 
HETATM   24  O   UNL     1     -19.628  -4.506  -5.617  1.00  0.00    -0.265 OA
BRANCH  23  25
HETATM   25  C   UNL     1     -21.009  -6.061  -6.816  1.00  0.00     0.149 C 
BRANCH  25  26
HETATM   26  C   UNL     1     -21.237  -5.238  -8.063  1.00  0.00    -0.046 C 
HETATM   27  C   UNL     1     -22.491  -4.699  -8.342  1.00  0.00     0.047 C 
HETATM   28  C   UNL     1     -22.679  -3.749  -9.338  1.00  0.00     0.101 C 
HETATM   29  C   UNL     1     -21.642  -3.510 -10.237  1.00  0.00     0.099 C 
HETATM   30  C   UNL     1     -20.416  -4.164 -10.088  1.00  0.00     0.040 C 
HETATM   31  C   UNL     1     -20.202  -4.998  -8.985  1.00  0.00     0.010 C 
BRANCH  28  32
HETATM   32  O   UNL     1     -23.846  -3.038  -9.447  1.00  0.00    -0.353 OA
HETATM   33  C   UNL     1     -24.912  -3.765 -10.055  1.00  0.00     0.210 C 
ENDBRANCH  28  32
BRANCH  29  34
HETATM   34  O   UNL     1     -21.836  -2.620 -11.254  1.00  0.00    -0.358 OA
HETATM   35  H   UNL     1     -22.568  -2.929 -11.809  1.00  0.00     0.217 HD
ENDBRANCH  29  34
ENDBRANCH  25  26
ENDBRANCH  23  25
ENDBRANCH  22  23
ENDBRANCH  21  22
ENDBRANCH   1  21
BRANCH  19  36
HETATM   36  O   UNL     1     -21.411  -9.600  -0.537  1.00  0.00    -0.381 OA
HETATM   37  H   UNL     1     -22.163  -9.966  -1.066  1.00  0.00     0.211 HD
ENDBRANCH  19  36
BRANCH  12  38
HETATM   38  O   UNL     1     -21.105 -11.951  -1.828  1.00  0.00    -0.387 OA
HETATM   39  H   UNL     1     -21.420 -11.146  -1.381  1.00  0.00     0.210 HD
ENDBRANCH  12  38
BRANCH   8  40
HETATM   40  O   UNL     1     -19.129 -14.604  -5.559  1.00  0.00    -0.306 OA
BRANCH  40  41
HETATM   41  C   UNL     1     -18.975 -15.880  -5.042  1.00  0.00     0.255 C 
HETATM   42  C   UNL     1     -19.437 -16.985  -5.961  1.00  0.00     0.126 C 
HETATM   43  O   UNL     1     -18.427 -16.152  -3.980  1.00  0.00    -0.266 OA
ENDBRANCH  40  41
ENDBRANCH   8  40
BRANCH   9  44
HETATM   44  O   UNL     1     -21.846 -13.453  -3.351  1.00  0.00    -0.312 OA
BRANCH  44  45
HETATM   45  C   UNL     1     -22.678 -14.270  -2.680  1.00  0.00     0.263 C 
HETATM   46  O   UNL     1     -23.445 -13.920  -1.781  1.00  0.00    -0.265 OA
BRANCH  45  47
HETATM   47  C   UNL     1     -22.437 -15.720  -3.082  1.00  0.00     0.149 C 
BRANCH  47  48
HETATM   48  C   UNL     1     -23.342 -16.110  -4.211  1.00  0.00    -0.049 A 
HETATM   49  C   UNL     1     -22.819 -16.790  -5.317  1.00  0.00     0.007 A 
HETATM   50  C   UNL     1     -23.618 -17.014  -6.434  1.00  0.00     0.001 A 
HETATM   51  C   UNL     1     -24.943 -16.566  -6.447  1.00  0.00     0.000 A 
HETATM   52  C   UNL     1     -25.474 -15.917  -5.335  1.00  0.00     0.001 A 
HETATM   53  C   UNL     1     -24.680 -15.693  -4.214  1.00  0.00     0.007 A 
ENDBRANCH  47  48
ENDBRANCH  45  47
ENDBRANCH  44  45
ENDBRANCH   9  44
TORSDOF 15
BEGIN_RES ARG D 557
REMARK  4 active torsions:
REMARK  status: ('A' for Active; 'I' for Inactive)
REMARK    1  A    between atoms: CA   and  CB  
REMARK    2  A    between atoms: CB   and  CG  
REMARK    3  A    between atoms: CG   and  CD  
REMARK    4  A    between atoms: CD   and  NE  
REMARK       I    between atoms: NE   and  CZ  
REMARK       I    between atoms: CZ   and  NH1 
REMARK       I    between atoms: CZ   and  NH2 
ROOT
ATOM      1  CA  ARG D 557     -26.217   2.705 -17.014  1.00 35.49     0.159 C 
ENDROOT
BRANCH   1   2
ATOM      2  CB  ARG D 557     -26.789   1.319 -17.183  1.00 35.49     0.034 C 
BRANCH   2   3
ATOM      3  CG  ARG D 557     -25.857   0.196 -17.028  1.00 35.49     0.027 C 
BRANCH   3   4
ATOM      4  CD  ARG D 557     -26.274  -0.740 -15.959  1.00 35.49     0.116 C 
BRANCH   4   5
ATOM      5  NE  ARG D 557     -25.247  -0.925 -14.968  1.00 35.49    -0.212 N 
ATOM      6  CZ  ARG D 557     -25.071  -2.002 -14.236  1.00 35.49     0.666 C 
ATOM      7  NH1 ARG D 557     -25.856  -3.059 -14.329  1.00 35.49    -0.235 N 
ATOM      8  NH2 ARG D 557     -24.073  -2.003 -13.400  1.00 35.49    -0.235 N 
ATOM      9  HH  ARG D 557     -26.517  -3.081 -14.874  1.00 35.49     0.174 HD
ATOM     10  HH  ARG D 557     -25.691  -3.734 -13.828  1.00 35.49     0.174 HD
ATOM     11  HH  ARG D 557     -23.578  -1.309 -13.367  1.00 35.49     0.174 HD
ATOM     12  HH  ARG D 557     -23.925  -2.682 -12.913  1.00 35.49     0.174 HD
ATOM     13  HE  ARG D 557     -24.740  -0.265 -14.791  1.00 35.49     0.178 HD
ENDBRANCH   4   5
ENDBRANCH   3   4
ENDBRANCH   2   3
ENDBRANCH   1   2
END_RES ARG D 557
BEGIN_RES GLU D 570
REMARK  3 active torsions:
REMARK  status: ('A' for Active; 'I' for Inactive)
REMARK    5  A    between atoms: CA   and  CB  
REMARK    6  A    between atoms: CB   and  CG  
REMARK    7  A    between atoms: CG   and  CD  
ROOT
ATOM     14  CA  GLU D 570     -18.033  -6.348 -13.375  1.00 32.92     0.160 C 
ENDROOT
BRANCH  14  15
ATOM     15  CB  GLU D 570     -19.500  -6.345 -13.794  1.00 32.92     0.043 C 
BRANCH  15  16
ATOM     16  CG  GLU D 570     -20.427  -5.465 -13.036  1.00 32.92     0.100 C 
BRANCH  16  17
ATOM     17  CD  GLU D 570     -21.748  -5.257 -13.738  1.00 32.92     0.185 C 
ATOM     18  OE1 GLU D 570     -22.235  -6.193 -14.401  1.00 32.92    -0.647 OA
ATOM     19  OE2 GLU D 570     -22.294  -4.141 -13.638  1.00 32.92    -0.647 OA
ENDBRANCH  16  17
ENDBRANCH  15  16
ENDBRANCH  14  15
END_RES GLU D 570
ENDMDL
