MODEL 1
REMARK VINA RESULT:      -9.7      0.000      0.000
REMARK  19 active torsions:
REMARK  status: ('A' for Active; 'I' for Inactive)
REMARK    1  A    between atoms: C_2  and  C_3 
REMARK    2  A    between atoms: C_3  and  C_4 
REMARK    3  A    between atoms: C_4  and  C_5 
REMARK    4  A    between atoms: C_5  and  C_6 
REMARK    5  A    between atoms: C_7  and  C_8 
REMARK    6  A    between atoms: C_8  and  C_9 
REMARK    7  A    between atoms: C_10  and  C_11 
REMARK    8  A    between atoms: C_11  and  C_12 
REMARK    9  A    between atoms: C_13  and  C_14 
REMARK   10  A    between atoms: C_14  and  C_15 
REMARK   11  A    between atoms: C_16  and  C_17 
REMARK   12  A    between atoms: C_17  and  C_18 
REMARK   13  A    between atoms: C_18  and  C_19 
REMARK   14  A    between atoms: C_19  and  C_20 
REMARK       I    between atoms: C_20  and  N_22 
REMARK   15  A    between atoms: N_22  and  C_23 
REMARK   16  A    between atoms: C_23  and  C_24 
REMARK   17  A    between atoms: C_24  and  C_25 
REMARK   18  A    between atoms: C_28  and  O_29 
REMARK   19  A    between atoms: C_30  and  O_31 
ROOT
HETATM    1  C   UNL     1     -23.465  -5.152 -12.770  1.00  0.00     0.013 C 
ENDROOT
BRANCH   1   2
HETATM    2  C   UNL     1     -22.136  -4.460 -12.455  1.00  0.00     0.027 C 
BRANCH   2   3
HETATM    3  C   UNL     1     -22.177  -3.731 -11.144  1.00  0.00    -0.030 C 
HETATM    4  C   UNL     1     -22.860  -4.166 -10.074  1.00  0.00    -0.027 C 
BRANCH   4   5
HETATM    5  C   UNL     1     -22.864  -3.457  -8.754  1.00  0.00     0.053 C 
BRANCH   5   6
HETATM    6  C   UNL     1     -22.119  -4.244  -7.718  1.00  0.00    -0.027 C 
HETATM    7  C   UNL     1     -20.909  -3.892  -7.252  1.00  0.00    -0.027 C 
BRANCH   7   8
HETATM    8  C   UNL     1     -20.147  -4.680  -6.232  1.00  0.00     0.053 C 
BRANCH   8   9
HETATM    9  C   UNL     1     -20.960  -5.834  -5.731  1.00  0.00    -0.027 C 
HETATM   10  C   UNL     1     -20.426  -6.921  -5.154  1.00  0.00    -0.027 C 
BRANCH  10  11
HETATM   11  C   UNL     1     -21.238  -8.079  -4.664  1.00  0.00     0.053 C 
BRANCH  11  12
HETATM   12  C   UNL     1     -21.510  -7.949  -3.196  1.00  0.00    -0.027 C 
HETATM   13  C   UNL     1     -21.892  -6.796  -2.629  1.00  0.00    -0.030 C 
BRANCH  13  14
HETATM   14  C   UNL     1     -22.177  -6.630  -1.167  1.00  0.00     0.027 C 
BRANCH  14  15
HETATM   15  C   UNL     1     -21.746  -7.867  -0.393  1.00  0.00     0.004 C 
BRANCH  15  16
HETATM   16  C   UNL     1     -22.971  -8.630   0.097  1.00  0.00    -0.000 C 
BRANCH  16  17
HETATM   17  C   UNL     1     -22.735 -10.133   0.032  1.00  0.00    -0.005 C 
HETATM   18  C   UNL     1     -24.055 -10.876  -0.051  1.00  0.00     0.005 C 
ENDBRANCH  16  17
ENDBRANCH  15  16
ENDBRANCH  14  15
ENDBRANCH  13  14
ENDBRANCH  11  12
ENDBRANCH  10  11
ENDBRANCH   8   9
ENDBRANCH   7   8
ENDBRANCH   5   6
ENDBRANCH   4   5
ENDBRANCH   2   3
ENDBRANCH   1   2
BRANCH   1  19
HETATM   19  C   UNL     1     -23.414  -5.940 -14.079  1.00  0.00     0.103 C 
BRANCH  19  20
HETATM   20  C   UNL     1     -24.592  -5.605 -14.965  1.00  0.00     0.217 C 
HETATM   21  O   UNL     1     -25.064  -4.476 -15.011  1.00  0.00    -0.274 OA
HETATM   22  N   UNL     1     -25.100  -6.666 -15.685  1.00  0.00    -0.361 N 
HETATM   23  H   UNL     1     -24.676  -7.582 -15.603  1.00  0.00     0.162 HD
BRANCH  22  24
HETATM   24  C   UNL     1     -26.233  -6.460 -16.570  1.00  0.00     0.127 C 
BRANCH  24  25
HETATM   25  C   UNL     1     -27.582  -6.570 -15.860  1.00  0.00     0.058 C 
BRANCH  25  26
HETATM   26  C   UNL     1     -28.597  -5.610 -16.434  1.00  0.00    -0.054 A 
HETATM   27  C   UNL     1     -28.200  -4.390 -17.008  1.00  0.00     0.010 A 
HETATM   28  C   UNL     1     -29.149  -3.494 -17.519  1.00  0.00     0.040 A 
HETATM   29  C   UNL     1     -30.499  -3.821 -17.452  1.00  0.00     0.098 A 
HETATM   30  C   UNL     1     -30.897  -5.029 -16.881  1.00  0.00     0.099 A 
HETATM   31  C   UNL     1     -29.964  -5.917 -16.370  1.00  0.00     0.046 A 
BRANCH  29  32
HETATM   32  O   UNL     1     -31.470  -2.986 -17.929  1.00  0.00    -0.358 OA
HETATM   33  H   UNL     1     -31.662  -3.236 -18.850  1.00  0.00     0.217 HD
ENDBRANCH  29  32
BRANCH  30  34
HETATM   34  O   UNL     1     -32.220  -5.358 -16.814  1.00  0.00    -0.358 OA
HETATM   35  H   UNL     1     -32.577  -5.148 -17.698  1.00  0.00     0.217 HD
ENDBRANCH  30  34
ENDBRANCH  25  26
ENDBRANCH  24  25
ENDBRANCH  22  24
ENDBRANCH  19  20
ENDBRANCH   1  19
TORSDOF 19
BEGIN_RES ARG D 557
REMARK  4 active torsions:
REMARK  status: ('A' for Active; 'I' for Inactive)
REMARK    1  A    between atoms: CA   and  CB  
REMARK    2  A    between atoms: CB   and  CG  
REMARK    3  A    between atoms: CG   and  CD  
REMARK    4  A    between atoms: CD   and  NE  
REMARK       I    between atoms: NE   and  CZ  
REMARK       I    between atoms: CZ   and  NH1 
REMARK       I    between atoms: CZ   and  NH2 
ROOT
ATOM      1  CA  ARG D 557     -26.217   2.705 -17.014  1.00 35.49     0.159 C 
ENDROOT
BRANCH   1   2
ATOM      2  CB  ARG D 557     -26.789   1.319 -17.183  1.00 35.49     0.034 C 
BRANCH   2   3
ATOM      3  CG  ARG D 557     -25.834   0.204 -17.173  1.00 35.49     0.027 C 
BRANCH   3   4
ATOM      4  CD  ARG D 557     -24.730   0.416 -16.209  1.00 35.49     0.116 C 
BRANCH   4   5
ATOM      5  NE  ARG D 557     -24.892  -0.374 -15.016  1.00 35.49    -0.212 N 
ATOM      6  CZ  ARG D 557     -24.140  -1.391 -14.660  1.00 35.49     0.666 C 
ATOM      7  NH1 ARG D 557     -23.129  -1.817 -15.395  1.00 35.49    -0.235 N 
ATOM      8  NH2 ARG D 557     -24.420  -1.979 -13.534  1.00 35.49    -0.235 N 
ATOM      9  HH  ARG D 557     -22.926  -1.443 -16.139  1.00 35.49     0.174 HD
ATOM     10  HH  ARG D 557     -22.672  -2.483 -15.111  1.00 35.49     0.174 HD
ATOM     11  HH  ARG D 557     -25.074  -1.678 -13.076  1.00 35.49     0.174 HD
ATOM     12  HH  ARG D 557     -23.954  -2.636 -13.269  1.00 35.49     0.174 HD
ATOM     13  HE  ARG D 557     -25.565  -0.215 -14.520  1.00 35.49     0.178 HD
ENDBRANCH   4   5
ENDBRANCH   3   4
ENDBRANCH   2   3
ENDBRANCH   1   2
END_RES ARG D 557
BEGIN_RES GLU D 570
REMARK  3 active torsions:
REMARK  status: ('A' for Active; 'I' for Inactive)
REMARK    5  A    between atoms: CA   and  CB  
REMARK    6  A    between atoms: CB   and  CG  
REMARK    7  A    between atoms: CG   and  CD  
ROOT
ATOM     14  CA  GLU D 570     -18.033  -6.348 -13.375  1.00 32.92     0.160 C 
ENDROOT
BRANCH  14  15
ATOM     15  CB  GLU D 570     -19.500  -6.345 -13.794  1.00 32.92     0.043 C 
BRANCH  15  16
ATOM     16  CG  GLU D 570     -19.840  -5.708 -15.093  1.00 32.92     0.100 C 
BRANCH  16  17
ATOM     17  CD  GLU D 570     -20.528  -6.653 -16.050  1.00 32.92     0.185 C 
ATOM     18  OE1 GLU D 570     -20.930  -6.217 -17.146  1.00 32.92    -0.647 OA
ATOM     19  OE2 GLU D 570     -20.681  -7.837 -15.694  1.00 32.92    -0.647 OA
ENDBRANCH  16  17
ENDBRANCH  15  16
ENDBRANCH  14  15
END_RES GLU D 570
ENDMDL
MODEL 2
REMARK VINA RESULT:      -9.5      3.053      6.379
REMARK  19 active torsions:
REMARK  status: ('A' for Active; 'I' for Inactive)
REMARK    1  A    between atoms: C_2  and  C_3 
REMARK    2  A    between atoms: C_3  and  C_4 
REMARK    3  A    between atoms: C_4  and  C_5 
REMARK    4  A    between atoms: C_5  and  C_6 
REMARK    5  A    between atoms: C_7  and  C_8 
REMARK    6  A    between atoms: C_8  and  C_9 
REMARK    7  A    between atoms: C_10  and  C_11 
REMARK    8  A    between atoms: C_11  and  C_12 
REMARK    9  A    between atoms: C_13  and  C_14 
REMARK   10  A    between atoms: C_14  and  C_15 
REMARK   11  A    between atoms: C_16  and  C_17 
REMARK   12  A    between atoms: C_17  and  C_18 
REMARK   13  A    between atoms: C_18  and  C_19 
REMARK   14  A    between atoms: C_19  and  C_20 
REMARK       I    between atoms: C_20  and  N_22 
REMARK   15  A    between atoms: N_22  and  C_23 
REMARK   16  A    between atoms: C_23  and  C_24 
REMARK   17  A    between atoms: C_24  and  C_25 
REMARK   18  A    between atoms: C_28  and  O_29 
REMARK   19  A    between atoms: C_30  and  O_31 
ROOT
HETATM    1  C   UNL     1     -20.319  -5.586  -7.172  1.00  0.00     0.013 C 
ENDROOT
BRANCH   1   2
HETATM    2  C   UNL     1     -20.706  -6.721  -6.219  1.00  0.00     0.027 C 
BRANCH   2   3
HETATM    3  C   UNL     1     -20.843  -6.245  -4.803  1.00  0.00    -0.030 C 
HETATM    4  C   UNL     1     -21.870  -6.573  -4.004  1.00  0.00    -0.027 C 
BRANCH   4   5
HETATM    5  C   UNL     1     -21.980  -6.130  -2.577  1.00  0.00     0.053 C 
BRANCH   5   6
HETATM    6  C   UNL     1     -21.799  -7.285  -1.639  1.00  0.00    -0.027 C 
HETATM    7  C   UNL     1     -22.264  -7.294  -0.379  1.00  0.00    -0.027 C 
BRANCH   7   8
HETATM    8  C   UNL     1     -22.073  -8.433   0.573  1.00  0.00     0.053 C 
BRANCH   8   9
HETATM    9  C   UNL     1     -22.384  -9.740  -0.090  1.00  0.00    -0.027 C 
HETATM   10  C   UNL     1     -23.618 -10.261  -0.158  1.00  0.00    -0.027 C 
BRANCH  10  11
HETATM   11  C   UNL     1     -23.927 -11.572  -0.810  1.00  0.00     0.053 C 
BRANCH  11  12
HETATM   12  C   UNL     1     -22.990 -11.828  -1.951  1.00  0.00    -0.027 C 
HETATM   13  C   UNL     1     -23.005 -11.101  -3.077  1.00  0.00    -0.030 C 
BRANCH  13  14
HETATM   14  C   UNL     1     -22.080 -11.325  -4.237  1.00  0.00     0.027 C 
BRANCH  14  15
HETATM   15  C   UNL     1     -21.104 -10.166  -4.374  1.00  0.00     0.004 C 
BRANCH  15  16
HETATM   16  C   UNL     1     -20.240 -10.059  -3.123  1.00  0.00    -0.000 C 
BRANCH  16  17
HETATM   17  C   UNL     1     -18.994  -9.227  -3.395  1.00  0.00    -0.005 C 
HETATM   18  C   UNL     1     -18.563  -9.374  -4.843  1.00  0.00     0.005 C 
ENDBRANCH  16  17
ENDBRANCH  15  16
ENDBRANCH  14  15
ENDBRANCH  13  14
ENDBRANCH  11  12
ENDBRANCH  10  11
ENDBRANCH   8   9
ENDBRANCH   7   8
ENDBRANCH   5   6
ENDBRANCH   4   5
ENDBRANCH   2   3
ENDBRANCH   1   2
BRANCH   1  19
HETATM   19  C   UNL     1     -21.186  -4.343  -6.976  1.00  0.00     0.103 C 
BRANCH  19  20
HETATM   20  C   UNL     1     -21.886  -3.956  -8.259  1.00  0.00     0.217 C 
HETATM   21  O   UNL     1     -21.262  -3.670  -9.273  1.00  0.00    -0.274 OA
HETATM   22  N   UNL     1     -23.263  -3.927  -8.186  1.00  0.00    -0.361 N 
HETATM   23  H   UNL     1     -23.728  -4.165  -7.320  1.00  0.00     0.162 HD
BRANCH  22  24
HETATM   24  C   UNL     1     -24.039  -3.569  -9.361  1.00  0.00     0.127 C 
BRANCH  24  25
HETATM   25  C   UNL     1     -24.059  -4.662 -10.429  1.00  0.00     0.058 C 
BRANCH  25  26
HETATM   26  C   UNL     1     -23.710  -4.118 -11.794  1.00  0.00    -0.054 A 
HETATM   27  C   UNL     1     -22.677  -4.685 -12.560  1.00  0.00     0.010 A 
HETATM   28  C   UNL     1     -22.343  -4.162 -13.816  1.00  0.00     0.040 A 
HETATM   29  C   UNL     1     -23.045  -3.064 -14.304  1.00  0.00     0.098 A 
HETATM   30  C   UNL     1     -24.069  -2.497 -13.546  1.00  0.00     0.099 A 
HETATM   31  C   UNL     1     -24.400  -3.008 -12.301  1.00  0.00     0.046 A 
BRANCH  29  32
HETATM   32  O   UNL     1     -22.762  -2.507 -15.519  1.00  0.00    -0.358 OA
HETATM   33  H   UNL     1     -21.972  -2.946 -15.880  1.00  0.00     0.217 HD
ENDBRANCH  29  32
BRANCH  30  34
HETATM   34  O   UNL     1     -24.764  -1.422 -14.019  1.00  0.00    -0.358 OA
HETATM   35  H   UNL     1     -24.153  -0.981 -14.641  1.00  0.00     0.217 HD
ENDBRANCH  30  34
ENDBRANCH  25  26
ENDBRANCH  24  25
ENDBRANCH  22  24
ENDBRANCH  19  20
ENDBRANCH   1  19
TORSDOF 19
BEGIN_RES ARG D 557
REMARK  4 active torsions:
REMARK  status: ('A' for Active; 'I' for Inactive)
REMARK    1  A    between atoms: CA   and  CB  
REMARK    2  A    between atoms: CB   and  CG  
REMARK    3  A    between atoms: CG   and  CD  
REMARK    4  A    between atoms: CD   and  NE  
REMARK       I    between atoms: NE   and  CZ  
REMARK       I    between atoms: CZ   and  NH1 
REMARK       I    between atoms: CZ   and  NH2 
ROOT
ATOM      1  CA  ARG D 557     -26.217   2.705 -17.014  1.00 35.49     0.159 C 
ENDROOT
BRANCH   1   2
ATOM      2  CB  ARG D 557     -26.789   1.319 -17.183  1.00 35.49     0.034 C 
BRANCH   2   3
ATOM      3  CG  ARG D 557     -28.234   1.225 -17.421  1.00 35.49     0.027 C 
BRANCH   3   4
ATOM      4  CD  ARG D 557     -28.903   0.300 -16.478  1.00 35.49     0.116 C 
BRANCH   4   5
ATOM      5  NE  ARG D 557     -29.271  -0.942 -17.106  1.00 35.49    -0.212 N 
ATOM      6  CZ  ARG D 557     -28.617  -2.077 -17.005  1.00 35.49     0.666 C 
ATOM      7  NH1 ARG D 557     -27.506  -2.195 -16.301  1.00 35.49    -0.235 N 
ATOM      8  NH2 ARG D 557     -29.107  -3.110 -17.626  1.00 35.49    -0.235 N 
ATOM      9  HH  ARG D 557     -27.166  -1.529 -15.883  1.00 35.49     0.174 HD
ATOM     10  HH  ARG D 557     -27.124  -2.962 -16.269  1.00 35.49     0.174 HD
ATOM     11  HH  ARG D 557     -29.830  -3.006 -18.067  1.00 35.49     0.174 HD
ATOM     12  HH  ARG D 557     -28.715  -3.861 -17.581  1.00 35.49     0.174 HD
ATOM     13  HE  ARG D 557     -29.934  -0.939 -17.638  1.00 35.49     0.178 HD
ENDBRANCH   4   5
ENDBRANCH   3   4
ENDBRANCH   2   3
ENDBRANCH   1   2
END_RES ARG D 557
BEGIN_RES GLU D 570
REMARK  3 active torsions:
REMARK  status: ('A' for Active; 'I' for Inactive)
REMARK    5  A    between atoms: CA   and  CB  
REMARK    6  A    between atoms: CB   and  CG  
REMARK    7  A    between atoms: CG   and  CD  
ROOT
ATOM     14  CA  GLU D 570     -18.033  -6.348 -13.375  1.00 32.92     0.160 C 
ENDROOT
BRANCH  14  15
ATOM     15  CB  GLU D 570     -19.500  -6.345 -13.794  1.00 32.92     0.043 C 
BRANCH  15  16
ATOM     16  CG  GLU D 570     -19.807  -6.009 -15.208  1.00 32.92     0.100 C 
BRANCH  16  17
ATOM     17  CD  GLU D 570     -20.682  -7.040 -15.883  1.00 32.92     0.185 C 
ATOM     18  OE1 GLU D 570     -20.862  -8.139 -15.324  1.00 32.92    -0.647 OA
ATOM     19  OE2 GLU D 570     -21.178  -6.752 -16.989  1.00 32.92    -0.647 OA
ENDBRANCH  16  17
ENDBRANCH  15  16
ENDBRANCH  14  15
END_RES GLU D 570
ENDMDL
MODEL 3
REMARK VINA RESULT:      -9.3      3.191      7.862
REMARK  19 active torsions:
REMARK  status: ('A' for Active; 'I' for Inactive)
REMARK    1  A    between atoms: C_2  and  C_3 
REMARK    2  A    between atoms: C_3  and  C_4 
REMARK    3  A    between atoms: C_4  and  C_5 
REMARK    4  A    between atoms: C_5  and  C_6 
REMARK    5  A    between atoms: C_7  and  C_8 
REMARK    6  A    between atoms: C_8  and  C_9 
REMARK    7  A    between atoms: C_10  and  C_11 
REMARK    8  A    between atoms: C_11  and  C_12 
REMARK    9  A    between atoms: C_13  and  C_14 
REMARK   10  A    between atoms: C_14  and  C_15 
REMARK   11  A    between atoms: C_16  and  C_17 
REMARK   12  A    between atoms: C_17  and  C_18 
REMARK   13  A    between atoms: C_18  and  C_19 
REMARK   14  A    between atoms: C_19  and  C_20 
REMARK       I    between atoms: C_20  and  N_22 
REMARK   15  A    between atoms: N_22  and  C_23 
REMARK   16  A    between atoms: C_23  and  C_24 
REMARK   17  A    between atoms: C_24  and  C_25 
REMARK   18  A    between atoms: C_28  and  O_29 
REMARK   19  A    between atoms: C_30  and  O_31 
ROOT
HETATM    1  C   UNL     1     -21.935  -6.978  -4.096  1.00  0.00     0.013 C 
ENDROOT
BRANCH   1   2
HETATM    2  C   UNL     1     -21.910  -6.255  -2.746  1.00  0.00     0.027 C 
BRANCH   2   3
HETATM    3  C   UNL     1     -21.636  -7.195  -1.609  1.00  0.00    -0.030 C 
HETATM    4  C   UNL     1     -22.349  -7.212  -0.472  1.00  0.00    -0.027 C 
BRANCH   4   5
HETATM    5  C   UNL     1     -22.099  -8.181   0.643  1.00  0.00     0.053 C 
BRANCH   5   6
HETATM    6  C   UNL     1     -22.376  -9.588   0.206  1.00  0.00    -0.027 C 
HETATM    7  C   UNL     1     -23.588 -10.015  -0.186  1.00  0.00    -0.027 C 
BRANCH   7   8
HETATM    8  C   UNL     1     -23.881 -11.422  -0.608  1.00  0.00     0.053 C 
BRANCH   8   9
HETATM    9  C   UNL     1     -23.113 -11.780  -1.843  1.00  0.00    -0.027 C 
HETATM   10  C   UNL     1     -22.788 -10.892  -2.796  1.00  0.00    -0.027 C 
BRANCH  10  11
HETATM   11  C   UNL     1     -22.031 -11.251  -4.036  1.00  0.00     0.053 C 
BRANCH  11  12
HETATM   12  C   UNL     1     -20.662 -10.641  -4.014  1.00  0.00    -0.027 C 
HETATM   13  C   UNL     1     -20.097 -10.171  -2.893  1.00  0.00    -0.030 C 
BRANCH  13  14
HETATM   14  C   UNL     1     -18.730  -9.558  -2.832  1.00  0.00     0.027 C 
BRANCH  14  15
HETATM   15  C   UNL     1     -18.105  -9.504  -4.218  1.00  0.00     0.004 C 
BRANCH  15  16
HETATM   16  C   UNL     1     -16.617  -9.820  -4.133  1.00  0.00    -0.000 C 
BRANCH  16  17
HETATM   17  C   UNL     1     -16.180  -9.983  -2.683  1.00  0.00    -0.005 C 
HETATM   18  C   UNL     1     -15.468 -11.309  -2.488  1.00  0.00     0.005 C 
ENDBRANCH  16  17
ENDBRANCH  15  16
ENDBRANCH  14  15
ENDBRANCH  13  14
ENDBRANCH  11  12
ENDBRANCH  10  11
ENDBRANCH   8   9
ENDBRANCH   7   8
ENDBRANCH   5   6
ENDBRANCH   4   5
ENDBRANCH   2   3
ENDBRANCH   1   2
BRANCH   1  19
HETATM   19  C   UNL     1     -20.575  -6.955  -4.793  1.00  0.00     0.103 C 
BRANCH  19  20
HETATM   20  C   UNL     1     -20.635  -6.172  -6.084  1.00  0.00     0.217 C 
HETATM   21  O   UNL     1     -20.283  -6.660  -7.151  1.00  0.00    -0.274 OA
HETATM   22  N   UNL     1     -21.088  -4.875  -5.959  1.00  0.00    -0.361 N 
HETATM   23  H   UNL     1     -21.359  -4.520  -5.052  1.00  0.00     0.162 HD
BRANCH  22  24
HETATM   24  C   UNL     1     -21.187  -4.030  -7.137  1.00  0.00     0.127 C 
BRANCH  24  25
HETATM   25  C   UNL     1     -22.547  -4.116  -7.829  1.00  0.00     0.058 C 
BRANCH  25  26
HETATM   26  C   UNL     1     -22.433  -3.892  -9.319  1.00  0.00    -0.054 A 
HETATM   27  C   UNL     1     -21.207  -4.057  -9.986  1.00  0.00     0.010 A 
HETATM   28  C   UNL     1     -21.102  -3.826 -11.365  1.00  0.00     0.040 A 
HETATM   29  C   UNL     1     -22.229  -3.425 -12.074  1.00  0.00     0.098 A 
HETATM   30  C   UNL     1     -23.447  -3.257 -11.415  1.00  0.00     0.099 A 
HETATM   31  C   UNL     1     -23.555  -3.479 -10.052  1.00  0.00     0.046 A 
BRANCH  29  32
HETATM   32  O   UNL     1     -22.189  -3.180 -13.418  1.00  0.00    -0.358 OA
HETATM   33  H   UNL     1     -22.020  -4.022 -13.877  1.00  0.00     0.217 HD
ENDBRANCH  29  32
BRANCH  30  34
HETATM   34  O   UNL     1     -24.557  -2.867 -12.105  1.00  0.00    -0.358 OA
HETATM   35  H   UNL     1     -24.359  -1.959 -12.409  1.00  0.00     0.217 HD
ENDBRANCH  30  34
ENDBRANCH  25  26
ENDBRANCH  24  25
ENDBRANCH  22  24
ENDBRANCH  19  20
ENDBRANCH   1  19
TORSDOF 19
BEGIN_RES ARG D 557
REMARK  4 active torsions:
REMARK  status: ('A' for Active; 'I' for Inactive)
REMARK    1  A    between atoms: CA   and  CB  
REMARK    2  A    between atoms: CB   and  CG  
REMARK    3  A    between atoms: CG   and  CD  
REMARK    4  A    between atoms: CD   and  NE  
REMARK       I    between atoms: NE   and  CZ  
REMARK       I    between atoms: CZ   and  NH1 
REMARK       I    between atoms: CZ   and  NH2 
ROOT
ATOM      1  CA  ARG D 557     -26.217   2.705 -17.014  1.00 35.49     0.159 C 
ENDROOT
BRANCH   1   2
ATOM      2  CB  ARG D 557     -26.789   1.319 -17.183  1.00 35.49     0.034 C 
BRANCH   2   3
ATOM      3  CG  ARG D 557     -28.242   1.180 -17.024  1.00 35.49     0.027 C 
BRANCH   3   4
ATOM      4  CD  ARG D 557     -28.654  -0.227 -16.816  1.00 35.49     0.116 C 
BRANCH   4   5
ATOM      5  NE  ARG D 557     -27.655  -0.987 -16.113  1.00 35.49    -0.212 N 
ATOM      6  CZ  ARG D 557     -27.502  -2.291 -16.168  1.00 35.49     0.666 C 
ATOM      7  NH1 ARG D 557     -28.288  -3.068 -16.891  1.00 35.49    -0.235 N 
ATOM      8  NH2 ARG D 557     -26.527  -2.811 -15.480  1.00 35.49    -0.235 N 
ATOM      9  HH  ARG D 557     -28.934  -2.747 -17.353  1.00 35.49     0.174 HD
ATOM     10  HH  ARG D 557     -28.138  -3.911 -16.891  1.00 35.49     0.174 HD
ATOM     11  HH  ARG D 557     -26.031  -2.284 -15.029  1.00 35.49     0.174 HD
ATOM     12  HH  ARG D 557     -26.394  -3.648 -15.494  1.00 35.49     0.174 HD
ATOM     13  HE  ARG D 557     -27.151  -0.575 -15.566  1.00 35.49     0.178 HD
ENDBRANCH   4   5
ENDBRANCH   3   4
ENDBRANCH   2   3
ENDBRANCH   1   2
END_RES ARG D 557
BEGIN_RES GLU D 570
REMARK  3 active torsions:
REMARK  status: ('A' for Active; 'I' for Inactive)
REMARK    5  A    between atoms: CA   and  CB  
REMARK    6  A    between atoms: CB   and  CG  
REMARK    7  A    between atoms: CG   and  CD  
ROOT
ATOM     14  CA  GLU D 570     -18.033  -6.348 -13.375  1.00 32.92     0.160 C 
ENDROOT
BRANCH  14  15
ATOM     15  CB  GLU D 570     -19.500  -6.345 -13.794  1.00 32.92     0.043 C 
BRANCH  15  16
ATOM     16  CG  GLU D 570     -19.813  -5.937 -15.188  1.00 32.92     0.100 C 
BRANCH  16  17
ATOM     17  CD  GLU D 570     -21.247  -6.214 -15.575  1.00 32.92     0.185 C 
ATOM     18  OE1 GLU D 570     -21.479  -6.918 -16.576  1.00 32.92    -0.647 OA
ATOM     19  OE2 GLU D 570     -22.149  -5.706 -14.879  1.00 32.92    -0.647 OA
ENDBRANCH  16  17
ENDBRANCH  15  16
ENDBRANCH  14  15
END_RES GLU D 570
ENDMDL
MODEL 4
REMARK VINA RESULT:      -9.2      3.292      7.888
REMARK  19 active torsions:
REMARK  status: ('A' for Active; 'I' for Inactive)
REMARK    1  A    between atoms: C_2  and  C_3 
REMARK    2  A    between atoms: C_3  and  C_4 
REMARK    3  A    between atoms: C_4  and  C_5 
REMARK    4  A    between atoms: C_5  and  C_6 
REMARK    5  A    between atoms: C_7  and  C_8 
REMARK    6  A    between atoms: C_8  and  C_9 
REMARK    7  A    between atoms: C_10  and  C_11 
REMARK    8  A    between atoms: C_11  and  C_12 
REMARK    9  A    between atoms: C_13  and  C_14 
REMARK   10  A    between atoms: C_14  and  C_15 
REMARK   11  A    between atoms: C_16  and  C_17 
REMARK   12  A    between atoms: C_17  and  C_18 
REMARK   13  A    between atoms: C_18  and  C_19 
REMARK   14  A    between atoms: C_19  and  C_20 
REMARK       I    between atoms: C_20  and  N_22 
REMARK   15  A    between atoms: N_22  and  C_23 
REMARK   16  A    between atoms: C_23  and  C_24 
REMARK   17  A    between atoms: C_24  and  C_25 
REMARK   18  A    between atoms: C_28  and  O_29 
REMARK   19  A    between atoms: C_30  and  O_31 
ROOT
HETATM    1  C   UNL     1     -21.924  -7.047  -4.114  1.00  0.00     0.013 C 
ENDROOT
BRANCH   1   2
HETATM    2  C   UNL     1     -21.820  -6.334  -2.762  1.00  0.00     0.027 C 
BRANCH   2   3
HETATM    3  C   UNL     1     -21.471  -7.282  -1.652  1.00  0.00    -0.030 C 
HETATM    4  C   UNL     1     -22.129  -7.332  -0.484  1.00  0.00    -0.027 C 
BRANCH   4   5
HETATM    5  C   UNL     1     -21.803  -8.309   0.605  1.00  0.00     0.053 C 
BRANCH   5   6
HETATM    6  C   UNL     1     -22.202  -9.701   0.216  1.00  0.00    -0.027 C 
HETATM    7  C   UNL     1     -23.431 -10.022  -0.221  1.00  0.00    -0.027 C 
BRANCH   7   8
HETATM    8  C   UNL     1     -23.848 -11.411  -0.595  1.00  0.00     0.053 C 
BRANCH   8   9
HETATM    9  C   UNL     1     -23.188 -11.841  -1.869  1.00  0.00    -0.027 C 
HETATM   10  C   UNL     1     -22.940 -11.008  -2.892  1.00  0.00    -0.027 C 
BRANCH  10  11
HETATM   11  C   UNL     1     -22.291 -11.439  -4.170  1.00  0.00     0.053 C 
BRANCH  11  12
HETATM   12  C   UNL     1     -21.091 -10.591  -4.465  1.00  0.00    -0.027 C 
HETATM   13  C   UNL     1     -20.166 -10.299  -3.540  1.00  0.00    -0.030 C 
BRANCH  13  14
HETATM   14  C   UNL     1     -18.952  -9.458  -3.800  1.00  0.00     0.027 C 
BRANCH  14  15
HETATM   15  C   UNL     1     -18.122  -9.312  -2.534  1.00  0.00     0.004 C 
BRANCH  15  16
HETATM   16  C   UNL     1     -16.745  -9.935  -2.736  1.00  0.00    -0.000 C 
BRANCH  16  17
HETATM   17  C   UNL     1     -16.253  -9.708  -4.159  1.00  0.00    -0.005 C 
HETATM   18  C   UNL     1     -15.487 -10.921  -4.655  1.00  0.00     0.005 C 
ENDBRANCH  16  17
ENDBRANCH  15  16
ENDBRANCH  14  15
ENDBRANCH  13  14
ENDBRANCH  11  12
ENDBRANCH  10  11
ENDBRANCH   8   9
ENDBRANCH   7   8
ENDBRANCH   5   6
ENDBRANCH   4   5
ENDBRANCH   2   3
ENDBRANCH   1   2
BRANCH   1  19
HETATM   19  C   UNL     1     -20.805  -6.638  -5.073  1.00  0.00     0.103 C 
BRANCH  19  20
HETATM   20  C   UNL     1     -21.256  -5.532  -5.999  1.00  0.00     0.217 C 
HETATM   21  O   UNL     1     -22.437  -5.228  -6.114  1.00  0.00    -0.274 OA
HETATM   22  N   UNL     1     -20.246  -4.922  -6.713  1.00  0.00    -0.361 N 
HETATM   23  H   UNL     1     -19.287  -5.217  -6.585  1.00  0.00     0.162 HD
BRANCH  22  24
HETATM   24  C   UNL     1     -20.564  -3.844  -7.634  1.00  0.00     0.127 C 
BRANCH  24  25
HETATM   25  C   UNL     1     -20.418  -4.242  -9.103  1.00  0.00     0.058 C 
BRANCH  25  26
HETATM   26  C   UNL     1     -21.647  -3.886  -9.905  1.00  0.00    -0.054 A 
HETATM   27  C   UNL     1     -22.930  -3.943  -9.332  1.00  0.00     0.010 A 
HETATM   28  C   UNL     1     -24.069  -3.633 -10.088  1.00  0.00     0.040 A 
HETATM   29  C   UNL     1     -23.920  -3.268 -11.423  1.00  0.00     0.098 A 
HETATM   30  C   UNL     1     -22.650  -3.213 -11.995  1.00  0.00     0.099 A 
HETATM   31  C   UNL     1     -21.521  -3.524 -11.253  1.00  0.00     0.046 A 
BRANCH  29  32
HETATM   32  O   UNL     1     -24.992  -2.960 -12.211  1.00  0.00    -0.358 OA
HETATM   33  H   UNL     1     -25.772  -2.847 -11.638  1.00  0.00     0.217 HD
ENDBRANCH  29  32
BRANCH  30  34
HETATM   34  O   UNL     1     -22.496  -2.853 -13.302  1.00  0.00    -0.358 OA
HETATM   35  H   UNL     1     -23.406  -2.744 -13.642  1.00  0.00     0.217 HD
ENDBRANCH  30  34
ENDBRANCH  25  26
ENDBRANCH  24  25
ENDBRANCH  22  24
ENDBRANCH  19  20
ENDBRANCH   1  19
TORSDOF 19
BEGIN_RES ARG D 557
REMARK  4 active torsions:
REMARK  status: ('A' for Active; 'I' for Inactive)
REMARK    1  A    between atoms: CA   and  CB  
REMARK    2  A    between atoms: CB   and  CG  
REMARK    3  A    between atoms: CG   and  CD  
REMARK    4  A    between atoms: CD   and  NE  
REMARK       I    between atoms: NE   and  CZ  
REMARK       I    between atoms: CZ   and  NH1 
REMARK       I    between atoms: CZ   and  NH2 
ROOT
ATOM      1  CA  ARG D 557     -26.217   2.705 -17.014  1.00 35.49     0.159 C 
ENDROOT
BRANCH   1   2
ATOM      2  CB  ARG D 557     -26.789   1.319 -17.183  1.00 35.49     0.034 C 
BRANCH   2   3
ATOM      3  CG  ARG D 557     -28.232   1.226 -17.438  1.00 35.49     0.027 C 
BRANCH   3   4
ATOM      4  CD  ARG D 557     -28.912   0.306 -16.499  1.00 35.49     0.116 C 
BRANCH   4   5
ATOM      5  NE  ARG D 557     -29.284  -0.934 -17.128  1.00 35.49    -0.212 N 
ATOM      6  CZ  ARG D 557     -28.635  -2.073 -17.024  1.00 35.49     0.666 C 
ATOM      7  NH1 ARG D 557     -27.528  -2.196 -16.316  1.00 35.49    -0.235 N 
ATOM      8  NH2 ARG D 557     -29.128  -3.104 -17.647  1.00 35.49    -0.235 N 
ATOM      9  HH  ARG D 557     -27.187  -1.531 -15.896  1.00 35.49     0.174 HD
ATOM     10  HH  ARG D 557     -27.149  -2.964 -16.282  1.00 35.49     0.174 HD
ATOM     11  HH  ARG D 557     -29.849  -2.996 -18.090  1.00 35.49     0.174 HD
ATOM     12  HH  ARG D 557     -28.740  -3.856 -17.600  1.00 35.49     0.174 HD
ATOM     13  HE  ARG D 557     -29.945  -0.929 -17.662  1.00 35.49     0.178 HD
ENDBRANCH   4   5
ENDBRANCH   3   4
ENDBRANCH   2   3
ENDBRANCH   1   2
END_RES ARG D 557
BEGIN_RES GLU D 570
REMARK  3 active torsions:
REMARK  status: ('A' for Active; 'I' for Inactive)
REMARK    5  A    between atoms: CA   and  CB  
REMARK    6  A    between atoms: CB   and  CG  
REMARK    7  A    between atoms: CG   and  CD  
ROOT
ATOM     14  CA  GLU D 570     -18.033  -6.348 -13.375  1.00 32.92     0.160 C 
ENDROOT
BRANCH  14  15
ATOM     15  CB  GLU D 570     -19.500  -6.345 -13.794  1.00 32.92     0.043 C 
BRANCH  15  16
ATOM     16  CG  GLU D 570     -19.797  -6.424 -15.248  1.00 32.92     0.100 C 
BRANCH  16  17
ATOM     17  CD  GLU D 570     -21.172  -5.905 -15.597  1.00 32.92     0.185 C 
ATOM     18  OE1 GLU D 570     -21.585  -4.867 -15.046  1.00 32.92    -0.647 OA
ATOM     19  OE2 GLU D 570     -21.850  -6.552 -16.419  1.00 32.92    -0.647 OA
ENDBRANCH  16  17
ENDBRANCH  15  16
ENDBRANCH  14  15
END_RES GLU D 570
ENDMDL
MODEL 5
REMARK VINA RESULT:      -9.1      1.769      2.930
REMARK  19 active torsions:
REMARK  status: ('A' for Active; 'I' for Inactive)
REMARK    1  A    between atoms: C_2  and  C_3 
REMARK    2  A    between atoms: C_3  and  C_4 
REMARK    3  A    between atoms: C_4  and  C_5 
REMARK    4  A    between atoms: C_5  and  C_6 
REMARK    5  A    between atoms: C_7  and  C_8 
REMARK    6  A    between atoms: C_8  and  C_9 
REMARK    7  A    between atoms: C_10  and  C_11 
REMARK    8  A    between atoms: C_11  and  C_12 
REMARK    9  A    between atoms: C_13  and  C_14 
REMARK   10  A    between atoms: C_14  and  C_15 
REMARK   11  A    between atoms: C_16  and  C_17 
REMARK   12  A    between atoms: C_17  and  C_18 
REMARK   13  A    between atoms: C_18  and  C_19 
REMARK   14  A    between atoms: C_19  and  C_20 
REMARK       I    between atoms: C_20  and  N_22 
REMARK   15  A    between atoms: N_22  and  C_23 
REMARK   16  A    between atoms: C_23  and  C_24 
REMARK   17  A    between atoms: C_24  and  C_25 
REMARK   18  A    between atoms: C_28  and  O_29 
REMARK   19  A    between atoms: C_30  and  O_31 
ROOT
HETATM    1  C   UNL     1     -23.989  -6.565 -14.861  1.00  0.00     0.013 C 
ENDROOT
BRANCH   1   2
HETATM    2  C   UNL     1     -23.491  -5.134 -14.633  1.00  0.00     0.027 C 
BRANCH   2   3
HETATM    3  C   UNL     1     -23.378  -4.803 -13.174  1.00  0.00    -0.030 C 
HETATM    4  C   UNL     1     -23.899  -3.697 -12.621  1.00  0.00    -0.027 C 
BRANCH   4   5
HETATM    5  C   UNL     1     -23.820  -3.392 -11.156  1.00  0.00     0.053 C 
BRANCH   5   6
HETATM    6  C   UNL     1     -22.713  -4.164 -10.504  1.00  0.00    -0.027 C 
HETATM    7  C   UNL     1     -21.430  -3.765 -10.513  1.00  0.00    -0.027 C 
BRANCH   7   8
HETATM    8  C   UNL     1     -20.312  -4.536  -9.883  1.00  0.00     0.053 C 
BRANCH   8   9
HETATM    9  C   UNL     1     -20.467  -4.580  -8.393  1.00  0.00    -0.027 C 
HETATM   10  C   UNL     1     -19.436  -4.503  -7.538  1.00  0.00    -0.027 C 
BRANCH  10  11
HETATM   11  C   UNL     1     -19.591  -4.558  -6.051  1.00  0.00     0.053 C 
BRANCH  11  12
HETATM   12  C   UNL     1     -20.784  -5.383  -5.674  1.00  0.00    -0.027 C 
HETATM   13  C   UNL     1     -20.679  -6.573  -5.066  1.00  0.00    -0.030 C 
BRANCH  13  14
HETATM   14  C   UNL     1     -21.849  -7.423  -4.671  1.00  0.00     0.027 C 
BRANCH  14  15
HETATM   15  C   UNL     1     -21.518  -8.250  -3.437  1.00  0.00     0.004 C 
BRANCH  15  16
HETATM   16  C   UNL     1     -21.036  -7.341  -2.312  1.00  0.00    -0.000 C 
BRANCH  16  17
HETATM   17  C   UNL     1     -22.213  -6.669  -1.618  1.00  0.00    -0.005 C 
HETATM   18  C   UNL     1     -22.505  -7.347  -0.292  1.00  0.00     0.005 C 
ENDBRANCH  16  17
ENDBRANCH  15  16
ENDBRANCH  14  15
ENDBRANCH  13  14
ENDBRANCH  11  12
ENDBRANCH  10  11
ENDBRANCH   8   9
ENDBRANCH   7   8
ENDBRANCH   5   6
ENDBRANCH   4   5
ENDBRANCH   2   3
ENDBRANCH   1   2
BRANCH   1  19
HETATM   19  C   UNL     1     -25.425  -6.603 -15.383  1.00  0.00     0.103 C 
BRANCH  19  20
HETATM   20  C   UNL     1     -25.460  -6.540 -16.892  1.00  0.00     0.217 C 
HETATM   21  O   UNL     1     -24.452  -6.705 -17.568  1.00  0.00    -0.274 OA
HETATM   22  N   UNL     1     -26.697  -6.261 -17.436  1.00  0.00    -0.361 N 
HETATM   23  H   UNL     1     -27.496  -6.126 -16.831  1.00  0.00     0.162 HD
BRANCH  22  24
HETATM   24  C   UNL     1     -26.848  -6.176 -18.878  1.00  0.00     0.127 C 
BRANCH  24  25
HETATM   25  C   UNL     1     -28.231  -6.605 -19.367  1.00  0.00     0.058 C 
BRANCH  25  26
HETATM   26  C   UNL     1     -29.331  -6.042 -18.499  1.00  0.00    -0.054 A 
HETATM   27  C   UNL     1     -30.188  -6.886 -17.773  1.00  0.00     0.010 A 
HETATM   28  C   UNL     1     -31.222  -6.358 -16.987  1.00  0.00     0.040 A 
HETATM   29  C   UNL     1     -31.397  -4.979 -16.933  1.00  0.00     0.098 A 
HETATM   30  C   UNL     1     -30.551  -4.138 -17.653  1.00  0.00     0.099 A 
HETATM   31  C   UNL     1     -29.531  -4.655 -18.436  1.00  0.00     0.046 A 
BRANCH  29  32
HETATM   32  O   UNL     1     -32.389  -4.406 -16.188  1.00  0.00    -0.358 OA
HETATM   33  H   UNL     1     -32.612  -5.011 -15.458  1.00  0.00     0.217 HD
ENDBRANCH  29  32
BRANCH  30  34
HETATM   34  O   UNL     1     -30.715  -2.785 -17.602  1.00  0.00    -0.358 OA
HETATM   35  H   UNL     1     -31.250  -2.566 -18.390  1.00  0.00     0.217 HD
ENDBRANCH  30  34
ENDBRANCH  25  26
ENDBRANCH  24  25
ENDBRANCH  22  24
ENDBRANCH  19  20
ENDBRANCH   1  19
TORSDOF 19
BEGIN_RES ARG D 557
REMARK  4 active torsions:
REMARK  status: ('A' for Active; 'I' for Inactive)
REMARK    1  A    between atoms: CA   and  CB  
REMARK    2  A    between atoms: CB   and  CG  
REMARK    3  A    between atoms: CG   and  CD  
REMARK    4  A    between atoms: CD   and  NE  
REMARK       I    between atoms: NE   and  CZ  
REMARK       I    between atoms: CZ   and  NH1 
REMARK       I    between atoms: CZ   and  NH2 
ROOT
ATOM      1  CA  ARG D 557     -26.217   2.705 -17.014  1.00 35.49     0.159 C 
ENDROOT
BRANCH   1   2
ATOM      2  CB  ARG D 557     -26.789   1.319 -17.183  1.00 35.49     0.034 C 
BRANCH   2   3
ATOM      3  CG  ARG D 557     -28.214   1.150 -16.874  1.00 35.49     0.027 C 
BRANCH   3   4
ATOM      4  CD  ARG D 557     -28.531  -0.217 -16.403  1.00 35.49     0.116 C 
BRANCH   4   5
ATOM      5  NE  ARG D 557     -27.425  -0.822 -15.710  1.00 35.49    -0.212 N 
ATOM      6  CZ  ARG D 557     -27.074  -2.087 -15.779  1.00 35.49     0.666 C 
ATOM      7  NH1 ARG D 557     -27.734  -2.967 -16.509  1.00 35.49    -0.235 N 
ATOM      8  NH2 ARG D 557     -26.028  -2.458 -15.098  1.00 35.49    -0.235 N 
ATOM      9  HH  ARG D 557     -28.423  -2.745 -16.967  1.00 35.49     0.174 HD
ATOM     10  HH  ARG D 557     -27.457  -3.778 -16.518  1.00 35.49     0.174 HD
ATOM     11  HH  ARG D 557     -25.617  -1.866 -14.642  1.00 35.49     0.174 HD
ATOM     12  HH  ARG D 557     -25.769  -3.265 -15.121  1.00 35.49     0.174 HD
ATOM     13  HE  ARG D 557     -26.988  -0.343 -15.159  1.00 35.49     0.178 HD
ENDBRANCH   4   5
ENDBRANCH   3   4
ENDBRANCH   2   3
ENDBRANCH   1   2
END_RES ARG D 557
BEGIN_RES GLU D 570
REMARK  3 active torsions:
REMARK  status: ('A' for Active; 'I' for Inactive)
REMARK    5  A    between atoms: CA   and  CB  
REMARK    6  A    between atoms: CB   and  CG  
REMARK    7  A    between atoms: CG   and  CD  
ROOT
ATOM     14  CA  GLU D 570     -18.033  -6.348 -13.375  1.00 32.92     0.160 C 
ENDROOT
BRANCH  14  15
ATOM     15  CB  GLU D 570     -19.500  -6.345 -13.794  1.00 32.92     0.043 C 
BRANCH  15  16
ATOM     16  CG  GLU D 570     -19.808  -6.002 -15.206  1.00 32.92     0.100 C 
BRANCH  16  17
ATOM     17  CD  GLU D 570     -20.581  -7.085 -15.921  1.00 32.92     0.185 C 
ATOM     18  OE1 GLU D 570     -21.154  -6.812 -16.994  1.00 32.92    -0.647 OA
ATOM     19  OE2 GLU D 570     -20.629  -8.214 -15.394  1.00 32.92    -0.647 OA
ENDBRANCH  16  17
ENDBRANCH  15  16
ENDBRANCH  14  15
END_RES GLU D 570
ENDMDL
MODEL 6
REMARK VINA RESULT:      -8.6      2.114      2.627
REMARK  19 active torsions:
REMARK  status: ('A' for Active; 'I' for Inactive)
REMARK    1  A    between atoms: C_2  and  C_3 
REMARK    2  A    between atoms: C_3  and  C_4 
REMARK    3  A    between atoms: C_4  and  C_5 
REMARK    4  A    between atoms: C_5  and  C_6 
REMARK    5  A    between atoms: C_7  and  C_8 
REMARK    6  A    between atoms: C_8  and  C_9 
REMARK    7  A    between atoms: C_10  and  C_11 
REMARK    8  A    between atoms: C_11  and  C_12 
REMARK    9  A    between atoms: C_13  and  C_14 
REMARK   10  A    between atoms: C_14  and  C_15 
REMARK   11  A    between atoms: C_16  and  C_17 
REMARK   12  A    between atoms: C_17  and  C_18 
REMARK   13  A    between atoms: C_18  and  C_19 
REMARK   14  A    between atoms: C_19  and  C_20 
REMARK       I    between atoms: C_20  and  N_22 
REMARK   15  A    between atoms: N_22  and  C_23 
REMARK   16  A    between atoms: C_23  and  C_24 
REMARK   17  A    between atoms: C_24  and  C_25 
REMARK   18  A    between atoms: C_28  and  O_29 
REMARK   19  A    between atoms: C_30  and  O_31 
ROOT
HETATM    1  C   UNL     1     -23.373  -5.523 -12.836  1.00  0.00     0.013 C 
ENDROOT
BRANCH   1   2
HETATM    2  C   UNL     1     -23.292  -4.388 -11.810  1.00  0.00     0.027 C 
BRANCH   2   3
HETATM    3  C   UNL     1     -21.875  -4.079 -11.424  1.00  0.00    -0.030 C 
HETATM    4  C   UNL     1     -21.373  -4.304 -10.200  1.00  0.00    -0.027 C 
BRANCH   4   5
HETATM    5  C   UNL     1     -19.946  -4.033  -9.832  1.00  0.00     0.053 C 
BRANCH   5   6
HETATM    6  C   UNL     1     -19.792  -3.887  -8.348  1.00  0.00    -0.027 C 
HETATM    7  C   UNL     1     -20.013  -4.889  -7.480  1.00  0.00    -0.027 C 
BRANCH   7   8
HETATM    8  C   UNL     1     -19.882  -4.751  -5.995  1.00  0.00     0.053 C 
BRANCH   8   9
HETATM    9  C   UNL     1     -20.973  -5.499  -5.291  1.00  0.00    -0.027 C 
HETATM   10  C   UNL     1     -20.857  -6.774  -4.890  1.00  0.00    -0.027 C 
BRANCH  10  11
HETATM   11  C   UNL     1     -21.951  -7.524  -4.197  1.00  0.00     0.053 C 
BRANCH  11  12
HETATM   12  C   UNL     1     -21.435  -8.179  -2.951  1.00  0.00    -0.027 C 
HETATM   13  C   UNL     1     -21.522  -7.606  -1.743  1.00  0.00    -0.030 C 
BRANCH  13  14
HETATM   14  C   UNL     1     -21.022  -8.231  -0.476  1.00  0.00     0.027 C 
BRANCH  14  15
HETATM   15  C   UNL     1     -22.098  -8.200   0.598  1.00  0.00     0.004 C 
BRANCH  15  16
HETATM   16  C   UNL     1     -23.294  -9.041   0.165  1.00  0.00    -0.000 C 
BRANCH  16  17
HETATM   17  C   UNL     1     -22.870 -10.474  -0.127  1.00  0.00    -0.005 C 
HETATM   18  C   UNL     1     -23.772 -11.091  -1.180  1.00  0.00     0.005 C 
ENDBRANCH  16  17
ENDBRANCH  15  16
ENDBRANCH  14  15
ENDBRANCH  13  14
ENDBRANCH  11  12
ENDBRANCH  10  11
ENDBRANCH   8   9
ENDBRANCH   7   8
ENDBRANCH   5   6
ENDBRANCH   4   5
ENDBRANCH   2   3
ENDBRANCH   1   2
BRANCH   1  19
HETATM   19  C   UNL     1     -23.634  -5.008 -14.252  1.00  0.00     0.103 C 
BRANCH  19  20
HETATM   20  C   UNL     1     -24.639  -5.877 -14.973  1.00  0.00     0.217 C 
HETATM   21  O   UNL     1     -24.530  -7.096 -15.009  1.00  0.00    -0.274 OA
HETATM   22  N   UNL     1     -25.658  -5.191 -15.599  1.00  0.00    -0.361 N 
HETATM   23  H   UNL     1     -25.696  -4.181 -15.545  1.00  0.00     0.162 HD
BRANCH  22  24
HETATM   24  C   UNL     1     -26.682  -5.925 -16.324  1.00  0.00     0.127 C 
BRANCH  24  25
HETATM   25  C   UNL     1     -28.037  -5.928 -15.617  1.00  0.00     0.058 C 
BRANCH  25  26
HETATM   26  C   UNL     1     -29.144  -6.396 -16.531  1.00  0.00    -0.054 A 
HETATM   27  C   UNL     1     -30.439  -5.858 -16.439  1.00  0.00     0.010 A 
HETATM   28  C   UNL     1     -31.468  -6.313 -17.275  1.00  0.00     0.040 A 
HETATM   29  C   UNL     1     -31.197  -7.312 -18.204  1.00  0.00     0.098 A 
HETATM   30  C   UNL     1     -29.914  -7.850 -18.297  1.00  0.00     0.099 A 
HETATM   31  C   UNL     1     -28.895  -7.408 -17.469  1.00  0.00     0.046 A 
BRANCH  29  32
HETATM   32  O   UNL     1     -32.159  -7.800 -19.043  1.00  0.00    -0.358 OA
HETATM   33  H   UNL     1     -32.377  -8.707 -18.765  1.00  0.00     0.217 HD
ENDBRANCH  29  32
BRANCH  30  34
HETATM   34  O   UNL     1     -29.641  -8.829 -19.208  1.00  0.00    -0.358 OA
HETATM   35  H   UNL     1     -30.498  -9.024 -19.634  1.00  0.00     0.217 HD
ENDBRANCH  30  34
ENDBRANCH  25  26
ENDBRANCH  24  25
ENDBRANCH  22  24
ENDBRANCH  19  20
ENDBRANCH   1  19
TORSDOF 19
BEGIN_RES ARG D 557
REMARK  4 active torsions:
REMARK  status: ('A' for Active; 'I' for Inactive)
REMARK    1  A    between atoms: CA   and  CB  
REMARK    2  A    between atoms: CB   and  CG  
REMARK    3  A    between atoms: CG   and  CD  
REMARK    4  A    between atoms: CD   and  NE  
REMARK       I    between atoms: NE   and  CZ  
REMARK       I    between atoms: CZ   and  NH1 
REMARK       I    between atoms: CZ   and  NH2 
ROOT
ATOM      1  CA  ARG D 557     -26.217   2.705 -17.014  1.00 35.49     0.159 C 
ENDROOT
BRANCH   1   2
ATOM      2  CB  ARG D 557     -26.789   1.319 -17.183  1.00 35.49     0.034 C 
BRANCH   2   3
ATOM      3  CG  ARG D 557     -28.244   1.221 -17.349  1.00 35.49     0.027 C 
BRANCH   3   4
ATOM      4  CD  ARG D 557     -28.848   0.216 -16.444  1.00 35.49     0.116 C 
BRANCH   4   5
ATOM      5  NE  ARG D 557     -29.246  -0.976 -17.147  1.00 35.49    -0.212 N 
ATOM      6  CZ  ARG D 557     -28.656  -2.148 -17.067  1.00 35.49     0.666 C 
ATOM      7  NH1 ARG D 557     -27.589  -2.355 -16.317  1.00 35.49    -0.235 N 
ATOM      8  NH2 ARG D 557     -29.166  -3.125 -17.758  1.00 35.49    -0.235 N 
ATOM      9  HH  ARG D 557     -27.238  -1.726 -15.852  1.00 35.49     0.174 HD
ATOM     10  HH  ARG D 557     -27.248  -3.141 -16.302  1.00 35.49     0.174 HD
ATOM     11  HH  ARG D 557     -29.860  -2.964 -18.228  1.00 35.49     0.174 HD
ATOM     12  HH  ARG D 557     -28.815  -3.897 -17.729  1.00 35.49     0.174 HD
ATOM     13  HE  ARG D 557     -29.881  -0.915 -17.709  1.00 35.49     0.178 HD
ENDBRANCH   4   5
ENDBRANCH   3   4
ENDBRANCH   2   3
ENDBRANCH   1   2
END_RES ARG D 557
BEGIN_RES GLU D 570
REMARK  3 active torsions:
REMARK  status: ('A' for Active; 'I' for Inactive)
REMARK    5  A    between atoms: CA   and  CB  
REMARK    6  A    between atoms: CB   and  CG  
REMARK    7  A    between atoms: CG   and  CD  
ROOT
ATOM     14  CA  GLU D 570     -18.033  -6.348 -13.375  1.00 32.92     0.160 C 
ENDROOT
BRANCH  14  15
ATOM     15  CB  GLU D 570     -19.500  -6.345 -13.794  1.00 32.92     0.043 C 
BRANCH  15  16
ATOM     16  CG  GLU D 570     -20.086  -7.634 -14.244  1.00 32.92     0.100 C 
BRANCH  16  17
ATOM     17  CD  GLU D 570     -20.809  -7.523 -15.566  1.00 32.92     0.185 C 
ATOM     18  OE1 GLU D 570     -20.991  -6.396 -16.064  1.00 32.92    -0.647 OA
ATOM     19  OE2 GLU D 570     -21.213  -8.575 -16.101  1.00 32.92    -0.647 OA
ENDBRANCH  16  17
ENDBRANCH  15  16
ENDBRANCH  14  15
END_RES GLU D 570
ENDMDL
MODEL 7
REMARK VINA RESULT:      -8.6      3.556      8.354
REMARK  19 active torsions:
REMARK  status: ('A' for Active; 'I' for Inactive)
REMARK    1  A    between atoms: C_2  and  C_3 
REMARK    2  A    between atoms: C_3  and  C_4 
REMARK    3  A    between atoms: C_4  and  C_5 
REMARK    4  A    between atoms: C_5  and  C_6 
REMARK    5  A    between atoms: C_7  and  C_8 
REMARK    6  A    between atoms: C_8  and  C_9 
REMARK    7  A    between atoms: C_10  and  C_11 
REMARK    8  A    between atoms: C_11  and  C_12 
REMARK    9  A    between atoms: C_13  and  C_14 
REMARK   10  A    between atoms: C_14  and  C_15 
REMARK   11  A    between atoms: C_16  and  C_17 
REMARK   12  A    between atoms: C_17  and  C_18 
REMARK   13  A    between atoms: C_18  and  C_19 
REMARK   14  A    between atoms: C_19  and  C_20 
REMARK       I    between atoms: C_20  and  N_22 
REMARK   15  A    between atoms: N_22  and  C_23 
REMARK   16  A    between atoms: C_23  and  C_24 
REMARK   17  A    between atoms: C_24  and  C_25 
REMARK   18  A    between atoms: C_28  and  O_29 
REMARK   19  A    between atoms: C_30  and  O_31 
ROOT
HETATM    1  C   UNL     1     -21.923  -6.024  -2.236  1.00  0.00     0.013 C 
ENDROOT
BRANCH   1   2
HETATM    2  C   UNL     1     -22.281  -6.809  -0.970  1.00  0.00     0.027 C 
BRANCH   2   3
HETATM    3  C   UNL     1     -21.853  -8.244  -1.058  1.00  0.00    -0.030 C 
HETATM    4  C   UNL     1     -22.471  -9.245  -0.412  1.00  0.00    -0.027 C 
BRANCH   4   5
HETATM    5  C   UNL     1     -22.065 -10.682  -0.536  1.00  0.00     0.053 C 
BRANCH   5   6
HETATM    6  C   UNL     1     -20.578 -10.832  -0.420  1.00  0.00    -0.027 C 
HETATM    7  C   UNL     1     -19.944 -12.012  -0.522  1.00  0.00    -0.027 C 
BRANCH   7   8
HETATM    8  C   UNL     1     -18.462 -12.179  -0.389  1.00  0.00     0.053 C 
BRANCH   8   9
HETATM    9  C   UNL     1     -17.735 -11.188  -1.245  1.00  0.00    -0.027 C 
HETATM   10  C   UNL     1     -16.451 -11.326  -1.610  1.00  0.00    -0.027 C 
BRANCH  10  11
HETATM   11  C   UNL     1     -15.721 -10.331  -2.456  1.00  0.00     0.053 C 
BRANCH  11  12
HETATM   12  C   UNL     1     -16.663  -9.652  -3.404  1.00  0.00    -0.027 C 
HETATM   13  C   UNL     1     -17.125 -10.244  -4.514  1.00  0.00    -0.030 C 
BRANCH  13  14
HETATM   14  C   UNL     1     -18.071  -9.598  -5.482  1.00  0.00     0.027 C 
BRANCH  14  15
HETATM   15  C   UNL     1     -19.502  -9.692  -4.976  1.00  0.00     0.004 C 
BRANCH  15  16
HETATM   16  C   UNL     1     -19.736 -11.047  -4.318  1.00  0.00    -0.000 C 
BRANCH  16  17
HETATM   17  C   UNL     1     -21.167 -11.518  -4.543  1.00  0.00    -0.005 C 
HETATM   18  C   UNL     1     -22.153 -10.470  -4.063  1.00  0.00     0.005 C 
ENDBRANCH  16  17
ENDBRANCH  15  16
ENDBRANCH  14  15
ENDBRANCH  13  14
ENDBRANCH  11  12
ENDBRANCH  10  11
ENDBRANCH   8   9
ENDBRANCH   7   8
ENDBRANCH   5   6
ENDBRANCH   4   5
ENDBRANCH   2   3
ENDBRANCH   1   2
BRANCH   1  19
HETATM   19  C   UNL     1     -21.301  -6.912  -3.313  1.00  0.00     0.103 C 
BRANCH  19  20
HETATM   20  C   UNL     1     -21.787  -6.523  -4.690  1.00  0.00     0.217 C 
HETATM   21  O   UNL     1     -22.976  -6.360  -4.933  1.00  0.00    -0.274 OA
HETATM   22  N   UNL     1     -20.797  -6.396  -5.643  1.00  0.00    -0.361 N 
HETATM   23  H   UNL     1     -19.830  -6.550  -5.391  1.00  0.00     0.162 HD
BRANCH  22  24
HETATM   24  C   UNL     1     -21.149  -6.025  -7.003  1.00  0.00     0.127 C 
BRANCH  24  25
HETATM   25  C   UNL     1     -21.136  -4.516  -7.241  1.00  0.00     0.058 C 
BRANCH  25  26
HETATM   26  C   UNL     1     -21.378  -4.175  -8.692  1.00  0.00    -0.054 A 
HETATM   27  C   UNL     1     -20.342  -4.254  -9.639  1.00  0.00     0.010 A 
HETATM   28  C   UNL     1     -20.567  -3.914 -10.980  1.00  0.00     0.040 A 
HETATM   29  C   UNL     1     -21.833  -3.493 -11.372  1.00  0.00     0.098 A 
HETATM   30  C   UNL     1     -22.863  -3.412 -10.435  1.00  0.00     0.099 A 
HETATM   31  C   UNL     1     -22.645  -3.741  -9.107  1.00  0.00     0.046 A 
BRANCH  29  32
HETATM   32  O   UNL     1     -22.112  -3.145 -12.663  1.00  0.00    -0.358 OA
HETATM   33  H   UNL     1     -22.363  -3.950 -13.150  1.00  0.00     0.217 HD
ENDBRANCH  29  32
BRANCH  30  34
HETATM   34  O   UNL     1     -24.109  -3.002 -10.812  1.00  0.00    -0.358 OA
HETATM   35  H   UNL     1     -24.402  -2.400 -10.100  1.00  0.00     0.217 HD
ENDBRANCH  30  34
ENDBRANCH  25  26
ENDBRANCH  24  25
ENDBRANCH  22  24
ENDBRANCH  19  20
ENDBRANCH   1  19
TORSDOF 19
BEGIN_RES ARG D 557
REMARK  4 active torsions:
REMARK  status: ('A' for Active; 'I' for Inactive)
REMARK    1  A    between atoms: CA   and  CB  
REMARK    2  A    between atoms: CB   and  CG  
REMARK    3  A    between atoms: CG   and  CD  
REMARK    4  A    between atoms: CD   and  NE  
REMARK       I    between atoms: NE   and  CZ  
REMARK       I    between atoms: CZ   and  NH1 
REMARK       I    between atoms: CZ   and  NH2 
ROOT
ATOM      1  CA  ARG D 557     -26.217   2.705 -17.014  1.00 35.49     0.159 C 
ENDROOT
BRANCH   1   2
ATOM      2  CB  ARG D 557     -26.789   1.319 -17.183  1.00 35.49     0.034 C 
BRANCH   2   3
ATOM      3  CG  ARG D 557     -25.919   0.196 -16.814  1.00 35.49     0.027 C 
BRANCH   3   4
ATOM      4  CD  ARG D 557     -26.650  -0.871 -16.093  1.00 35.49     0.116 C 
BRANCH   4   5
ATOM      5  NE  ARG D 557     -25.891  -1.398 -14.989  1.00 35.49    -0.212 N 
ATOM      6  CZ  ARG D 557     -25.873  -2.652 -14.598  1.00 35.49     0.666 C 
ATOM      7  NH1 ARG D 557     -26.588  -3.590 -15.192  1.00 35.49    -0.235 N 
ATOM      8  NH2 ARG D 557     -25.109  -2.956 -13.589  1.00 35.49    -0.235 N 
ATOM      9  HH  ARG D 557     -27.096  -3.413 -15.859  1.00 35.49     0.174 HD
ATOM     10  HH  ARG D 557     -26.534  -4.392 -14.895  1.00 35.49     0.174 HD
ATOM     11  HH  ARG D 557     -24.653  -2.331 -13.230  1.00 35.49     0.174 HD
ATOM     12  HH  ARG D 557     -25.069  -3.756 -13.311  1.00 35.49     0.174 HD
ATOM     13  HE  ARG D 557     -25.458  -0.849 -14.505  1.00 35.49     0.178 HD
ENDBRANCH   4   5
ENDBRANCH   3   4
ENDBRANCH   2   3
ENDBRANCH   1   2
END_RES ARG D 557
BEGIN_RES GLU D 570
REMARK  3 active torsions:
REMARK  status: ('A' for Active; 'I' for Inactive)
REMARK    5  A    between atoms: CA   and  CB  
REMARK    6  A    between atoms: CB   and  CG  
REMARK    7  A    between atoms: CG   and  CD  
ROOT
ATOM     14  CA  GLU D 570     -18.033  -6.348 -13.375  1.00 32.92     0.160 C 
ENDROOT
BRANCH  14  15
ATOM     15  CB  GLU D 570     -19.500  -6.345 -13.794  1.00 32.92     0.043 C 
BRANCH  15  16
ATOM     16  CG  GLU D 570     -20.088  -7.636 -14.236  1.00 32.92     0.100 C 
BRANCH  16  17
ATOM     17  CD  GLU D 570     -20.689  -7.567 -15.620  1.00 32.92     0.185 C 
ATOM     18  OE1 GLU D 570     -21.178  -8.598 -16.120  1.00 32.92    -0.647 OA
ATOM     19  OE2 GLU D 570     -20.654  -6.473 -16.219  1.00 32.92    -0.647 OA
ENDBRANCH  16  17
ENDBRANCH  15  16
ENDBRANCH  14  15
END_RES GLU D 570
ENDMDL
MODEL 8
REMARK VINA RESULT:      -8.6      2.355      4.347
REMARK  19 active torsions:
REMARK  status: ('A' for Active; 'I' for Inactive)
REMARK    1  A    between atoms: C_2  and  C_3 
REMARK    2  A    between atoms: C_3  and  C_4 
REMARK    3  A    between atoms: C_4  and  C_5 
REMARK    4  A    between atoms: C_5  and  C_6 
REMARK    5  A    between atoms: C_7  and  C_8 
REMARK    6  A    between atoms: C_8  and  C_9 
REMARK    7  A    between atoms: C_10  and  C_11 
REMARK    8  A    between atoms: C_11  and  C_12 
REMARK    9  A    between atoms: C_13  and  C_14 
REMARK   10  A    between atoms: C_14  and  C_15 
REMARK   11  A    between atoms: C_16  and  C_17 
REMARK   12  A    between atoms: C_17  and  C_18 
REMARK   13  A    between atoms: C_18  and  C_19 
REMARK   14  A    between atoms: C_19  and  C_20 
REMARK       I    between atoms: C_20  and  N_22 
REMARK   15  A    between atoms: N_22  and  C_23 
REMARK   16  A    between atoms: C_23  and  C_24 
REMARK   17  A    between atoms: C_24  and  C_25 
REMARK   18  A    between atoms: C_28  and  O_29 
REMARK   19  A    between atoms: C_30  and  O_31 
ROOT
HETATM    1  C   UNL     1     -21.659  -4.402 -11.064  1.00  0.00     0.013 C 
ENDROOT
BRANCH   1   2
HETATM    2  C   UNL     1     -20.408  -4.361 -10.180  1.00  0.00     0.027 C 
BRANCH   2   3
HETATM    3  C   UNL     1     -20.743  -4.498  -8.724  1.00  0.00    -0.030 C 
HETATM    4  C   UNL     1     -19.841  -4.371  -7.739  1.00  0.00    -0.027 C 
BRANCH   4   5
HETATM    5  C   UNL     1     -20.188  -4.467  -6.285  1.00  0.00     0.053 C 
BRANCH   5   6
HETATM    6  C   UNL     1     -20.969  -5.714  -5.999  1.00  0.00    -0.027 C 
HETATM    7  C   UNL     1     -20.399  -6.881  -5.657  1.00  0.00    -0.027 C 
BRANCH   7   8
HETATM    8  C   UNL     1     -21.167  -8.138  -5.388  1.00  0.00     0.053 C 
BRANCH   8   9
HETATM    9  C   UNL     1     -20.729  -8.765  -4.100  1.00  0.00    -0.027 C 
HETATM   10  C   UNL     1     -19.487  -9.223  -3.884  1.00  0.00    -0.027 C 
BRANCH  10  11
HETATM   11  C   UNL     1     -19.052  -9.860  -2.601  1.00  0.00     0.053 C 
BRANCH  11  12
HETATM   12  C   UNL     1     -20.097  -9.679  -1.542  1.00  0.00    -0.027 C 
HETATM   13  C   UNL     1     -20.771 -10.707  -1.007  1.00  0.00    -0.030 C 
BRANCH  13  14
HETATM   14  C   UNL     1     -21.819 -10.566   0.055  1.00  0.00     0.027 C 
BRANCH  14  15
HETATM   15  C   UNL     1     -22.983  -9.727  -0.449  1.00  0.00     0.004 C 
BRANCH  15  16
HETATM   16  C   UNL     1     -23.166  -8.500   0.437  1.00  0.00    -0.000 C 
BRANCH  16  17
HETATM   17  C   UNL     1     -22.108  -7.449   0.131  1.00  0.00    -0.005 C 
HETATM   18  C   UNL     1     -22.363  -6.816  -1.224  1.00  0.00     0.005 C 
ENDBRANCH  16  17
ENDBRANCH  15  16
ENDBRANCH  14  15
ENDBRANCH  13  14
ENDBRANCH  11  12
ENDBRANCH  10  11
ENDBRANCH   8   9
ENDBRANCH   7   8
ENDBRANCH   5   6
ENDBRANCH   4   5
ENDBRANCH   2   3
ENDBRANCH   1   2
BRANCH   1  19
HETATM   19  C   UNL     1     -22.869  -3.758 -10.387  1.00  0.00     0.103 C 
BRANCH  19  20
HETATM   20  C   UNL     1     -23.842  -3.216 -11.407  1.00  0.00     0.217 C 
HETATM   21  O   UNL     1     -25.024  -3.036 -11.140  1.00  0.00    -0.274 OA
HETATM   22  N   UNL     1     -23.304  -2.968 -12.653  1.00  0.00    -0.361 N 
HETATM   23  H   UNL     1     -22.321  -3.141 -12.822  1.00  0.00     0.162 HD
BRANCH  22  24
HETATM   24  C   UNL     1     -24.148  -2.444 -13.712  1.00  0.00     0.127 C 
BRANCH  24  25
HETATM   25  C   UNL     1     -25.409  -3.276 -13.947  1.00  0.00     0.058 C 
BRANCH  25  26
HETATM   26  C   UNL     1     -25.090  -4.613 -14.571  1.00  0.00    -0.054 A 
HETATM   27  C   UNL     1     -23.846  -5.234 -14.363  1.00  0.00     0.010 A 
HETATM   28  C   UNL     1     -23.547  -6.464 -14.964  1.00  0.00     0.040 A 
HETATM   29  C   UNL     1     -24.498  -7.072 -15.777  1.00  0.00     0.098 A 
HETATM   30  C   UNL     1     -25.732  -6.459 -15.988  1.00  0.00     0.099 A 
HETATM   31  C   UNL     1     -26.030  -5.239 -15.401  1.00  0.00     0.046 A 
BRANCH  29  32
HETATM   32  O   UNL     1     -24.263  -8.269 -16.394  1.00  0.00    -0.358 OA
HETATM   33  H   UNL     1     -23.981  -8.092 -17.309  1.00  0.00     0.217 HD
ENDBRANCH  29  32
BRANCH  30  34
HETATM   34  O   UNL     1     -26.670  -7.051 -16.783  1.00  0.00    -0.358 OA
HETATM   35  H   UNL     1     -26.170  -7.679 -17.339  1.00  0.00     0.217 HD
ENDBRANCH  30  34
ENDBRANCH  25  26
ENDBRANCH  24  25
ENDBRANCH  22  24
ENDBRANCH  19  20
ENDBRANCH   1  19
TORSDOF 19
BEGIN_RES ARG D 557
REMARK  4 active torsions:
REMARK  status: ('A' for Active; 'I' for Inactive)
REMARK    1  A    between atoms: CA   and  CB  
REMARK    2  A    between atoms: CB   and  CG  
REMARK    3  A    between atoms: CG   and  CD  
REMARK    4  A    between atoms: CD   and  NE  
REMARK       I    between atoms: NE   and  CZ  
REMARK       I    between atoms: CZ   and  NH1 
REMARK       I    between atoms: CZ   and  NH2 
ROOT
ATOM      1  CA  ARG D 557     -26.217   2.705 -17.014  1.00 35.49     0.159 C 
ENDROOT
BRANCH   1   2
ATOM      2  CB  ARG D 557     -26.789   1.319 -17.183  1.00 35.49     0.034 C 
BRANCH   2   3
ATOM      3  CG  ARG D 557     -28.097   1.065 -16.568  1.00 35.49     0.027 C 
BRANCH   3   4
ATOM      4  CD  ARG D 557     -28.853   0.001 -17.268  1.00 35.49     0.116 C 
BRANCH   4   5
ATOM      5  NE  ARG D 557     -28.317  -1.309 -17.003  1.00 35.49    -0.212 N 
ATOM      6  CZ  ARG D 557     -28.960  -2.446 -17.147  1.00 35.49     0.666 C 
ATOM      7  NH1 ARG D 557     -30.216  -2.504 -17.552  1.00 35.49    -0.235 N 
ATOM      8  NH2 ARG D 557     -28.310  -3.541 -16.880  1.00 35.49    -0.235 N 
ATOM      9  HH  ARG D 557     -30.662  -1.795 -17.735  1.00 35.49     0.174 HD
ATOM     10  HH  ARG D 557     -30.583  -3.274 -17.631  1.00 35.49     0.174 HD
ATOM     11  HH  ARG D 557     -27.499  -3.473 -16.628  1.00 35.49     0.174 HD
ATOM     12  HH  ARG D 557     -28.691  -4.294 -16.966  1.00 35.49     0.174 HD
ATOM     13  HE  ARG D 557     -27.537  -1.361 -16.668  1.00 35.49     0.178 HD
ENDBRANCH   4   5
ENDBRANCH   3   4
ENDBRANCH   2   3
ENDBRANCH   1   2
END_RES ARG D 557
BEGIN_RES GLU D 570
REMARK  3 active torsions:
REMARK  status: ('A' for Active; 'I' for Inactive)
REMARK    5  A    between atoms: CA   and  CB  
REMARK    6  A    between atoms: CB   and  CG  
REMARK    7  A    between atoms: CG   and  CD  
ROOT
ATOM     14  CA  GLU D 570     -18.033  -6.348 -13.375  1.00 32.92     0.160 C 
ENDROOT
BRANCH  14  15
ATOM     15  CB  GLU D 570     -19.500  -6.345 -13.794  1.00 32.92     0.043 C 
BRANCH  15  16
ATOM     16  CG  GLU D 570     -20.087  -7.635 -14.241  1.00 32.92     0.100 C 
BRANCH  16  17
ATOM     17  CD  GLU D 570     -20.571  -7.598 -15.672  1.00 32.92     0.185 C 
ATOM     18  OE1 GLU D 570     -21.131  -8.604 -16.147  1.00 32.92    -0.647 OA
ATOM     19  OE2 GLU D 570     -20.372  -6.557 -16.329  1.00 32.92    -0.647 OA
ENDBRANCH  16  17
ENDBRANCH  15  16
ENDBRANCH  14  15
END_RES GLU D 570
ENDMDL
MODEL 9
REMARK VINA RESULT:      -8.5      4.021      8.522
REMARK  19 active torsions:
REMARK  status: ('A' for Active; 'I' for Inactive)
REMARK    1  A    between atoms: C_2  and  C_3 
REMARK    2  A    between atoms: C_3  and  C_4 
REMARK    3  A    between atoms: C_4  and  C_5 
REMARK    4  A    between atoms: C_5  and  C_6 
REMARK    5  A    between atoms: C_7  and  C_8 
REMARK    6  A    between atoms: C_8  and  C_9 
REMARK    7  A    between atoms: C_10  and  C_11 
REMARK    8  A    between atoms: C_11  and  C_12 
REMARK    9  A    between atoms: C_13  and  C_14 
REMARK   10  A    between atoms: C_14  and  C_15 
REMARK   11  A    between atoms: C_16  and  C_17 
REMARK   12  A    between atoms: C_17  and  C_18 
REMARK   13  A    between atoms: C_18  and  C_19 
REMARK   14  A    between atoms: C_19  and  C_20 
REMARK       I    between atoms: C_20  and  N_22 
REMARK   15  A    between atoms: N_22  and  C_23 
REMARK   16  A    between atoms: C_23  and  C_24 
REMARK   17  A    between atoms: C_24  and  C_25 
REMARK   18  A    between atoms: C_28  and  O_29 
REMARK   19  A    between atoms: C_30  and  O_31 
ROOT
HETATM    1  C   UNL     1     -22.298  -6.138  -2.061  1.00  0.00     0.013 C 
ENDROOT
BRANCH   1   2
HETATM    2  C   UNL     1     -22.235  -7.152  -0.914  1.00  0.00     0.027 C 
BRANCH   2   3
HETATM    3  C   UNL     1     -21.729  -8.489  -1.372  1.00  0.00    -0.030 C 
HETATM    4  C   UNL     1     -20.653  -9.096  -0.846  1.00  0.00    -0.027 C 
BRANCH   4   5
HETATM    5  C   UNL     1     -20.177 -10.449  -1.278  1.00  0.00     0.053 C 
BRANCH   5   6
HETATM    6  C   UNL     1     -19.737 -10.432  -2.711  1.00  0.00    -0.027 C 
HETATM    7  C   UNL     1     -19.003  -9.443  -3.247  1.00  0.00    -0.027 C 
BRANCH   7   8
HETATM    8  C   UNL     1     -18.573  -9.404  -4.681  1.00  0.00     0.053 C 
BRANCH   8   9
HETATM    9  C   UNL     1     -17.682 -10.565  -5.002  1.00  0.00    -0.027 C 
HETATM   10  C   UNL     1     -16.733 -10.531  -5.950  1.00  0.00    -0.027 C 
BRANCH  10  11
HETATM   11  C   UNL     1     -15.851 -11.694  -6.279  1.00  0.00     0.053 C 
BRANCH  11  12
HETATM   12  C   UNL     1     -16.662 -12.843  -6.795  1.00  0.00    -0.027 C 
HETATM   13  C   UNL     1     -17.474 -12.737  -7.856  1.00  0.00    -0.030 C 
BRANCH  13  14
HETATM   14  C   UNL     1     -18.297 -13.864  -8.403  1.00  0.00     0.027 C 
BRANCH  14  15
HETATM   15  C   UNL     1     -19.517 -14.110  -7.528  1.00  0.00     0.004 C 
BRANCH  15  16
HETATM   16  C   UNL     1     -20.604 -13.091  -7.846  1.00  0.00    -0.000 C 
BRANCH  16  17
HETATM   17  C   UNL     1     -20.706 -12.046  -6.744  1.00  0.00    -0.005 C 
HETATM   18  C   UNL     1     -20.782 -12.714  -5.383  1.00  0.00     0.005 C 
ENDBRANCH  16  17
ENDBRANCH  15  16
ENDBRANCH  14  15
ENDBRANCH  13  14
ENDBRANCH  11  12
ENDBRANCH  10  11
ENDBRANCH   8   9
ENDBRANCH   7   8
ENDBRANCH   5   6
ENDBRANCH   4   5
ENDBRANCH   2   3
ENDBRANCH   1   2
BRANCH   1  19
HETATM   19  C   UNL     1     -21.146  -6.310  -3.051  1.00  0.00     0.103 C 
BRANCH  19  20
HETATM   20  C   UNL     1     -21.620  -6.138  -4.476  1.00  0.00     0.217 C 
HETATM   21  O   UNL     1     -22.803  -6.235  -4.779  1.00  0.00    -0.274 OA
HETATM   22  N   UNL     1     -20.622  -5.892  -5.396  1.00  0.00    -0.361 N 
HETATM   23  H   UNL     1     -19.659  -5.829  -5.092  1.00  0.00     0.162 HD
BRANCH  22  24
HETATM   24  C   UNL     1     -20.963  -5.709  -6.796  1.00  0.00     0.127 C 
BRANCH  24  25
HETATM   25  C   UNL     1     -21.154  -4.244  -7.186  1.00  0.00     0.058 C 
BRANCH  25  26
HETATM   26  C   UNL     1     -21.340  -4.080  -8.676  1.00  0.00    -0.054 A 
HETATM   27  C   UNL     1     -20.274  -4.288  -9.568  1.00  0.00     0.010 A 
HETATM   28  C   UNL     1     -20.447  -4.112 -10.948  1.00  0.00     0.040 A 
HETATM   29  C   UNL     1     -21.692  -3.724 -11.433  1.00  0.00     0.098 A 
HETATM   30  C   UNL     1     -22.751  -3.514 -10.551  1.00  0.00     0.099 A 
HETATM   31  C   UNL     1     -22.584  -3.681  -9.185  1.00  0.00     0.046 A 
BRANCH  29  32
HETATM   32  O   UNL     1     -21.921  -3.532 -12.766  1.00  0.00    -0.358 OA
HETATM   33  H   UNL     1     -21.686  -2.613 -12.988  1.00  0.00     0.217 HD
ENDBRANCH  29  32
BRANCH  30  34
HETATM   34  O   UNL     1     -23.975  -3.136 -11.019  1.00  0.00    -0.358 OA
HETATM   35  H   UNL     1     -23.812  -2.832 -11.934  1.00  0.00     0.217 HD
ENDBRANCH  30  34
ENDBRANCH  25  26
ENDBRANCH  24  25
ENDBRANCH  22  24
ENDBRANCH  19  20
ENDBRANCH   1  19
TORSDOF 19
BEGIN_RES ARG D 557
REMARK  4 active torsions:
REMARK  status: ('A' for Active; 'I' for Inactive)
REMARK    1  A    between atoms: CA   and  CB  
REMARK    2  A    between atoms: CB   and  CG  
REMARK    3  A    between atoms: CG   and  CD  
REMARK    4  A    between atoms: CD   and  NE  
REMARK       I    between atoms: NE   and  CZ  
REMARK       I    between atoms: CZ   and  NH1 
REMARK       I    between atoms: CZ   and  NH2 
ROOT
ATOM      1  CA  ARG D 557     -26.217   2.705 -17.014  1.00 35.49     0.159 C 
ENDROOT
BRANCH   1   2
ATOM      2  CB  ARG D 557     -26.789   1.319 -17.183  1.00 35.49     0.034 C 
BRANCH   2   3
ATOM      3  CG  ARG D 557     -25.835   0.203 -17.161  1.00 35.49     0.027 C 
BRANCH   3   4
ATOM      4  CD  ARG D 557     -24.757   0.402 -16.165  1.00 35.49     0.116 C 
BRANCH   4   5
ATOM      5  NE  ARG D 557     -24.906  -0.464 -15.025  1.00 35.49    -0.212 N 
ATOM      6  CZ  ARG D 557     -24.074  -1.419 -14.673  1.00 35.49     0.666 C 
ATOM      7  NH1 ARG D 557     -22.984  -1.700 -15.362  1.00 35.49    -0.235 N 
ATOM      8  NH2 ARG D 557     -24.355  -2.093 -13.596  1.00 35.49    -0.235 N 
ATOM      9  HH  ARG D 557     -22.778  -1.267 -16.073  1.00 35.49     0.174 HD
ATOM     10  HH  ARG D 557     -22.477  -2.332 -15.083  1.00 35.49     0.174 HD
ATOM     11  HH  ARG D 557     -25.062  -1.884 -13.166  1.00 35.49     0.174 HD
ATOM     12  HH  ARG D 557     -23.840  -2.714 -13.334  1.00 35.49     0.174 HD
ATOM     13  HE  ARG D 557     -25.618  -0.401 -14.566  1.00 35.49     0.178 HD
ENDBRANCH   4   5
ENDBRANCH   3   4
ENDBRANCH   2   3
ENDBRANCH   1   2
END_RES ARG D 557
BEGIN_RES GLU D 570
REMARK  3 active torsions:
REMARK  status: ('A' for Active; 'I' for Inactive)
REMARK    5  A    between atoms: CA   and  CB  
REMARK    6  A    between atoms: CB   and  CG  
REMARK    7  A    between atoms: CG   and  CD  
ROOT
ATOM     14  CA  GLU D 570     -18.033  -6.348 -13.375  1.00 32.92     0.160 C 
ENDROOT
BRANCH  14  15
ATOM     15  CB  GLU D 570     -19.500  -6.345 -13.794  1.00 32.92     0.043 C 
BRANCH  15  16
ATOM     16  CG  GLU D 570     -19.802  -6.096 -15.227  1.00 32.92     0.100 C 
BRANCH  16  17
ATOM     17  CD  GLU D 570     -21.215  -5.613 -15.456  1.00 32.92     0.185 C 
ATOM     18  OE1 GLU D 570     -21.469  -4.950 -16.481  1.00 32.92    -0.647 OA
ATOM     19  OE2 GLU D 570     -22.073  -5.885 -14.594  1.00 32.92    -0.647 OA
ENDBRANCH  16  17
ENDBRANCH  15  16
ENDBRANCH  14  15
END_RES GLU D 570
ENDMDL
