MODEL 1
REMARK VINA RESULT:      -8.8      0.000      0.000
REMARK  10 active torsions:
REMARK  status: ('A' for Active; 'I' for Inactive)
REMARK    1  A    between atoms: O_2  and  C_3 
REMARK    2  A    between atoms: C_5  and  C_6 
REMARK    3  A    between atoms: C_6  and  N_7 
REMARK       I    between atoms: N_7  and  C_8 
REMARK    4  A    between atoms: C_8  and  C_10 
REMARK    5  A    between atoms: C_10  and  C_11 
REMARK    6  A    between atoms: C_11  and  C_12 
REMARK    7  A    between atoms: C_12  and  C_13 
REMARK    8  A    between atoms: C_13  and  C_14 
REMARK    9  A    between atoms: C_15  and  C_16 
REMARK   10  A    between atoms: C_21  and  O_22 
ROOT
HETATM    1  N   UNL     1     -21.256  -5.146  -6.538  1.00  0.00    -0.357 N 
HETATM    2  C   UNL     1     -20.659  -6.374  -6.441  1.00  0.00     0.217 C 
HETATM    3  O   UNL     1     -19.561  -6.639  -6.948  1.00  0.00    -0.274 OA
HETATM    4  H   UNL     1     -22.152  -5.008  -6.085  1.00  0.00     0.162 HD
ENDROOT
BRANCH   1   5
HETATM    5  C   UNL     1     -20.636  -4.064  -7.267  1.00  0.00     0.161 C 
BRANCH   5   6
HETATM    6  C   UNL     1     -21.038  -3.977  -8.723  1.00  0.00    -0.038 A 
HETATM    7  C   UNL     1     -22.366  -3.746  -9.119  1.00  0.00     0.048 A 
HETATM    8  C   UNL     1     -22.720  -3.633 -10.473  1.00  0.00     0.101 A 
HETATM    9  C   UNL     1     -21.722  -3.754 -11.443  1.00  0.00     0.099 A 
HETATM   10  C   UNL     1     -20.392  -3.971 -11.075  1.00  0.00     0.040 A 
HETATM   11  C   UNL     1     -20.059  -4.074  -9.719  1.00  0.00     0.012 A 
BRANCH   8  12
HETATM   12  O   UNL     1     -24.000  -3.415 -10.920  1.00  0.00    -0.353 OA
HETATM   13  C   UNL     1     -25.020  -3.341  -9.932  1.00  0.00     0.210 C 
ENDBRANCH   8  12
BRANCH   9  14
HETATM   14  O   UNL     1     -22.056  -3.660 -12.768  1.00  0.00    -0.358 OA
HETATM   15  H   UNL     1     -21.987  -2.736 -13.050  1.00  0.00     0.217 HD
ENDBRANCH   9  14
ENDBRANCH   5   6
ENDBRANCH   1   5
BRANCH   2  16
HETATM   16  C   UNL     1     -21.468  -7.380  -5.653  1.00  0.00     0.103 C 
BRANCH  16  17
HETATM   17  C   UNL     1     -22.196  -6.715  -4.489  1.00  0.00     0.010 C 
BRANCH  17  18
HETATM   18  C   UNL     1     -21.350  -6.697  -3.216  1.00  0.00     0.004 C 
BRANCH  18  19
HETATM   19  C   UNL     1     -22.150  -6.099  -2.059  1.00  0.00     0.027 C 
BRANCH  19  20
HETATM   20  C   UNL     1     -22.193  -7.032  -0.888  1.00  0.00    -0.030 C 
HETATM   21  C   UNL     1     -21.697  -8.279  -0.926  1.00  0.00    -0.027 C 
BRANCH  21  22
HETATM   22  C   UNL     1     -21.769  -9.232   0.240  1.00  0.00    -0.001 C 
HETATM   23  C   UNL     1     -21.101 -10.566  -0.100  1.00  0.00     0.013 C 
HETATM   24  C   UNL     1     -21.115  -8.620   1.477  1.00  0.00     0.013 C 
ENDBRANCH  21  22
ENDBRANCH  19  20
ENDBRANCH  18  19
ENDBRANCH  17  18
ENDBRANCH  16  17
ENDBRANCH   2  16
TORSDOF 10
BEGIN_RES ARG D 557
REMARK  4 active torsions:
REMARK  status: ('A' for Active; 'I' for Inactive)
REMARK    1  A    between atoms: CA   and  CB  
REMARK    2  A    between atoms: CB   and  CG  
REMARK    3  A    between atoms: CG   and  CD  
REMARK    4  A    between atoms: CD   and  NE  
REMARK       I    between atoms: NE   and  CZ  
REMARK       I    between atoms: CZ   and  NH1 
REMARK       I    between atoms: CZ   and  NH2 
ROOT
ATOM      1  CA  ARG D 557     -26.217   2.705 -17.014  1.00 35.49     0.159 C 
ENDROOT
BRANCH   1   2
ATOM      2  CB  ARG D 557     -26.789   1.319 -17.183  1.00 35.49     0.034 C 
BRANCH   2   3
ATOM      3  CG  ARG D 557     -25.836   0.203 -17.154  1.00 35.49     0.027 C 
BRANCH   3   4
ATOM      4  CD  ARG D 557     -24.784   0.386 -16.128  1.00 35.49     0.116 C 
BRANCH   4   5
ATOM      5  NE  ARG D 557     -24.962  -0.497 -15.005  1.00 35.49    -0.212 N 
ATOM      6  CZ  ARG D 557     -24.147  -1.465 -14.652  1.00 35.49     0.666 C 
ATOM      7  NH1 ARG D 557     -23.046  -1.746 -15.326  1.00 35.49    -0.235 N 
ATOM      8  NH2 ARG D 557     -24.455  -2.154 -13.592  1.00 35.49    -0.235 N 
ATOM      9  HH  ARG D 557     -22.822  -1.305 -16.025  1.00 35.49     0.174 HD
ATOM     10  HH  ARG D 557     -22.551  -2.387 -15.047  1.00 35.49     0.174 HD
ATOM     11  HH  ARG D 557     -25.168  -1.945 -13.173  1.00 35.49     0.174 HD
ATOM     12  HH  ARG D 557     -23.951  -2.784 -13.331  1.00 35.49     0.174 HD
ATOM     13  HE  ARG D 557     -25.683  -0.434 -14.558  1.00 35.49     0.178 HD
ENDBRANCH   4   5
ENDBRANCH   3   4
ENDBRANCH   2   3
ENDBRANCH   1   2
END_RES ARG D 557
BEGIN_RES GLU D 570
REMARK  3 active torsions:
REMARK  status: ('A' for Active; 'I' for Inactive)
REMARK    5  A    between atoms: CA   and  CB  
REMARK    6  A    between atoms: CB   and  CG  
REMARK    7  A    between atoms: CG   and  CD  
ROOT
ATOM     14  CA  GLU D 570     -18.033  -6.348 -13.375  1.00 32.92     0.160 C 
ENDROOT
BRANCH  14  15
ATOM     15  CB  GLU D 570     -19.500  -6.345 -13.794  1.00 32.92     0.043 C 
BRANCH  15  16
ATOM     16  CG  GLU D 570     -19.814  -5.929 -15.185  1.00 32.92     0.100 C 
BRANCH  16  17
ATOM     17  CD  GLU D 570     -21.289  -5.698 -15.413  1.00 32.92     0.185 C 
ATOM     18  OE1 GLU D 570     -21.698  -4.537 -15.603  1.00 32.92    -0.647 OA
ATOM     19  OE2 GLU D 570     -22.047  -6.688 -15.384  1.00 32.92    -0.647 OA
ENDBRANCH  16  17
ENDBRANCH  15  16
ENDBRANCH  14  15
END_RES GLU D 570
ENDMDL
MODEL 2
REMARK VINA RESULT:      -8.5      1.465      2.188
REMARK  10 active torsions:
REMARK  status: ('A' for Active; 'I' for Inactive)
REMARK    1  A    between atoms: O_2  and  C_3 
REMARK    2  A    between atoms: C_5  and  C_6 
REMARK    3  A    between atoms: C_6  and  N_7 
REMARK       I    between atoms: N_7  and  C_8 
REMARK    4  A    between atoms: C_8  and  C_10 
REMARK    5  A    between atoms: C_10  and  C_11 
REMARK    6  A    between atoms: C_11  and  C_12 
REMARK    7  A    between atoms: C_12  and  C_13 
REMARK    8  A    between atoms: C_13  and  C_14 
REMARK    9  A    between atoms: C_15  and  C_16 
REMARK   10  A    between atoms: C_21  and  O_22 
ROOT
HETATM    1  N   UNL     1     -20.128  -5.766  -7.835  1.00  0.00    -0.357 N 
HETATM    2  C   UNL     1     -20.104  -5.744  -6.466  1.00  0.00     0.217 C 
HETATM    3  O   UNL     1     -20.050  -4.701  -5.803  1.00  0.00    -0.274 OA
HETATM    4  H   UNL     1     -20.181  -6.663  -8.302  1.00  0.00     0.162 HD
ENDROOT
BRANCH   1   5
HETATM    5  C   UNL     1     -20.074  -4.547  -8.607  1.00  0.00     0.161 C 
BRANCH   5   6
HETATM    6  C   UNL     1     -21.386  -4.151  -9.248  1.00  0.00    -0.038 A 
HETATM    7  C   UNL     1     -21.483  -3.827 -10.612  1.00  0.00     0.048 A 
HETATM    8  C   UNL     1     -22.713  -3.494 -11.202  1.00  0.00     0.101 A 
HETATM    9  C   UNL     1     -23.862  -3.487 -10.408  1.00  0.00     0.099 A 
HETATM   10  C   UNL     1     -23.794  -3.817  -9.052  1.00  0.00     0.040 A 
HETATM   11  C   UNL     1     -22.559  -4.153  -8.485  1.00  0.00     0.012 A 
BRANCH   8  12
HETATM   12  O   UNL     1     -22.868  -3.162 -12.526  1.00  0.00    -0.353 OA
HETATM   13  C   UNL     1     -22.409  -4.110 -13.482  1.00  0.00     0.210 C 
ENDBRANCH   8  12
BRANCH   9  14
HETATM   14  O   UNL     1     -25.066  -3.151 -10.968  1.00  0.00    -0.358 OA
HETATM   15  H   UNL     1     -25.685  -3.888 -10.862  1.00  0.00     0.217 HD
ENDBRANCH   9  14
ENDBRANCH   5   6
ENDBRANCH   1   5
BRANCH   2  16
HETATM   16  C   UNL     1     -20.150  -7.119  -5.838  1.00  0.00     0.103 C 
BRANCH  16  17
HETATM   17  C   UNL     1     -21.365  -7.273  -4.931  1.00  0.00     0.010 C 
BRANCH  17  18
HETATM   18  C   UNL     1     -20.991  -7.209  -3.450  1.00  0.00     0.004 C 
BRANCH  18  19
HETATM   19  C   UNL     1     -21.778  -6.099  -2.754  1.00  0.00     0.027 C 
BRANCH  19  20
HETATM   20  C   UNL     1     -22.259  -6.538  -1.405  1.00  0.00    -0.030 C 
HETATM   21  C   UNL     1     -21.968  -7.738  -0.878  1.00  0.00    -0.027 C 
BRANCH  21  22
HETATM   22  C   UNL     1     -22.478  -8.196   0.465  1.00  0.00    -0.001 C 
HETATM   23  C   UNL     1     -23.436  -9.380   0.313  1.00  0.00     0.013 C 
HETATM   24  C   UNL     1     -21.317  -8.576   1.381  1.00  0.00     0.013 C 
ENDBRANCH  21  22
ENDBRANCH  19  20
ENDBRANCH  18  19
ENDBRANCH  17  18
ENDBRANCH  16  17
ENDBRANCH   2  16
TORSDOF 10
BEGIN_RES ARG D 557
REMARK  4 active torsions:
REMARK  status: ('A' for Active; 'I' for Inactive)
REMARK    1  A    between atoms: CA   and  CB  
REMARK    2  A    between atoms: CB   and  CG  
REMARK    3  A    between atoms: CG   and  CD  
REMARK    4  A    between atoms: CD   and  NE  
REMARK       I    between atoms: NE   and  CZ  
REMARK       I    between atoms: CZ   and  NH1 
REMARK       I    between atoms: CZ   and  NH2 
ROOT
ATOM      1  CA  ARG D 557     -26.217   2.705 -17.014  1.00 35.49     0.159 C 
ENDROOT
BRANCH   1   2
ATOM      2  CB  ARG D 557     -26.789   1.319 -17.183  1.00 35.49     0.034 C 
BRANCH   2   3
ATOM      3  CG  ARG D 557     -25.992   0.206 -16.653  1.00 35.49     0.027 C 
BRANCH   3   4
ATOM      4  CD  ARG D 557     -26.833  -0.921 -16.190  1.00 35.49     0.116 C 
BRANCH   4   5
ATOM      5  NE  ARG D 557     -26.283  -1.567 -15.028  1.00 35.49    -0.212 N 
ATOM      6  CZ  ARG D 557     -26.301  -2.858 -14.786  1.00 35.49     0.666 C 
ATOM      7  NH1 ARG D 557     -26.860  -3.726 -15.609  1.00 35.49    -0.235 N 
ATOM      8  NH2 ARG D 557     -25.735  -3.272 -13.689  1.00 35.49    -0.235 N 
ATOM      9  HH  ARG D 557     -27.236  -3.477 -16.337  1.00 35.49     0.174 HD
ATOM     10  HH  ARG D 557     -26.839  -4.557 -15.400  1.00 35.49     0.174 HD
ATOM     11  HH  ARG D 557     -25.376  -2.689 -13.180  1.00 35.49     0.174 HD
ATOM     12  HH  ARG D 557     -25.723  -4.098 -13.501  1.00 35.49     0.174 HD
ATOM     13  HE  ARG D 557     -25.968  -1.075 -14.410  1.00 35.49     0.178 HD
ENDBRANCH   4   5
ENDBRANCH   3   4
ENDBRANCH   2   3
ENDBRANCH   1   2
END_RES ARG D 557
BEGIN_RES GLU D 570
REMARK  3 active torsions:
REMARK  status: ('A' for Active; 'I' for Inactive)
REMARK    5  A    between atoms: CA   and  CB  
REMARK    6  A    between atoms: CB   and  CG  
REMARK    7  A    between atoms: CG   and  CD  
ROOT
ATOM     14  CA  GLU D 570     -18.033  -6.348 -13.375  1.00 32.92     0.160 C 
ENDROOT
BRANCH  14  15
ATOM     15  CB  GLU D 570     -19.500  -6.345 -13.794  1.00 32.92     0.043 C 
BRANCH  15  16
ATOM     16  CG  GLU D 570     -19.797  -6.424 -15.248  1.00 32.92     0.100 C 
BRANCH  16  17
ATOM     17  CD  GLU D 570     -20.916  -7.386 -15.569  1.00 32.92     0.185 C 
ATOM     18  OE1 GLU D 570     -20.652  -8.595 -15.716  1.00 32.92    -0.647 OA
ATOM     19  OE2 GLU D 570     -22.068  -6.924 -15.693  1.00 32.92    -0.647 OA
ENDBRANCH  16  17
ENDBRANCH  15  16
ENDBRANCH  14  15
END_RES GLU D 570
ENDMDL
MODEL 3
REMARK VINA RESULT:      -8.3      2.119      2.920
REMARK  10 active torsions:
REMARK  status: ('A' for Active; 'I' for Inactive)
REMARK    1  A    between atoms: O_2  and  C_3 
REMARK    2  A    between atoms: C_5  and  C_6 
REMARK    3  A    between atoms: C_6  and  N_7 
REMARK       I    between atoms: N_7  and  C_8 
REMARK    4  A    between atoms: C_8  and  C_10 
REMARK    5  A    between atoms: C_10  and  C_11 
REMARK    6  A    between atoms: C_11  and  C_12 
REMARK    7  A    between atoms: C_12  and  C_13 
REMARK    8  A    between atoms: C_13  and  C_14 
REMARK    9  A    between atoms: C_15  and  C_16 
REMARK   10  A    between atoms: C_21  and  O_22 
ROOT
HETATM    1  N   UNL     1     -20.962  -4.748  -7.732  1.00  0.00    -0.357 N 
HETATM    2  C   UNL     1     -19.974  -4.760  -6.784  1.00  0.00     0.217 C 
HETATM    3  O   UNL     1     -18.784  -4.530  -7.039  1.00  0.00    -0.274 OA
HETATM    4  H   UNL     1     -21.913  -4.938  -7.439  1.00  0.00     0.162 HD
ENDROOT
BRANCH   1   5
HETATM    5  C   UNL     1     -20.669  -4.479  -9.120  1.00  0.00     0.161 C 
BRANCH   5   6
HETATM    6  C   UNL     1     -21.860  -4.028  -9.938  1.00  0.00    -0.038 A 
HETATM    7  C   UNL     1     -21.737  -3.631 -11.280  1.00  0.00     0.048 A 
HETATM    8  C   UNL     1     -22.856  -3.248 -12.038  1.00  0.00     0.101 A 
HETATM    9  C   UNL     1     -24.116  -3.264 -11.435  1.00  0.00     0.099 A 
HETATM   10  C   UNL     1     -24.266  -3.666 -10.106  1.00  0.00     0.040 A 
HETATM   11  C   UNL     1     -23.139  -4.052  -9.370  1.00  0.00     0.012 A 
BRANCH   8  12
HETATM   12  O   UNL     1     -22.797  -2.845 -13.349  1.00  0.00    -0.353 OA
HETATM   13  C   UNL     1     -22.603  -3.862 -14.324  1.00  0.00     0.210 C 
ENDBRANCH   8  12
BRANCH   9  14
HETATM   14  O   UNL     1     -25.213  -2.879 -12.159  1.00  0.00    -0.358 OA
HETATM   15  H   UNL     1     -25.149  -1.934 -12.360  1.00  0.00     0.217 HD
ENDBRANCH   9  14
ENDBRANCH   5   6
ENDBRANCH   1   5
BRANCH   2  16
HETATM   16  C   UNL     1     -20.473  -5.078  -5.393  1.00  0.00     0.103 C 
BRANCH  16  17
HETATM   17  C   UNL     1     -20.685  -6.577  -5.211  1.00  0.00     0.010 C 
BRANCH  17  18
HETATM   18  C   UNL     1     -21.821  -6.885  -4.235  1.00  0.00     0.004 C 
BRANCH  18  19
HETATM   19  C   UNL     1     -21.520  -6.276  -2.866  1.00  0.00     0.027 C 
BRANCH  19  20
HETATM   20  C   UNL     1     -21.697  -7.285  -1.772  1.00  0.00    -0.030 C 
HETATM   21  C   UNL     1     -22.458  -7.064  -0.688  1.00  0.00    -0.027 C 
BRANCH  21  22
HETATM   22  C   UNL     1     -22.611  -8.064   0.430  1.00  0.00    -0.001 C 
HETATM   23  C   UNL     1     -23.208  -9.375  -0.084  1.00  0.00     0.013 C 
HETATM   24  C   UNL     1     -21.266  -8.329   1.104  1.00  0.00     0.013 C 
ENDBRANCH  21  22
ENDBRANCH  19  20
ENDBRANCH  18  19
ENDBRANCH  17  18
ENDBRANCH  16  17
ENDBRANCH   2  16
TORSDOF 10
BEGIN_RES ARG D 557
REMARK  4 active torsions:
REMARK  status: ('A' for Active; 'I' for Inactive)
REMARK    1  A    between atoms: CA   and  CB  
REMARK    2  A    between atoms: CB   and  CG  
REMARK    3  A    between atoms: CG   and  CD  
REMARK    4  A    between atoms: CD   and  NE  
REMARK       I    between atoms: NE   and  CZ  
REMARK       I    between atoms: CZ   and  NH1 
REMARK       I    between atoms: CZ   and  NH2 
ROOT
ATOM      1  CA  ARG D 557     -26.217   2.705 -17.014  1.00 35.49     0.159 C 
ENDROOT
BRANCH   1   2
ATOM      2  CB  ARG D 557     -26.789   1.319 -17.183  1.00 35.49     0.034 C 
BRANCH   2   3
ATOM      3  CG  ARG D 557     -28.235   1.225 -17.415  1.00 35.49     0.027 C 
BRANCH   3   4
ATOM      4  CD  ARG D 557     -28.897   0.286 -16.480  1.00 35.49     0.116 C 
BRANCH   4   5
ATOM      5  NE  ARG D 557     -29.283  -0.941 -17.126  1.00 35.49    -0.212 N 
ATOM      6  CZ  ARG D 557     -28.655  -2.091 -17.028  1.00 35.49     0.666 C 
ATOM      7  NH1 ARG D 557     -27.557  -2.240 -16.310  1.00 35.49    -0.235 N 
ATOM      8  NH2 ARG D 557     -29.159  -3.107 -17.666  1.00 35.49    -0.235 N 
ATOM      9  HH  ARG D 557     -27.209  -1.586 -15.880  1.00 35.49     0.174 HD
ATOM     10  HH  ARG D 557     -27.192  -3.015 -16.281  1.00 35.49     0.174 HD
ATOM     11  HH  ARG D 557     -29.874  -2.982 -18.116  1.00 35.49     0.174 HD
ATOM     12  HH  ARG D 557     -28.784  -3.866 -17.624  1.00 35.49     0.174 HD
ATOM     13  HE  ARG D 557     -29.939  -0.918 -17.667  1.00 35.49     0.178 HD
ENDBRANCH   4   5
ENDBRANCH   3   4
ENDBRANCH   2   3
ENDBRANCH   1   2
END_RES ARG D 557
BEGIN_RES GLU D 570
REMARK  3 active torsions:
REMARK  status: ('A' for Active; 'I' for Inactive)
REMARK    5  A    between atoms: CA   and  CB  
REMARK    6  A    between atoms: CB   and  CG  
REMARK    7  A    between atoms: CG   and  CD  
ROOT
ATOM     14  CA  GLU D 570     -18.033  -6.348 -13.375  1.00 32.92     0.160 C 
ENDROOT
BRANCH  14  15
ATOM     15  CB  GLU D 570     -19.500  -6.345 -13.794  1.00 32.92     0.043 C 
BRANCH  15  16
ATOM     16  CG  GLU D 570     -19.797  -6.445 -15.246  1.00 32.92     0.100 C 
BRANCH  16  17
ATOM     17  CD  GLU D 570     -20.887  -7.444 -15.557  1.00 32.92     0.185 C 
ATOM     18  OE1 GLU D 570     -22.065  -7.047 -15.645  1.00 32.92    -0.647 OA
ATOM     19  OE2 GLU D 570     -20.562  -8.640 -15.697  1.00 32.92    -0.647 OA
ENDBRANCH  16  17
ENDBRANCH  15  16
ENDBRANCH  14  15
END_RES GLU D 570
ENDMDL
MODEL 4
REMARK VINA RESULT:      -8.3      2.194      3.518
REMARK  10 active torsions:
REMARK  status: ('A' for Active; 'I' for Inactive)
REMARK    1  A    between atoms: O_2  and  C_3 
REMARK    2  A    between atoms: C_5  and  C_6 
REMARK    3  A    between atoms: C_6  and  N_7 
REMARK       I    between atoms: N_7  and  C_8 
REMARK    4  A    between atoms: C_8  and  C_10 
REMARK    5  A    between atoms: C_10  and  C_11 
REMARK    6  A    between atoms: C_11  and  C_12 
REMARK    7  A    between atoms: C_12  and  C_13 
REMARK    8  A    between atoms: C_13  and  C_14 
REMARK    9  A    between atoms: C_15  and  C_16 
REMARK   10  A    between atoms: C_21  and  O_22 
ROOT
HETATM    1  N   UNL     1     -22.034  -4.527  -9.286  1.00  0.00    -0.357 N 
HETATM    2  C   UNL     1     -22.158  -4.337  -7.935  1.00  0.00     0.217 C 
HETATM    3  O   UNL     1     -23.237  -4.416  -7.334  1.00  0.00    -0.274 OA
HETATM    4  H   UNL     1     -21.113  -4.454  -9.700  1.00  0.00     0.162 HD
ENDROOT
BRANCH   1   5
HETATM    5  C   UNL     1     -23.182  -4.820 -10.112  1.00  0.00     0.161 C 
BRANCH   5   6
HETATM    6  C   UNL     1     -23.117  -4.237 -11.507  1.00  0.00    -0.038 A 
HETATM    7  C   UNL     1     -23.285  -5.029 -12.655  1.00  0.00     0.048 A 
HETATM    8  C   UNL     1     -23.257  -4.469 -13.943  1.00  0.00     0.101 A 
HETATM    9  C   UNL     1     -23.058  -3.093 -14.076  1.00  0.00     0.099 A 
HETATM   10  C   UNL     1     -22.902  -2.283 -12.949  1.00  0.00     0.040 A 
HETATM   11  C   UNL     1     -22.940  -2.858 -11.674  1.00  0.00     0.012 A 
BRANCH   8  12
HETATM   12  O   UNL     1     -23.407  -5.192 -15.101  1.00  0.00    -0.353 OA
HETATM   13  C   UNL     1     -24.228  -6.351 -15.031  1.00  0.00     0.210 C 
ENDBRANCH   8  12
BRANCH   9  14
HETATM   14  O   UNL     1     -23.015  -2.537 -15.327  1.00  0.00    -0.358 OA
HETATM   15  H   UNL     1     -23.221  -1.592 -15.265  1.00  0.00     0.217 HD
ENDBRANCH   9  14
ENDBRANCH   5   6
ENDBRANCH   1   5
BRANCH   2  16
HETATM   16  C   UNL     1     -20.850  -4.023  -7.246  1.00  0.00     0.103 C 
BRANCH  16  17
HETATM   17  C   UNL     1     -20.679  -4.853  -5.978  1.00  0.00     0.010 C 
BRANCH  17  18
HETATM   18  C   UNL     1     -20.186  -6.268  -6.277  1.00  0.00     0.004 C 
BRANCH  18  19
HETATM   19  C   UNL     1     -21.152  -7.299  -5.693  1.00  0.00     0.027 C 
BRANCH  19  20
HETATM   20  C   UNL     1     -21.454  -7.006  -4.255  1.00  0.00    -0.030 C 
HETATM   21  C   UNL     1     -20.940  -7.717  -3.239  1.00  0.00    -0.027 C 
BRANCH  21  22
HETATM   22  C   UNL     1     -21.268  -7.447  -1.792  1.00  0.00    -0.001 C 
HETATM   23  C   UNL     1     -22.206  -6.246  -1.658  1.00  0.00     0.013 C 
HETATM   24  C   UNL     1     -21.897  -8.678  -1.143  1.00  0.00     0.013 C 
ENDBRANCH  21  22
ENDBRANCH  19  20
ENDBRANCH  18  19
ENDBRANCH  17  18
ENDBRANCH  16  17
ENDBRANCH   2  16
TORSDOF 10
BEGIN_RES ARG D 557
REMARK  4 active torsions:
REMARK  status: ('A' for Active; 'I' for Inactive)
REMARK    1  A    between atoms: CA   and  CB  
REMARK    2  A    between atoms: CB   and  CG  
REMARK    3  A    between atoms: CG   and  CD  
REMARK    4  A    between atoms: CD   and  NE  
REMARK       I    between atoms: NE   and  CZ  
REMARK       I    between atoms: CZ   and  NH1 
REMARK       I    between atoms: CZ   and  NH2 
ROOT
ATOM      1  CA  ARG D 557     -26.217   2.705 -17.014  1.00 35.49     0.159 C 
ENDROOT
BRANCH   1   2
ATOM      2  CB  ARG D 557     -26.789   1.319 -17.183  1.00 35.49     0.034 C 
BRANCH   2   3
ATOM      3  CG  ARG D 557     -28.241   1.179 -17.017  1.00 35.49     0.027 C 
BRANCH   3   4
ATOM      4  CD  ARG D 557     -28.631  -0.183 -16.587  1.00 35.49     0.116 C 
BRANCH   4   5
ATOM      5  NE  ARG D 557     -27.545  -0.883 -15.951  1.00 35.49    -0.212 N 
ATOM      6  CZ  ARG D 557     -27.301  -2.171 -16.045  1.00 35.49     0.666 C 
ATOM      7  NH1 ARG D 557     -28.064  -2.987 -16.748  1.00 35.49    -0.235 N 
ATOM      8  NH2 ARG D 557     -26.258  -2.631 -15.417  1.00 35.49    -0.235 N 
ATOM      9  HH  ARG D 557     -28.754  -2.705 -17.170  1.00 35.49     0.174 HD
ATOM     10  HH  ARG D 557     -27.854  -3.818 -16.775  1.00 35.49     0.174 HD
ATOM     11  HH  ARG D 557     -25.780  -2.079 -14.977  1.00 35.49     0.174 HD
ATOM     12  HH  ARG D 557     -26.067  -3.456 -15.458  1.00 35.49     0.174 HD
ATOM     13  HE  ARG D 557     -27.046  -0.446 -15.419  1.00 35.49     0.178 HD
ENDBRANCH   4   5
ENDBRANCH   3   4
ENDBRANCH   2   3
ENDBRANCH   1   2
END_RES ARG D 557
BEGIN_RES GLU D 570
REMARK  3 active torsions:
REMARK  status: ('A' for Active; 'I' for Inactive)
REMARK    5  A    between atoms: CA   and  CB  
REMARK    6  A    between atoms: CB   and  CG  
REMARK    7  A    between atoms: CG   and  CD  
ROOT
ATOM     14  CA  GLU D 570     -18.033  -6.348 -13.375  1.00 32.92     0.160 C 
ENDROOT
BRANCH  14  15
ATOM     15  CB  GLU D 570     -19.500  -6.345 -13.794  1.00 32.92     0.043 C 
BRANCH  15  16
ATOM     16  CG  GLU D 570     -19.799  -6.173 -15.239  1.00 32.92     0.100 C 
BRANCH  16  17
ATOM     17  CD  GLU D 570     -20.645  -7.291 -15.803  1.00 32.92     0.185 C 
ATOM     18  OE1 GLU D 570     -20.657  -8.393 -15.222  1.00 32.92    -0.647 OA
ATOM     19  OE2 GLU D 570     -21.289  -7.068 -16.847  1.00 32.92    -0.647 OA
ENDBRANCH  16  17
ENDBRANCH  15  16
ENDBRANCH  14  15
END_RES GLU D 570
ENDMDL
MODEL 5
REMARK VINA RESULT:      -7.8      1.965      2.395
REMARK  10 active torsions:
REMARK  status: ('A' for Active; 'I' for Inactive)
REMARK    1  A    between atoms: O_2  and  C_3 
REMARK    2  A    between atoms: C_5  and  C_6 
REMARK    3  A    between atoms: C_6  and  N_7 
REMARK       I    between atoms: N_7  and  C_8 
REMARK    4  A    between atoms: C_8  and  C_10 
REMARK    5  A    between atoms: C_10  and  C_11 
REMARK    6  A    between atoms: C_11  and  C_12 
REMARK    7  A    between atoms: C_12  and  C_13 
REMARK    8  A    between atoms: C_13  and  C_14 
REMARK    9  A    between atoms: C_15  and  C_16 
REMARK   10  A    between atoms: C_21  and  O_22 
ROOT
HETATM    1  N   UNL     1     -21.246  -5.279  -6.633  1.00  0.00    -0.357 N 
HETATM    2  C   UNL     1     -21.024  -5.453  -5.293  1.00  0.00     0.217 C 
HETATM    3  O   UNL     1     -20.188  -4.803  -4.652  1.00  0.00    -0.274 OA
HETATM    4  H   UNL     1     -21.956  -5.845  -7.082  1.00  0.00     0.162 HD
ENDROOT
BRANCH   1   5
HETATM    5  C   UNL     1     -20.490  -4.317  -7.401  1.00  0.00     0.161 C 
BRANCH   5   6
HETATM    6  C   UNL     1     -20.957  -4.149  -8.831  1.00  0.00    -0.038 A 
HETATM    7  C   UNL     1     -22.278  -3.791  -9.147  1.00  0.00     0.048 A 
HETATM    8  C   UNL     1     -22.690  -3.604 -10.477  1.00  0.00     0.101 A 
HETATM    9  C   UNL     1     -21.757  -3.781 -11.502  1.00  0.00     0.099 A 
HETATM   10  C   UNL     1     -20.435  -4.124 -11.213  1.00  0.00     0.040 A 
HETATM   11  C   UNL     1     -20.043  -4.299  -9.880  1.00  0.00     0.012 A 
BRANCH   8  12
HETATM   12  O   UNL     1     -23.967  -3.262 -10.848  1.00  0.00    -0.353 OA
HETATM   13  C   UNL     1     -24.953  -3.258  -9.823  1.00  0.00     0.210 C 
ENDBRANCH   8  12
BRANCH   9  14
HETATM   14  O   UNL     1     -22.149  -3.615 -12.804  1.00  0.00    -0.358 OA
HETATM   15  H   UNL     1     -22.196  -2.669 -13.007  1.00  0.00     0.217 HD
ENDBRANCH   9  14
ENDBRANCH   5   6
ENDBRANCH   1   5
BRANCH   2  16
HETATM   16  C   UNL     1     -21.899  -6.515  -4.667  1.00  0.00     0.103 C 
BRANCH  16  17
HETATM   17  C   UNL     1     -21.435  -6.855  -3.255  1.00  0.00     0.010 C 
BRANCH  17  18
HETATM   18  C   UNL     1     -22.338  -6.238  -2.187  1.00  0.00     0.004 C 
BRANCH  18  19
HETATM   19  C   UNL     1     -22.048  -6.865  -0.824  1.00  0.00     0.027 C 
BRANCH  19  20
HETATM   20  C   UNL     1     -21.925  -8.354  -0.926  1.00  0.00    -0.030 C 
HETATM   21  C   UNL     1     -22.807  -9.202  -0.374  1.00  0.00    -0.027 C 
BRANCH  21  22
HETATM   22  C   UNL     1     -22.668 -10.702  -0.446  1.00  0.00    -0.001 C 
HETATM   23  C   UNL     1     -21.497 -11.186   0.412  1.00  0.00     0.013 C 
HETATM   24  C   UNL     1     -23.960 -11.385  -0.002  1.00  0.00     0.013 C 
ENDBRANCH  21  22
ENDBRANCH  19  20
ENDBRANCH  18  19
ENDBRANCH  17  18
ENDBRANCH  16  17
ENDBRANCH   2  16
TORSDOF 10
BEGIN_RES ARG D 557
REMARK  4 active torsions:
REMARK  status: ('A' for Active; 'I' for Inactive)
REMARK    1  A    between atoms: CA   and  CB  
REMARK    2  A    between atoms: CB   and  CG  
REMARK    3  A    between atoms: CG   and  CD  
REMARK    4  A    between atoms: CD   and  NE  
REMARK       I    between atoms: NE   and  CZ  
REMARK       I    between atoms: CZ   and  NH1 
REMARK       I    between atoms: CZ   and  NH2 
ROOT
ATOM      1  CA  ARG D 557     -26.217   2.705 -17.014  1.00 35.49     0.159 C 
ENDROOT
BRANCH   1   2
ATOM      2  CB  ARG D 557     -26.789   1.319 -17.183  1.00 35.49     0.034 C 
BRANCH   2   3
ATOM      3  CG  ARG D 557     -28.232   1.226 -17.436  1.00 35.49     0.027 C 
BRANCH   3   4
ATOM      4  CD  ARG D 557     -28.912   0.308 -16.494  1.00 35.49     0.116 C 
BRANCH   4   5
ATOM      5  NE  ARG D 557     -29.324  -0.915 -17.131  1.00 35.49    -0.212 N 
ATOM      6  CZ  ARG D 557     -28.705  -2.071 -17.048  1.00 35.49     0.666 C 
ATOM      7  NH1 ARG D 557     -27.591  -2.231 -16.356  1.00 35.49    -0.235 N 
ATOM      8  NH2 ARG D 557     -29.233  -3.082 -17.675  1.00 35.49    -0.235 N 
ATOM      9  HH  ARG D 557     -27.227  -1.580 -15.935  1.00 35.49     0.174 HD
ATOM     10  HH  ARG D 557     -27.233  -3.009 -16.336  1.00 35.49     0.174 HD
ATOM     11  HH  ARG D 557     -29.956  -2.951 -18.107  1.00 35.49     0.174 HD
ATOM     12  HH  ARG D 557     -28.864  -3.845 -17.641  1.00 35.49     0.174 HD
ATOM     13  HE  ARG D 557     -29.993  -0.886 -17.656  1.00 35.49     0.178 HD
ENDBRANCH   4   5
ENDBRANCH   3   4
ENDBRANCH   2   3
ENDBRANCH   1   2
END_RES ARG D 557
BEGIN_RES GLU D 570
REMARK  3 active torsions:
REMARK  status: ('A' for Active; 'I' for Inactive)
REMARK    5  A    between atoms: CA   and  CB  
REMARK    6  A    between atoms: CB   and  CG  
REMARK    7  A    between atoms: CG   and  CD  
ROOT
ATOM     14  CA  GLU D 570     -18.033  -6.348 -13.375  1.00 32.92     0.160 C 
ENDROOT
BRANCH  14  15
ATOM     15  CB  GLU D 570     -19.500  -6.345 -13.794  1.00 32.92     0.043 C 
BRANCH  15  16
ATOM     16  CG  GLU D 570     -19.810  -5.979 -15.200  1.00 32.92     0.100 C 
BRANCH  16  17
ATOM     17  CD  GLU D 570     -21.290  -5.815 -15.455  1.00 32.92     0.185 C 
ATOM     18  OE1 GLU D 570     -21.751  -4.671 -15.628  1.00 32.92    -0.647 OA
ATOM     19  OE2 GLU D 570     -21.999  -6.841 -15.463  1.00 32.92    -0.647 OA
ENDBRANCH  16  17
ENDBRANCH  15  16
ENDBRANCH  14  15
END_RES GLU D 570
ENDMDL
MODEL 6
REMARK VINA RESULT:      -7.8      2.354      3.583
REMARK  10 active torsions:
REMARK  status: ('A' for Active; 'I' for Inactive)
REMARK    1  A    between atoms: O_2  and  C_3 
REMARK    2  A    between atoms: C_5  and  C_6 
REMARK    3  A    between atoms: C_6  and  N_7 
REMARK       I    between atoms: N_7  and  C_8 
REMARK    4  A    between atoms: C_8  and  C_10 
REMARK    5  A    between atoms: C_10  and  C_11 
REMARK    6  A    between atoms: C_11  and  C_12 
REMARK    7  A    between atoms: C_12  and  C_13 
REMARK    8  A    between atoms: C_13  and  C_14 
REMARK    9  A    between atoms: C_15  and  C_16 
REMARK   10  A    between atoms: C_21  and  O_22 
ROOT
HETATM    1  N   UNL     1     -24.064  -4.051  -8.700  1.00  0.00    -0.357 N 
HETATM    2  C   UNL     1     -22.798  -3.996  -8.180  1.00  0.00     0.217 C 
HETATM    3  O   UNL     1     -21.939  -3.193  -8.566  1.00  0.00    -0.274 OA
HETATM    4  H   UNL     1     -24.712  -4.733  -8.322  1.00  0.00     0.162 HD
ENDROOT
BRANCH   1   5
HETATM    5  C   UNL     1     -24.478  -3.169  -9.766  1.00  0.00     0.161 C 
BRANCH   5   6
HETATM    6  C   UNL     1     -24.194  -3.690 -11.159  1.00  0.00    -0.038 A 
HETATM    7  C   UNL     1     -24.503  -2.946 -12.310  1.00  0.00     0.048 A 
HETATM    8  C   UNL     1     -24.204  -3.426 -13.596  1.00  0.00     0.101 A 
HETATM    9  C   UNL     1     -23.584  -4.672 -13.723  1.00  0.00     0.099 A 
HETATM   10  C   UNL     1     -23.256  -5.424 -12.593  1.00  0.00     0.040 A 
HETATM   11  C   UNL     1     -23.556  -4.925 -11.320  1.00  0.00     0.012 A 
BRANCH   8  12
HETATM   12  O   UNL     1     -24.487  -2.749 -14.757  1.00  0.00    -0.353 OA
HETATM   13  C   UNL     1     -24.047  -1.399 -14.835  1.00  0.00     0.210 C 
ENDBRANCH   8  12
BRANCH   9  14
HETATM   14  O   UNL     1     -23.299  -5.157 -14.972  1.00  0.00    -0.358 OA
HETATM   15  H   UNL     1     -23.290  -4.425 -15.605  1.00  0.00     0.217 HD
ENDBRANCH   9  14
ENDBRANCH   5   6
ENDBRANCH   1   5
BRANCH   2  16
HETATM   16  C   UNL     1     -22.549  -5.009  -7.086  1.00  0.00     0.103 C 
BRANCH  16  17
HETATM   17  C   UNL     1     -21.139  -5.584  -7.174  1.00  0.00     0.010 C 
BRANCH  17  18
HETATM   18  C   UNL     1     -20.784  -6.431  -5.952  1.00  0.00     0.004 C 
BRANCH  18  19
HETATM   19  C   UNL     1     -21.920  -6.386  -4.931  1.00  0.00     0.027 C 
BRANCH  19  20
HETATM   20  C   UNL     1     -21.558  -7.132  -3.683  1.00  0.00    -0.030 C 
HETATM   21  C   UNL     1     -21.800  -6.659  -2.450  1.00  0.00    -0.027 C 
BRANCH  21  22
HETATM   22  C   UNL     1     -21.407  -7.392  -1.192  1.00  0.00    -0.001 C 
HETATM   23  C   UNL     1     -22.606  -7.559  -0.257  1.00  0.00     0.013 C 
HETATM   24  C   UNL     1     -20.811  -8.757  -1.528  1.00  0.00     0.013 C 
ENDBRANCH  21  22
ENDBRANCH  19  20
ENDBRANCH  18  19
ENDBRANCH  17  18
ENDBRANCH  16  17
ENDBRANCH   2  16
TORSDOF 10
BEGIN_RES ARG D 557
REMARK  4 active torsions:
REMARK  status: ('A' for Active; 'I' for Inactive)
REMARK    1  A    between atoms: CA   and  CB  
REMARK    2  A    between atoms: CB   and  CG  
REMARK    3  A    between atoms: CG   and  CD  
REMARK    4  A    between atoms: CD   and  NE  
REMARK       I    between atoms: NE   and  CZ  
REMARK       I    between atoms: CZ   and  NH1 
REMARK       I    between atoms: CZ   and  NH2 
ROOT
ATOM      1  CA  ARG D 557     -26.217   2.705 -17.014  1.00 35.49     0.159 C 
ENDROOT
BRANCH   1   2
ATOM      2  CB  ARG D 557     -26.789   1.319 -17.183  1.00 35.49     0.034 C 
BRANCH   2   3
ATOM      3  CG  ARG D 557     -28.232   1.226 -17.436  1.00 35.49     0.027 C 
BRANCH   3   4
ATOM      4  CD  ARG D 557     -28.897   0.239 -16.554  1.00 35.49     0.116 C 
BRANCH   4   5
ATOM      5  NE  ARG D 557     -28.005  -0.817 -16.153  1.00 35.49    -0.212 N 
ATOM      6  CZ  ARG D 557     -28.071  -2.069 -16.548  1.00 35.49     0.666 C 
ATOM      7  NH1 ARG D 557     -29.006  -2.505 -17.372  1.00 35.49    -0.235 N 
ATOM      8  NH2 ARG D 557     -27.165  -2.888 -16.099  1.00 35.49    -0.235 N 
ATOM      9  HH  ARG D 557     -29.611  -1.982 -17.682  1.00 35.49     0.174 HD
ATOM     10  HH  ARG D 557     -28.997  -3.331 -17.597  1.00 35.49     0.174 HD
ATOM     11  HH  ARG D 557     -26.569  -2.577 -15.574  1.00 35.49     0.174 HD
ATOM     12  HH  ARG D 557     -27.172  -3.703 -16.335  1.00 35.49     0.174 HD
ATOM     13  HE  ARG D 557     -27.416  -0.641 -15.566  1.00 35.49     0.178 HD
ENDBRANCH   4   5
ENDBRANCH   3   4
ENDBRANCH   2   3
ENDBRANCH   1   2
END_RES ARG D 557
BEGIN_RES GLU D 570
REMARK  3 active torsions:
REMARK  status: ('A' for Active; 'I' for Inactive)
REMARK    5  A    between atoms: CA   and  CB  
REMARK    6  A    between atoms: CB   and  CG  
REMARK    7  A    between atoms: CG   and  CD  
ROOT
ATOM     14  CA  GLU D 570     -18.033  -6.348 -13.375  1.00 32.92     0.160 C 
ENDROOT
BRANCH  14  15
ATOM     15  CB  GLU D 570     -19.500  -6.345 -13.794  1.00 32.92     0.043 C 
BRANCH  15  16
ATOM     16  CG  GLU D 570     -20.080  -7.629 -14.265  1.00 32.92     0.100 C 
BRANCH  16  17
ATOM     17  CD  GLU D 570     -20.799  -7.501 -15.588  1.00 32.92     0.185 C 
ATOM     18  OE1 GLU D 570     -21.374  -8.499 -16.064  1.00 32.92    -0.647 OA
ATOM     19  OE2 GLU D 570     -20.774  -6.394 -16.162  1.00 32.92    -0.647 OA
ENDBRANCH  16  17
ENDBRANCH  15  16
ENDBRANCH  14  15
END_RES GLU D 570
ENDMDL
MODEL 7
REMARK VINA RESULT:      -7.7      3.913      7.362
REMARK  10 active torsions:
REMARK  status: ('A' for Active; 'I' for Inactive)
REMARK    1  A    between atoms: O_2  and  C_3 
REMARK    2  A    between atoms: C_5  and  C_6 
REMARK    3  A    between atoms: C_6  and  N_7 
REMARK       I    between atoms: N_7  and  C_8 
REMARK    4  A    between atoms: C_8  and  C_10 
REMARK    5  A    between atoms: C_10  and  C_11 
REMARK    6  A    between atoms: C_11  and  C_12 
REMARK    7  A    between atoms: C_12  and  C_13 
REMARK    8  A    between atoms: C_13  and  C_14 
REMARK    9  A    between atoms: C_15  and  C_16 
REMARK   10  A    between atoms: C_21  and  O_22 
ROOT
HETATM    1  N   UNL     1     -24.304  -6.283 -14.343  1.00  0.00    -0.357 N 
HETATM    2  C   UNL     1     -23.381  -5.298 -14.117  1.00  0.00     0.217 C 
HETATM    3  O   UNL     1     -22.915  -4.583 -15.014  1.00  0.00    -0.274 OA
HETATM    4  H   UNL     1     -24.642  -6.818 -13.551  1.00  0.00     0.162 HD
ENDROOT
BRANCH   1   5
HETATM    5  C   UNL     1     -24.791  -6.566 -15.673  1.00  0.00     0.161 C 
BRANCH   5   6
HETATM    6  C   UNL     1     -26.193  -6.069 -15.948  1.00  0.00    -0.038 A 
HETATM    7  C   UNL     1     -27.237  -6.938 -16.308  1.00  0.00     0.048 A 
HETATM    8  C   UNL     1     -28.541  -6.467 -16.528  1.00  0.00     0.101 A 
HETATM    9  C   UNL     1     -28.799  -5.102 -16.383  1.00  0.00     0.099 A 
HETATM   10  C   UNL     1     -27.781  -4.219 -16.014  1.00  0.00     0.040 A 
HETATM   11  C   UNL     1     -26.489  -4.709 -15.793  1.00  0.00     0.012 A 
BRANCH   8  12
HETATM   12  O   UNL     1     -29.599  -7.266 -16.887  1.00  0.00    -0.353 OA
HETATM   13  C   UNL     1     -29.720  -7.586 -18.268  1.00  0.00     0.210 C 
ENDBRANCH   8  12
BRANCH   9  14
HETATM   14  O   UNL     1     -30.064  -4.628 -16.608  1.00  0.00    -0.358 OA
HETATM   15  H   UNL     1     -30.270  -3.942 -15.956  1.00  0.00     0.217 HD
ENDBRANCH   9  14
ENDBRANCH   5   6
ENDBRANCH   1   5
BRANCH   2  16
HETATM   16  C   UNL     1     -22.982  -5.164 -12.665  1.00  0.00     0.103 C 
BRANCH  16  17
HETATM   17  C   UNL     1     -21.893  -4.112 -12.484  1.00  0.00     0.010 C 
BRANCH  17  18
HETATM   18  C   UNL     1     -21.876  -3.536 -11.068  1.00  0.00     0.004 C 
BRANCH  18  19
HETATM   19  C   UNL     1     -22.902  -4.255 -10.193  1.00  0.00     0.027 C 
BRANCH  19  20
HETATM   20  C   UNL     1     -22.318  -4.626  -8.864  1.00  0.00    -0.030 C 
HETATM   21  C   UNL     1     -21.366  -3.901  -8.255  1.00  0.00    -0.027 C 
BRANCH  21  22
HETATM   22  C   UNL     1     -20.753  -4.289  -6.933  1.00  0.00    -0.001 C 
HETATM   23  C   UNL     1     -21.554  -5.408  -6.264  1.00  0.00     0.013 C 
HETATM   24  C   UNL     1     -19.301  -4.725  -7.120  1.00  0.00     0.013 C 
ENDBRANCH  21  22
ENDBRANCH  19  20
ENDBRANCH  18  19
ENDBRANCH  17  18
ENDBRANCH  16  17
ENDBRANCH   2  16
TORSDOF 10
BEGIN_RES ARG D 557
REMARK  4 active torsions:
REMARK  status: ('A' for Active; 'I' for Inactive)
REMARK    1  A    between atoms: CA   and  CB  
REMARK    2  A    between atoms: CB   and  CG  
REMARK    3  A    between atoms: CG   and  CD  
REMARK    4  A    between atoms: CD   and  NE  
REMARK       I    between atoms: NE   and  CZ  
REMARK       I    between atoms: CZ   and  NH1 
REMARK       I    between atoms: CZ   and  NH2 
ROOT
ATOM      1  CA  ARG D 557     -26.217   2.705 -17.014  1.00 35.49     0.159 C 
ENDROOT
BRANCH   1   2
ATOM      2  CB  ARG D 557     -26.789   1.319 -17.183  1.00 35.49     0.034 C 
BRANCH   2   3
ATOM      3  CG  ARG D 557     -25.832   0.206 -17.191  1.00 35.49     0.027 C 
BRANCH   3   4
ATOM      4  CD  ARG D 557     -24.730   0.402 -16.221  1.00 35.49     0.116 C 
BRANCH   4   5
ATOM      5  NE  ARG D 557     -24.889  -0.415 -15.047  1.00 35.49    -0.212 N 
ATOM      6  CZ  ARG D 557     -24.083  -1.382 -14.670  1.00 35.49     0.666 C 
ATOM      7  NH1 ARG D 557     -23.013  -1.725 -15.363  1.00 35.49    -0.235 N 
ATOM      8  NH2 ARG D 557     -24.370  -2.005 -13.564  1.00 35.49    -0.235 N 
ATOM      9  HH  ARG D 557     -22.804  -1.327 -16.093  1.00 35.49     0.174 HD
ATOM     10  HH  ARG D 557     -22.523  -2.362 -15.066  1.00 35.49     0.174 HD
ATOM     11  HH  ARG D 557     -25.063  -1.757 -13.133  1.00 35.49     0.174 HD
ATOM     12  HH  ARG D 557     -23.871  -2.632 -13.286  1.00 35.49     0.174 HD
ATOM     13  HE  ARG D 557     -25.592  -0.310 -14.580  1.00 35.49     0.178 HD
ENDBRANCH   4   5
ENDBRANCH   3   4
ENDBRANCH   2   3
ENDBRANCH   1   2
END_RES ARG D 557
BEGIN_RES GLU D 570
REMARK  3 active torsions:
REMARK  status: ('A' for Active; 'I' for Inactive)
REMARK    5  A    between atoms: CA   and  CB  
REMARK    6  A    between atoms: CB   and  CG  
REMARK    7  A    between atoms: CG   and  CD  
ROOT
ATOM     14  CA  GLU D 570     -18.033  -6.348 -13.375  1.00 32.92     0.160 C 
ENDROOT
BRANCH  14  15
ATOM     15  CB  GLU D 570     -19.500  -6.345 -13.794  1.00 32.92     0.043 C 
BRANCH  15  16
ATOM     16  CG  GLU D 570     -19.797  -6.227 -15.245  1.00 32.92     0.100 C 
BRANCH  16  17
ATOM     17  CD  GLU D 570     -20.683  -7.339 -15.757  1.00 32.92     0.185 C 
ATOM     18  OE1 GLU D 570     -20.624  -8.459 -15.213  1.00 32.92    -0.647 OA
ATOM     19  OE2 GLU D 570     -21.431  -7.093 -16.724  1.00 32.92    -0.647 OA
ENDBRANCH  16  17
ENDBRANCH  15  16
ENDBRANCH  14  15
END_RES GLU D 570
ENDMDL
MODEL 8
REMARK VINA RESULT:      -7.7      2.928      8.404
REMARK  10 active torsions:
REMARK  status: ('A' for Active; 'I' for Inactive)
REMARK    1  A    between atoms: O_2  and  C_3 
REMARK    2  A    between atoms: C_5  and  C_6 
REMARK    3  A    between atoms: C_6  and  N_7 
REMARK       I    between atoms: N_7  and  C_8 
REMARK    4  A    between atoms: C_8  and  C_10 
REMARK    5  A    between atoms: C_10  and  C_11 
REMARK    6  A    between atoms: C_11  and  C_12 
REMARK    7  A    between atoms: C_12  and  C_13 
REMARK    8  A    between atoms: C_13  and  C_14 
REMARK    9  A    between atoms: C_15  and  C_16 
REMARK   10  A    between atoms: C_21  and  O_22 
ROOT
HETATM    1  N   UNL     1     -21.203  -6.088  -3.593  1.00  0.00    -0.357 N 
HETATM    2  C   UNL     1     -21.758  -6.142  -4.843  1.00  0.00     0.217 C 
HETATM    3  O   UNL     1     -22.976  -6.229  -5.044  1.00  0.00    -0.274 OA
HETATM    4  H   UNL     1     -20.196  -6.007  -3.515  1.00  0.00     0.162 HD
ENDROOT
BRANCH   1   5
HETATM    5  C   UNL     1     -22.021  -6.147  -2.404  1.00  0.00     0.161 C 
BRANCH   5   6
HETATM    6  C   UNL     1     -21.748  -7.338  -1.511  1.00  0.00    -0.038 A 
HETATM    7  C   UNL     1     -20.897  -8.384  -1.903  1.00  0.00     0.048 A 
HETATM    8  C   UNL     1     -20.625  -9.467  -1.051  1.00  0.00     0.101 A 
HETATM    9  C   UNL     1     -21.218  -9.496   0.213  1.00  0.00     0.099 A 
HETATM   10  C   UNL     1     -22.058  -8.461   0.631  1.00  0.00     0.040 A 
HETATM   11  C   UNL     1     -22.311  -7.387  -0.231  1.00  0.00     0.012 A 
BRANCH   8  12
HETATM   12  O   UNL     1     -19.808 -10.521  -1.380  1.00  0.00    -0.353 OA
HETATM   13  C   UNL     1     -19.998 -11.103  -2.664  1.00  0.00     0.210 C 
ENDBRANCH   8  12
BRANCH   9  14
HETATM   14  O   UNL     1     -20.972 -10.553   1.049  1.00  0.00    -0.358 OA
HETATM   15  H   UNL     1     -21.472 -10.435   1.870  1.00  0.00     0.217 HD
ENDBRANCH   9  14
ENDBRANCH   5   6
ENDBRANCH   1   5
BRANCH   2  16
HETATM   16  C   UNL     1     -20.740  -6.084  -5.960  1.00  0.00     0.103 C 
BRANCH  16  17
HETATM   17  C   UNL     1     -20.115  -4.697  -6.068  1.00  0.00     0.010 C 
BRANCH  17  18
HETATM   18  C   UNL     1     -20.561  -3.962  -7.332  1.00  0.00     0.004 C 
BRANCH  18  19
HETATM   19  C   UNL     1     -19.990  -4.648  -8.572  1.00  0.00     0.027 C 
BRANCH  19  20
HETATM   20  C   UNL     1     -20.638  -4.137  -9.823  1.00  0.00    -0.030 C 
HETATM   21  C   UNL     1     -21.958  -3.921  -9.928  1.00  0.00    -0.027 C 
BRANCH  21  22
HETATM   22  C   UNL     1     -22.617  -3.438 -11.195  1.00  0.00    -0.001 C 
HETATM   23  C   UNL     1     -22.345  -4.398 -12.355  1.00  0.00     0.013 C 
HETATM   24  C   UNL     1     -24.123  -3.277 -10.992  1.00  0.00     0.013 C 
ENDBRANCH  21  22
ENDBRANCH  19  20
ENDBRANCH  18  19
ENDBRANCH  17  18
ENDBRANCH  16  17
ENDBRANCH   2  16
TORSDOF 10
BEGIN_RES ARG D 557
REMARK  4 active torsions:
REMARK  status: ('A' for Active; 'I' for Inactive)
REMARK    1  A    between atoms: CA   and  CB  
REMARK    2  A    between atoms: CB   and  CG  
REMARK    3  A    between atoms: CG   and  CD  
REMARK    4  A    between atoms: CD   and  NE  
REMARK       I    between atoms: NE   and  CZ  
REMARK       I    between atoms: CZ   and  NH1 
REMARK       I    between atoms: CZ   and  NH2 
ROOT
ATOM      1  CA  ARG D 557     -26.217   2.705 -17.014  1.00 35.49     0.159 C 
ENDROOT
BRANCH   1   2
ATOM      2  CB  ARG D 557     -26.789   1.319 -17.183  1.00 35.49     0.034 C 
BRANCH   2   3
ATOM      3  CG  ARG D 557     -28.233   1.226 -17.428  1.00 35.49     0.027 C 
BRANCH   3   4
ATOM      4  CD  ARG D 557     -28.905   0.294 -16.493  1.00 35.49     0.116 C 
BRANCH   4   5
ATOM      5  NE  ARG D 557     -29.296  -0.932 -17.137  1.00 35.49    -0.212 N 
ATOM      6  CZ  ARG D 557     -28.672  -2.085 -17.038  1.00 35.49     0.666 C 
ATOM      7  NH1 ARG D 557     -27.573  -2.237 -16.322  1.00 35.49    -0.235 N 
ATOM      8  NH2 ARG D 557     -29.181  -3.099 -17.674  1.00 35.49    -0.235 N 
ATOM      9  HH  ARG D 557     -27.222  -1.583 -15.893  1.00 35.49     0.174 HD
ATOM     10  HH  ARG D 557     -27.211  -3.013 -16.292  1.00 35.49     0.174 HD
ATOM     11  HH  ARG D 557     -29.895  -2.973 -18.123  1.00 35.49     0.174 HD
ATOM     12  HH  ARG D 557     -28.809  -3.860 -17.631  1.00 35.49     0.174 HD
ATOM     13  HE  ARG D 557     -29.953  -0.908 -17.676  1.00 35.49     0.178 HD
ENDBRANCH   4   5
ENDBRANCH   3   4
ENDBRANCH   2   3
ENDBRANCH   1   2
END_RES ARG D 557
BEGIN_RES GLU D 570
REMARK  3 active torsions:
REMARK  status: ('A' for Active; 'I' for Inactive)
REMARK    5  A    between atoms: CA   and  CB  
REMARK    6  A    between atoms: CB   and  CG  
REMARK    7  A    between atoms: CG   and  CD  
ROOT
ATOM     14  CA  GLU D 570     -18.033  -6.348 -13.375  1.00 32.92     0.160 C 
ENDROOT
BRANCH  14  15
ATOM     15  CB  GLU D 570     -19.500  -6.345 -13.794  1.00 32.92     0.043 C 
BRANCH  15  16
ATOM     16  CG  GLU D 570     -19.796  -6.272 -15.248  1.00 32.92     0.100 C 
BRANCH  16  17
ATOM     17  CD  GLU D 570     -21.245  -5.956 -15.539  1.00 32.92     0.185 C 
ATOM     18  OE1 GLU D 570     -21.532  -4.865 -16.067  1.00 32.92    -0.647 OA
ATOM     19  OE2 GLU D 570     -22.104  -6.802 -15.220  1.00 32.92    -0.647 OA
ENDBRANCH  16  17
ENDBRANCH  15  16
ENDBRANCH  14  15
END_RES GLU D 570
ENDMDL
MODEL 9
REMARK VINA RESULT:      -7.6      4.309      9.540
REMARK  10 active torsions:
REMARK  status: ('A' for Active; 'I' for Inactive)
REMARK    1  A    between atoms: O_2  and  C_3 
REMARK    2  A    between atoms: C_5  and  C_6 
REMARK    3  A    between atoms: C_6  and  N_7 
REMARK       I    between atoms: N_7  and  C_8 
REMARK    4  A    between atoms: C_8  and  C_10 
REMARK    5  A    between atoms: C_10  and  C_11 
REMARK    6  A    between atoms: C_11  and  C_12 
REMARK    7  A    between atoms: C_12  and  C_13 
REMARK    8  A    between atoms: C_13  and  C_14 
REMARK    9  A    between atoms: C_15  and  C_16 
REMARK   10  A    between atoms: C_21  and  O_22 
ROOT
HETATM    1  N   UNL     1     -23.024  -5.428 -13.176  1.00  0.00    -0.357 N 
HETATM    2  C   UNL     1     -23.138  -5.295 -14.534  1.00  0.00     0.217 C 
HETATM    3  O   UNL     1     -22.615  -4.374 -15.174  1.00  0.00    -0.274 OA
HETATM    4  H   UNL     1     -23.476  -6.218 -12.729  1.00  0.00     0.162 HD
ENDROOT
BRANCH   1   5
HETATM    5  C   UNL     1     -22.284  -4.472 -12.387  1.00  0.00     0.161 C 
BRANCH   5   6
HETATM    6  C   UNL     1     -22.672  -4.428 -10.925  1.00  0.00    -0.038 A 
HETATM    7  C   UNL     1     -21.772  -4.773  -9.903  1.00  0.00     0.048 A 
HETATM    8  C   UNL     1     -22.135  -4.695  -8.548  1.00  0.00     0.101 A 
HETATM    9  C   UNL     1     -23.423  -4.264  -8.219  1.00  0.00     0.099 A 
HETATM   10  C   UNL     1     -24.331  -3.904  -9.217  1.00  0.00     0.040 A 
HETATM   11  C   UNL     1     -23.948  -3.982 -10.560  1.00  0.00     0.012 A 
BRANCH   8  12
HETATM   12  O   UNL     1     -21.303  -5.024  -7.507  1.00  0.00    -0.353 OA
HETATM   13  C   UNL     1     -20.228  -4.132  -7.239  1.00  0.00     0.210 C 
ENDBRANCH   8  12
BRANCH   9  14
HETATM   14  O   UNL     1     -23.794  -4.197  -6.902  1.00  0.00    -0.358 OA
HETATM   15  H   UNL     1     -23.102  -3.745  -6.397  1.00  0.00     0.217 HD
ENDBRANCH   9  14
ENDBRANCH   5   6
ENDBRANCH   1   5
BRANCH   2  16
HETATM   16  C   UNL     1     -23.965  -6.383 -15.182  1.00  0.00     0.103 C 
BRANCH  16  17
HETATM   17  C   UNL     1     -25.429  -5.970 -15.299  1.00  0.00     0.010 C 
BRANCH  17  18
HETATM   18  C   UNL     1     -26.229  -6.929 -16.181  1.00  0.00     0.004 C 
BRANCH  18  19
HETATM   19  C   UNL     1     -27.630  -7.131 -15.605  1.00  0.00     0.027 C 
BRANCH  19  20
HETATM   20  C   UNL     1     -28.561  -6.043 -16.043  1.00  0.00    -0.030 C 
HETATM   21  C   UNL     1     -28.526  -5.499 -17.270  1.00  0.00    -0.027 C 
BRANCH  21  22
HETATM   22  C   UNL     1     -29.438  -4.380 -17.703  1.00  0.00    -0.001 C 
HETATM   23  C   UNL     1     -30.844  -4.563 -17.127  1.00  0.00     0.013 C 
HETATM   24  C   UNL     1     -28.871  -3.026 -17.278  1.00  0.00     0.013 C 
ENDBRANCH  21  22
ENDBRANCH  19  20
ENDBRANCH  18  19
ENDBRANCH  17  18
ENDBRANCH  16  17
ENDBRANCH   2  16
TORSDOF 10
BEGIN_RES ARG D 557
REMARK  4 active torsions:
REMARK  status: ('A' for Active; 'I' for Inactive)
REMARK    1  A    between atoms: CA   and  CB  
REMARK    2  A    between atoms: CB   and  CG  
REMARK    3  A    between atoms: CG   and  CD  
REMARK    4  A    between atoms: CD   and  NE  
REMARK       I    between atoms: NE   and  CZ  
REMARK       I    between atoms: CZ   and  NH1 
REMARK       I    between atoms: CZ   and  NH2 
ROOT
ATOM      1  CA  ARG D 557     -26.217   2.705 -17.014  1.00 35.49     0.159 C 
ENDROOT
BRANCH   1   2
ATOM      2  CB  ARG D 557     -26.789   1.319 -17.183  1.00 35.49     0.034 C 
BRANCH   2   3
ATOM      3  CG  ARG D 557     -25.852   0.197 -17.051  1.00 35.49     0.027 C 
BRANCH   3   4
ATOM      4  CD  ARG D 557     -26.168  -0.668 -15.891  1.00 35.49     0.116 C 
BRANCH   4   5
ATOM      5  NE  ARG D 557     -25.032  -0.850 -15.025  1.00 35.49    -0.212 N 
ATOM      6  CZ  ARG D 557     -24.856  -1.849 -14.190  1.00 35.49     0.666 C 
ATOM      7  NH1 ARG D 557     -25.743  -2.816 -14.044  1.00 35.49    -0.235 N 
ATOM      8  NH2 ARG D 557     -23.755  -1.865 -13.497  1.00 35.49    -0.235 N 
ATOM      9  HH  ARG D 557     -26.474  -2.827 -14.491  1.00 35.49     0.174 HD
ATOM     10  HH  ARG D 557     -25.573  -3.444 -13.485  1.00 35.49     0.174 HD
ATOM     11  HH  ARG D 557     -23.197  -1.231 -13.617  1.00 35.49     0.174 HD
ATOM     12  HH  ARG D 557     -23.604  -2.495 -12.950  1.00 35.49     0.174 HD
ATOM     13  HE  ARG D 557     -24.446  -0.235 -15.002  1.00 35.49     0.178 HD
ENDBRANCH   4   5
ENDBRANCH   3   4
ENDBRANCH   2   3
ENDBRANCH   1   2
END_RES ARG D 557
BEGIN_RES GLU D 570
REMARK  3 active torsions:
REMARK  status: ('A' for Active; 'I' for Inactive)
REMARK    5  A    between atoms: CA   and  CB  
REMARK    6  A    between atoms: CB   and  CG  
REMARK    7  A    between atoms: CG   and  CD  
ROOT
ATOM     14  CA  GLU D 570     -18.033  -6.348 -13.375  1.00 32.92     0.160 C 
ENDROOT
BRANCH  14  15
ATOM     15  CB  GLU D 570     -19.500  -6.345 -13.794  1.00 32.92     0.043 C 
BRANCH  15  16
ATOM     16  CG  GLU D 570     -20.091  -7.638 -14.225  1.00 32.92     0.100 C 
BRANCH  16  17
ATOM     17  CD  GLU D 570     -20.580  -7.615 -15.655  1.00 32.92     0.185 C 
ATOM     18  OE1 GLU D 570     -20.387  -6.595 -16.344  1.00 32.92    -0.647 OA
ATOM     19  OE2 GLU D 570     -21.176  -8.621 -16.085  1.00 32.92    -0.647 OA
ENDBRANCH  16  17
ENDBRANCH  15  16
ENDBRANCH  14  15
END_RES GLU D 570
ENDMDL
