MODEL 1
REMARK VINA RESULT:      -8.2      0.000      0.000
REMARK  19 active torsions:
REMARK  status: ('A' for Active; 'I' for Inactive)
REMARK    1  A    between atoms: C_2  and  C_3 
REMARK    2  A    between atoms: C_3  and  C_4 
REMARK    3  A    between atoms: C_4  and  C_5 
REMARK    4  A    between atoms: C_5  and  C_6 
REMARK    5  A    between atoms: C_6  and  C_7 
REMARK    6  A    between atoms: C_7  and  C_8 
REMARK    7  A    between atoms: C_8  and  C_9 
REMARK    8  A    between atoms: C_10  and  C_11 
REMARK    9  A    between atoms: C_11  and  C_12 
REMARK   10  A    between atoms: C_12  and  C_13 
REMARK   11  A    between atoms: C_13  and  C_14 
REMARK   12  A    between atoms: C_14  and  C_15 
REMARK   13  A    between atoms: C_15  and  C_16 
REMARK   14  A    between atoms: C_16  and  C_17 
REMARK   15  A    between atoms: C_17  and  C_18 
REMARK       I    between atoms: C_18  and  N_20 
REMARK   16  A    between atoms: N_20  and  C_21 
REMARK   17  A    between atoms: C_21  and  C_22 
REMARK   18  A    between atoms: C_25  and  O_26 
REMARK   19  A    between atoms: C_27  and  O_28 
ROOT
HETATM    1  C   UNL     1     -21.962  -6.773  -3.717  1.00  0.00     0.009 C 
ENDROOT
BRANCH   1   2
HETATM    2  C   UNL     1     -21.369  -6.431  -2.353  1.00  0.00     0.000 C 
BRANCH   2   3
HETATM    3  C   UNL     1     -22.415  -6.534  -1.247  1.00  0.00     0.000 C 
BRANCH   3   4
HETATM    4  C   UNL     1     -22.029  -7.546  -0.164  1.00  0.00     0.000 C 
BRANCH   4   5
HETATM    5  C   UNL     1     -23.195  -8.373   0.389  1.00  0.00     0.004 C 
BRANCH   5   6
HETATM    6  C   UNL     1     -23.216  -9.795  -0.169  1.00  0.00     0.027 C 
BRANCH   6   7
HETATM    7  C   UNL     1     -22.081 -10.020  -1.119  1.00  0.00    -0.031 C 
HETATM    8  C   UNL     1     -22.266 -10.310  -2.414  1.00  0.00    -0.031 C 
BRANCH   8   9
HETATM    9  C   UNL     1     -21.146 -10.512  -3.381  1.00  0.00     0.027 C 
BRANCH   9  10
HETATM   10  C   UNL     1     -19.802 -10.271  -2.697  1.00  0.00     0.004 C 
BRANCH  10  11
HETATM   11  C   UNL     1     -19.027  -9.180  -3.426  1.00  0.00     0.000 C 
BRANCH  11  12
HETATM   12  C   UNL     1     -17.530  -9.467  -3.404  1.00  0.00     0.000 C 
BRANCH  12  13
HETATM   13  C   UNL     1     -17.140 -10.363  -4.575  1.00  0.00     0.000 C 
BRANCH  13  14
HETATM   14  C   UNL     1     -15.754  -9.998  -5.097  1.00  0.00    -0.000 C 
BRANCH  14  15
HETATM   15  C   UNL     1     -14.955 -11.249  -5.453  1.00  0.00    -0.005 C 
HETATM   16  C   UNL     1     -14.585 -12.033  -4.206  1.00  0.00     0.005 C 
ENDBRANCH  14  15
ENDBRANCH  13  14
ENDBRANCH  12  13
ENDBRANCH  11  12
ENDBRANCH  10  11
ENDBRANCH   9  10
ENDBRANCH   8   9
ENDBRANCH   6   7
ENDBRANCH   5   6
ENDBRANCH   4   5
ENDBRANCH   3   4
ENDBRANCH   2   3
ENDBRANCH   1   2
BRANCH   1  17
HETATM   17  C   UNL     1     -21.120  -6.120  -4.803  1.00  0.00     0.103 C 
BRANCH  17  18
HETATM   18  C   UNL     1     -21.060  -6.919  -6.084  1.00  0.00     0.217 C 
HETATM   19  O   UNL     1     -21.136  -8.145  -6.127  1.00  0.00    -0.274 OA
HETATM   20  N   UNL     1     -20.906  -6.212  -7.244  1.00  0.00    -0.357 N 
HETATM   21  H   UNL     1     -20.932  -6.790  -8.074  1.00  0.00     0.162 HD
BRANCH  20  22
HETATM   22  C   UNL     1     -20.905  -4.771  -7.403  1.00  0.00     0.161 C 
BRANCH  22  23
HETATM   23  C   UNL     1     -21.159  -4.372  -8.833  1.00  0.00    -0.038 A 
HETATM   24  C   UNL     1     -20.138  -4.471  -9.782  1.00  0.00     0.012 A 
HETATM   25  C   UNL     1     -20.378  -4.137 -11.114  1.00  0.00     0.040 A 
HETATM   26  C   UNL     1     -21.642  -3.697 -11.519  1.00  0.00     0.099 A 
HETATM   27  C   UNL     1     -22.680  -3.578 -10.589  1.00  0.00     0.101 A 
HETATM   28  C   UNL     1     -22.421  -3.912  -9.249  1.00  0.00     0.048 A 
BRANCH  26  29
HETATM   29  O   UNL     1     -21.826  -3.397 -12.841  1.00  0.00    -0.358 OA
HETATM   30  H   UNL     1     -21.073  -3.736 -13.351  1.00  0.00     0.217 HD
ENDBRANCH  26  29
BRANCH  27  31
HETATM   31  O   UNL     1     -23.970  -3.172 -10.801  1.00  0.00    -0.353 OA
HETATM   32  C   UNL     1     -24.898  -3.304  -9.733  1.00  0.00     0.210 C 
ENDBRANCH  27  31
ENDBRANCH  22  23
ENDBRANCH  20  22
ENDBRANCH  17  18
ENDBRANCH   1  17
TORSDOF 19
BEGIN_RES ARG D 557
REMARK  4 active torsions:
REMARK  status: ('A' for Active; 'I' for Inactive)
REMARK    1  A    between atoms: CA   and  CB  
REMARK    2  A    between atoms: CB   and  CG  
REMARK    3  A    between atoms: CG   and  CD  
REMARK    4  A    between atoms: CD   and  NE  
REMARK       I    between atoms: NE   and  CZ  
REMARK       I    between atoms: CZ   and  NH1 
REMARK       I    between atoms: CZ   and  NH2 
ROOT
ATOM      1  CA  ARG D 557     -26.217   2.705 -17.014  1.00 35.49     0.159 C 
ENDROOT
BRANCH   1   2
ATOM      2  CB  ARG D 557     -26.789   1.319 -17.183  1.00 35.49     0.034 C 
BRANCH   2   3
ATOM      3  CG  ARG D 557     -25.836   0.203 -17.152  1.00 35.49     0.027 C 
BRANCH   3   4
ATOM      4  CD  ARG D 557     -24.773   0.396 -16.139  1.00 35.49     0.116 C 
BRANCH   4   5
ATOM      5  NE  ARG D 557     -24.935  -0.481 -15.009  1.00 35.49    -0.212 N 
ATOM      6  CZ  ARG D 557     -24.116  -1.450 -14.665  1.00 35.49     0.666 C 
ATOM      7  NH1 ARG D 557     -23.028  -1.737 -15.356  1.00 35.49    -0.235 N 
ATOM      8  NH2 ARG D 557     -24.409  -2.132 -13.596  1.00 35.49    -0.235 N 
ATOM      9  HH  ARG D 557     -22.815  -1.300 -16.061  1.00 35.49     0.174 HD
ATOM     10  HH  ARG D 557     -22.530  -2.378 -15.082  1.00 35.49     0.174 HD
ATOM     11  HH  ARG D 557     -25.114  -1.919 -13.166  1.00 35.49     0.174 HD
ATOM     12  HH  ARG D 557     -23.902  -2.762 -13.341  1.00 35.49     0.174 HD
ATOM     13  HE  ARG D 557     -25.648  -0.413 -14.550  1.00 35.49     0.178 HD
ENDBRANCH   4   5
ENDBRANCH   3   4
ENDBRANCH   2   3
ENDBRANCH   1   2
END_RES ARG D 557
BEGIN_RES GLU D 570
REMARK  3 active torsions:
REMARK  status: ('A' for Active; 'I' for Inactive)
REMARK    5  A    between atoms: CA   and  CB  
REMARK    6  A    between atoms: CB   and  CG  
REMARK    7  A    between atoms: CG   and  CD  
ROOT
ATOM     14  CA  GLU D 570     -18.033  -6.348 -13.375  1.00 32.92     0.160 C 
ENDROOT
BRANCH  14  15
ATOM     15  CB  GLU D 570     -19.500  -6.345 -13.794  1.00 32.92     0.043 C 
BRANCH  15  16
ATOM     16  CG  GLU D 570     -19.818  -5.885 -15.171  1.00 32.92     0.100 C 
BRANCH  16  17
ATOM     17  CD  GLU D 570     -21.299  -5.693 -15.401  1.00 32.92     0.185 C 
ATOM     18  OE1 GLU D 570     -22.054  -6.682 -15.340  1.00 32.92    -0.647 OA
ATOM     19  OE2 GLU D 570     -21.705  -4.543 -15.661  1.00 32.92    -0.647 OA
ENDBRANCH  16  17
ENDBRANCH  15  16
ENDBRANCH  14  15
END_RES GLU D 570
ENDMDL
MODEL 2
REMARK VINA RESULT:      -8.2      1.706      2.792
REMARK  19 active torsions:
REMARK  status: ('A' for Active; 'I' for Inactive)
REMARK    1  A    between atoms: C_2  and  C_3 
REMARK    2  A    between atoms: C_3  and  C_4 
REMARK    3  A    between atoms: C_4  and  C_5 
REMARK    4  A    between atoms: C_5  and  C_6 
REMARK    5  A    between atoms: C_6  and  C_7 
REMARK    6  A    between atoms: C_7  and  C_8 
REMARK    7  A    between atoms: C_8  and  C_9 
REMARK    8  A    between atoms: C_10  and  C_11 
REMARK    9  A    between atoms: C_11  and  C_12 
REMARK   10  A    between atoms: C_12  and  C_13 
REMARK   11  A    between atoms: C_13  and  C_14 
REMARK   12  A    between atoms: C_14  and  C_15 
REMARK   13  A    between atoms: C_15  and  C_16 
REMARK   14  A    between atoms: C_16  and  C_17 
REMARK   15  A    between atoms: C_17  and  C_18 
REMARK       I    between atoms: C_18  and  N_20 
REMARK   16  A    between atoms: N_20  and  C_21 
REMARK   17  A    between atoms: C_21  and  C_22 
REMARK   18  A    between atoms: C_25  and  O_26 
REMARK   19  A    between atoms: C_27  and  O_28 
ROOT
HETATM    1  C   UNL     1     -21.997  -6.759  -3.809  1.00  0.00     0.009 C 
ENDROOT
BRANCH   1   2
HETATM    2  C   UNL     1     -21.585  -6.257  -2.428  1.00  0.00     0.000 C 
BRANCH   2   3
HETATM    3  C   UNL     1     -21.546  -7.391  -1.409  1.00  0.00     0.000 C 
BRANCH   3   4
HETATM    4  C   UNL     1     -22.728  -7.350  -0.436  1.00  0.00     0.000 C 
BRANCH   4   5
HETATM    5  C   UNL     1     -22.679  -8.397   0.682  1.00  0.00     0.004 C 
BRANCH   5   6
HETATM    6  C   UNL     1     -21.396  -8.307   1.507  1.00  0.00     0.027 C 
BRANCH   6   7
HETATM    7  C   UNL     1     -20.581  -9.556   1.380  1.00  0.00    -0.031 C 
HETATM    8  C   UNL     1     -20.804 -10.474   0.429  1.00  0.00    -0.031 C 
BRANCH   8   9
HETATM    9  C   UNL     1     -19.985 -11.713   0.273  1.00  0.00     0.027 C 
BRANCH   9  10
HETATM   10  C   UNL     1     -19.632 -11.935  -1.196  1.00  0.00     0.004 C 
BRANCH  10  11
HETATM   11  C   UNL     1     -19.270 -10.611  -1.858  1.00  0.00     0.000 C 
BRANCH  11  12
HETATM   12  C   UNL     1     -20.148 -10.352  -3.076  1.00  0.00     0.000 C 
BRANCH  12  13
HETATM   13  C   UNL     1     -21.255 -11.396  -3.170  1.00  0.00     0.000 C 
BRANCH  13  14
HETATM   14  C   UNL     1     -22.628 -10.731  -3.171  1.00  0.00    -0.000 C 
BRANCH  14  15
HETATM   15  C   UNL     1     -23.405 -11.076  -1.904  1.00  0.00    -0.005 C 
HETATM   16  C   UNL     1     -23.312 -12.560  -1.594  1.00  0.00     0.005 C 
ENDBRANCH  14  15
ENDBRANCH  13  14
ENDBRANCH  12  13
ENDBRANCH  11  12
ENDBRANCH  10  11
ENDBRANCH   9  10
ENDBRANCH   8   9
ENDBRANCH   6   7
ENDBRANCH   5   6
ENDBRANCH   4   5
ENDBRANCH   3   4
ENDBRANCH   2   3
ENDBRANCH   1   2
BRANCH   1  17
HETATM   17  C   UNL     1     -21.132  -6.084  -4.862  1.00  0.00     0.103 C 
BRANCH  17  18
HETATM   18  C   UNL     1     -21.006  -6.880  -6.141  1.00  0.00     0.217 C 
HETATM   19  O   UNL     1     -21.026  -8.108  -6.185  1.00  0.00    -0.274 OA
HETATM   20  N   UNL     1     -20.856  -6.165  -7.298  1.00  0.00    -0.357 N 
HETATM   21  H   UNL     1     -20.837  -6.744  -8.128  1.00  0.00     0.162 HD
BRANCH  20  22
HETATM   22  C   UNL     1     -20.917  -4.726  -7.457  1.00  0.00     0.161 C 
BRANCH  22  23
HETATM   23  C   UNL     1     -21.176  -4.338  -8.890  1.00  0.00    -0.038 A 
HETATM   24  C   UNL     1     -20.169  -4.481  -9.849  1.00  0.00     0.012 A 
HETATM   25  C   UNL     1     -20.414  -4.157 -11.182  1.00  0.00     0.040 A 
HETATM   26  C   UNL     1     -21.670  -3.686 -11.579  1.00  0.00     0.099 A 
HETATM   27  C   UNL     1     -22.692  -3.524 -10.639  1.00  0.00     0.101 A 
HETATM   28  C   UNL     1     -22.428  -3.847  -9.298  1.00  0.00     0.048 A 
BRANCH  26  29
HETATM   29  O   UNL     1     -21.860  -3.398 -12.902  1.00  0.00    -0.358 OA
HETATM   30  H   UNL     1     -22.757  -3.662 -13.159  1.00  0.00     0.217 HD
ENDBRANCH  26  29
BRANCH  27  31
HETATM   31  O   UNL     1     -23.973  -3.082 -10.842  1.00  0.00    -0.353 OA
HETATM   32  C   UNL     1     -24.928  -3.302  -9.813  1.00  0.00     0.210 C 
ENDBRANCH  27  31
ENDBRANCH  22  23
ENDBRANCH  20  22
ENDBRANCH  17  18
ENDBRANCH   1  17
TORSDOF 19
BEGIN_RES ARG D 557
REMARK  4 active torsions:
REMARK  status: ('A' for Active; 'I' for Inactive)
REMARK    1  A    between atoms: CA   and  CB  
REMARK    2  A    between atoms: CB   and  CG  
REMARK    3  A    between atoms: CG   and  CD  
REMARK    4  A    between atoms: CD   and  NE  
REMARK       I    between atoms: NE   and  CZ  
REMARK       I    between atoms: CZ   and  NH1 
REMARK       I    between atoms: CZ   and  NH2 
ROOT
ATOM      1  CA  ARG D 557     -26.217   2.705 -17.014  1.00 35.49     0.159 C 
ENDROOT
BRANCH   1   2
ATOM      2  CB  ARG D 557     -26.789   1.319 -17.183  1.00 35.49     0.034 C 
BRANCH   2   3
ATOM      3  CG  ARG D 557     -25.836   0.203 -17.157  1.00 35.49     0.027 C 
BRANCH   3   4
ATOM      4  CD  ARG D 557     -24.775   0.390 -16.140  1.00 35.49     0.116 C 
BRANCH   4   5
ATOM      5  NE  ARG D 557     -24.950  -0.480 -15.008  1.00 35.49    -0.212 N 
ATOM      6  CZ  ARG D 557     -24.145  -1.459 -14.659  1.00 35.49     0.666 C 
ATOM      7  NH1 ARG D 557     -23.060  -1.763 -15.347  1.00 35.49    -0.235 N 
ATOM      8  NH2 ARG D 557     -24.448  -2.133 -13.588  1.00 35.49    -0.235 N 
ATOM      9  HH  ARG D 557     -22.840  -1.331 -16.054  1.00 35.49     0.174 HD
ATOM     10  HH  ARG D 557     -22.571  -2.410 -15.070  1.00 35.49     0.174 HD
ATOM     11  HH  ARG D 557     -25.151  -1.909 -13.160  1.00 35.49     0.174 HD
ATOM     12  HH  ARG D 557     -23.951  -2.769 -13.330  1.00 35.49     0.174 HD
ATOM     13  HE  ARG D 557     -25.663  -0.402 -14.550  1.00 35.49     0.178 HD
ENDBRANCH   4   5
ENDBRANCH   3   4
ENDBRANCH   2   3
ENDBRANCH   1   2
END_RES ARG D 557
BEGIN_RES GLU D 570
REMARK  3 active torsions:
REMARK  status: ('A' for Active; 'I' for Inactive)
REMARK    5  A    between atoms: CA   and  CB  
REMARK    6  A    between atoms: CB   and  CG  
REMARK    7  A    between atoms: CG   and  CD  
ROOT
ATOM     14  CA  GLU D 570     -18.033  -6.348 -13.375  1.00 32.92     0.160 C 
ENDROOT
BRANCH  14  15
ATOM     15  CB  GLU D 570     -19.500  -6.345 -13.794  1.00 32.92     0.043 C 
BRANCH  15  16
ATOM     16  CG  GLU D 570     -19.813  -5.936 -15.188  1.00 32.92     0.100 C 
BRANCH  16  17
ATOM     17  CD  GLU D 570     -21.289  -5.709 -15.418  1.00 32.92     0.185 C 
ATOM     18  OE1 GLU D 570     -21.696  -4.553 -15.644  1.00 32.92    -0.647 OA
ATOM     19  OE2 GLU D 570     -22.049  -6.696 -15.355  1.00 32.92    -0.647 OA
ENDBRANCH  16  17
ENDBRANCH  15  16
ENDBRANCH  14  15
END_RES GLU D 570
ENDMDL
MODEL 3
REMARK VINA RESULT:      -8.1      3.626      8.126
REMARK  19 active torsions:
REMARK  status: ('A' for Active; 'I' for Inactive)
REMARK    1  A    between atoms: C_2  and  C_3 
REMARK    2  A    between atoms: C_3  and  C_4 
REMARK    3  A    between atoms: C_4  and  C_5 
REMARK    4  A    between atoms: C_5  and  C_6 
REMARK    5  A    between atoms: C_6  and  C_7 
REMARK    6  A    between atoms: C_7  and  C_8 
REMARK    7  A    between atoms: C_8  and  C_9 
REMARK    8  A    between atoms: C_10  and  C_11 
REMARK    9  A    between atoms: C_11  and  C_12 
REMARK   10  A    between atoms: C_12  and  C_13 
REMARK   11  A    between atoms: C_13  and  C_14 
REMARK   12  A    between atoms: C_14  and  C_15 
REMARK   13  A    between atoms: C_15  and  C_16 
REMARK   14  A    between atoms: C_16  and  C_17 
REMARK   15  A    between atoms: C_17  and  C_18 
REMARK       I    between atoms: C_18  and  N_20 
REMARK   16  A    between atoms: N_20  and  C_21 
REMARK   17  A    between atoms: C_21  and  C_22 
REMARK   18  A    between atoms: C_25  and  O_26 
REMARK   19  A    between atoms: C_27  and  O_28 
ROOT
HETATM    1  C   UNL     1     -23.421  -5.700 -13.543  1.00  0.00     0.009 C 
ENDROOT
BRANCH   1   2
HETATM    2  C   UNL     1     -22.343  -4.681 -13.183  1.00  0.00     0.000 C 
BRANCH   2   3
HETATM    3  C   UNL     1     -22.264  -4.460 -11.676  1.00  0.00     0.000 C 
BRANCH   3   4
HETATM    4  C   UNL     1     -20.840  -4.154 -11.200  1.00  0.00     0.000 C 
BRANCH   4   5
HETATM    5  C   UNL     1     -20.629  -4.270  -9.686  1.00  0.00     0.004 C 
BRANCH   5   6
HETATM    6  C   UNL     1     -21.947  -4.389  -8.923  1.00  0.00     0.027 C 
BRANCH   6   7
HETATM    7  C   UNL     1     -21.711  -4.511  -7.449  1.00  0.00    -0.031 C 
HETATM    8  C   UNL     1     -21.019  -5.522  -6.907  1.00  0.00    -0.031 C 
BRANCH   8   9
HETATM    9  C   UNL     1     -20.752  -5.646  -5.443  1.00  0.00     0.027 C 
BRANCH   9  10
HETATM   10  C   UNL     1     -21.917  -6.347  -4.747  1.00  0.00     0.004 C 
BRANCH  10  11
HETATM   11  C   UNL     1     -21.415  -7.551  -3.959  1.00  0.00     0.000 C 
BRANCH  11  12
HETATM   12  C   UNL     1     -21.054  -7.156  -2.532  1.00  0.00     0.000 C 
BRANCH  12  13
HETATM   13  C   UNL     1     -22.239  -6.483  -1.847  1.00  0.00     0.000 C 
BRANCH  13  14
HETATM   14  C   UNL     1     -22.434  -7.034  -0.438  1.00  0.00    -0.000 C 
BRANCH  14  15
HETATM   15  C   UNL     1     -22.397  -8.559  -0.436  1.00  0.00    -0.005 C 
HETATM   16  C   UNL     1     -21.460  -9.081   0.640  1.00  0.00     0.005 C 
ENDBRANCH  14  15
ENDBRANCH  13  14
ENDBRANCH  12  13
ENDBRANCH  11  12
ENDBRANCH  10  11
ENDBRANCH   9  10
ENDBRANCH   8   9
ENDBRANCH   6   7
ENDBRANCH   5   6
ENDBRANCH   4   5
ENDBRANCH   3   4
ENDBRANCH   2   3
ENDBRANCH   1   2
BRANCH   1  17
HETATM   17  C   UNL     1     -23.711  -5.611 -15.034  1.00  0.00     0.103 C 
BRANCH  17  18
HETATM   18  C   UNL     1     -24.836  -6.513 -15.486  1.00  0.00     0.217 C 
HETATM   19  O   UNL     1     -24.703  -7.718 -15.690  1.00  0.00    -0.274 OA
HETATM   20  N   UNL     1     -26.056  -5.926 -15.675  1.00  0.00    -0.357 N 
HETATM   21  H   UNL     1     -26.785  -6.585 -15.919  1.00  0.00     0.162 HD
BRANCH  20  22
HETATM   22  C   UNL     1     -26.428  -4.556 -15.386  1.00  0.00     0.161 C 
BRANCH  22  23
HETATM   23  C   UNL     1     -27.704  -4.169 -16.089  1.00  0.00    -0.038 A 
HETATM   24  C   UNL     1     -27.878  -2.865 -16.561  1.00  0.00     0.012 A 
HETATM   25  C   UNL     1     -29.042  -2.512 -17.242  1.00  0.00     0.040 A 
HETATM   26  C   UNL     1     -30.050  -3.455 -17.463  1.00  0.00     0.099 A 
HETATM   27  C   UNL     1     -29.906  -4.764 -16.993  1.00  0.00     0.101 A 
HETATM   28  C   UNL     1     -28.732  -5.104 -16.302  1.00  0.00     0.048 A 
BRANCH  26  29
HETATM   29  O   UNL     1     -31.163  -3.058 -18.151  1.00  0.00    -0.358 OA
HETATM   30  H   UNL     1     -31.750  -3.820 -18.272  1.00  0.00     0.217 HD
ENDBRANCH  26  29
BRANCH  27  31
HETATM   31  O   UNL     1     -30.778  -5.813 -17.116  1.00  0.00    -0.353 OA
HETATM   32  C   UNL     1     -30.287  -7.032 -17.656  1.00  0.00     0.210 C 
ENDBRANCH  27  31
ENDBRANCH  22  23
ENDBRANCH  20  22
ENDBRANCH  17  18
ENDBRANCH   1  17
TORSDOF 19
BEGIN_RES ARG D 557
REMARK  4 active torsions:
REMARK  status: ('A' for Active; 'I' for Inactive)
REMARK    1  A    between atoms: CA   and  CB  
REMARK    2  A    between atoms: CB   and  CG  
REMARK    3  A    between atoms: CG   and  CD  
REMARK    4  A    between atoms: CD   and  NE  
REMARK       I    between atoms: NE   and  CZ  
REMARK       I    between atoms: CZ   and  NH1 
REMARK       I    between atoms: CZ   and  NH2 
ROOT
ATOM      1  CA  ARG D 557     -26.217   2.705 -17.014  1.00 35.49     0.159 C 
ENDROOT
BRANCH   1   2
ATOM      2  CB  ARG D 557     -26.789   1.319 -17.183  1.00 35.49     0.034 C 
BRANCH   2   3
ATOM      3  CG  ARG D 557     -25.839   0.201 -17.130  1.00 35.49     0.027 C 
BRANCH   3   4
ATOM      4  CD  ARG D 557     -24.767   0.419 -16.132  1.00 35.49     0.116 C 
BRANCH   4   5
ATOM      5  NE  ARG D 557     -24.914  -0.434 -14.982  1.00 35.49    -0.212 N 
ATOM      6  CZ  ARG D 557     -24.111  -1.419 -14.649  1.00 35.49     0.666 C 
ATOM      7  NH1 ARG D 557     -23.055  -1.749 -15.370  1.00 35.49    -0.235 N 
ATOM      8  NH2 ARG D 557     -24.386  -2.075 -13.559  1.00 35.49    -0.235 N 
ATOM      9  HH  ARG D 557     -22.854  -1.329 -16.089  1.00 35.49     0.174 HD
ATOM     10  HH  ARG D 557     -22.566  -2.399 -15.101  1.00 35.49     0.174 HD
ATOM     11  HH  ARG D 557     -25.071  -1.836 -13.110  1.00 35.49     0.174 HD
ATOM     12  HH  ARG D 557     -23.889  -2.715 -13.309  1.00 35.49     0.174 HD
ATOM     13  HE  ARG D 557     -25.609  -0.339 -14.501  1.00 35.49     0.178 HD
ENDBRANCH   4   5
ENDBRANCH   3   4
ENDBRANCH   2   3
ENDBRANCH   1   2
END_RES ARG D 557
BEGIN_RES GLU D 570
REMARK  3 active torsions:
REMARK  status: ('A' for Active; 'I' for Inactive)
REMARK    5  A    between atoms: CA   and  CB  
REMARK    6  A    between atoms: CB   and  CG  
REMARK    7  A    between atoms: CG   and  CD  
ROOT
ATOM     14  CA  GLU D 570     -18.033  -6.348 -13.375  1.00 32.92     0.160 C 
ENDROOT
BRANCH  14  15
ATOM     15  CB  GLU D 570     -19.500  -6.345 -13.794  1.00 32.92     0.043 C 
BRANCH  15  16
ATOM     16  CG  GLU D 570     -20.088  -7.636 -14.236  1.00 32.92     0.100 C 
BRANCH  16  17
ATOM     17  CD  GLU D 570     -20.669  -7.572 -15.629  1.00 32.92     0.185 C 
ATOM     18  OE1 GLU D 570     -21.222  -8.584 -16.101  1.00 32.92    -0.647 OA
ATOM     19  OE2 GLU D 570     -20.555  -6.504 -16.262  1.00 32.92    -0.647 OA
ENDBRANCH  16  17
ENDBRANCH  15  16
ENDBRANCH  14  15
END_RES GLU D 570
ENDMDL
MODEL 4
REMARK VINA RESULT:      -8.0      2.894      4.782
REMARK  19 active torsions:
REMARK  status: ('A' for Active; 'I' for Inactive)
REMARK    1  A    between atoms: C_2  and  C_3 
REMARK    2  A    between atoms: C_3  and  C_4 
REMARK    3  A    between atoms: C_4  and  C_5 
REMARK    4  A    between atoms: C_5  and  C_6 
REMARK    5  A    between atoms: C_6  and  C_7 
REMARK    6  A    between atoms: C_7  and  C_8 
REMARK    7  A    between atoms: C_8  and  C_9 
REMARK    8  A    between atoms: C_10  and  C_11 
REMARK    9  A    between atoms: C_11  and  C_12 
REMARK   10  A    between atoms: C_12  and  C_13 
REMARK   11  A    between atoms: C_13  and  C_14 
REMARK   12  A    between atoms: C_14  and  C_15 
REMARK   13  A    between atoms: C_15  and  C_16 
REMARK   14  A    between atoms: C_16  and  C_17 
REMARK   15  A    between atoms: C_17  and  C_18 
REMARK       I    between atoms: C_18  and  N_20 
REMARK   16  A    between atoms: N_20  and  C_21 
REMARK   17  A    between atoms: C_21  and  C_22 
REMARK   18  A    between atoms: C_25  and  O_26 
REMARK   19  A    between atoms: C_27  and  O_28 
ROOT
HETATM    1  C   UNL     1     -20.852  -5.434  -7.691  1.00  0.00     0.009 C 
ENDROOT
BRANCH   1   2
HETATM    2  C   UNL     1     -20.154  -4.461  -6.745  1.00  0.00     0.000 C 
BRANCH   2   3
HETATM    3  C   UNL     1     -20.190  -4.959  -5.305  1.00  0.00     0.000 C 
BRANCH   3   4
HETATM    4  C   UNL     1     -21.352  -5.922  -5.043  1.00  0.00     0.000 C 
BRANCH   4   5
HETATM    5  C   UNL     1     -21.155  -6.858  -3.845  1.00  0.00     0.004 C 
BRANCH   5   6
HETATM    6  C   UNL     1     -21.793  -6.311  -2.570  1.00  0.00     0.027 C 
BRANCH   6   7
HETATM    7  C   UNL     1     -21.889  -7.370  -1.515  1.00  0.00    -0.031 C 
HETATM    8  C   UNL     1     -22.604  -7.213  -0.393  1.00  0.00    -0.031 C 
BRANCH   8   9
HETATM    9  C   UNL     1     -22.731  -8.268   0.657  1.00  0.00     0.027 C 
BRANCH   9  10
HETATM   10  C   UNL     1     -21.512  -9.187   0.637  1.00  0.00     0.004 C 
BRANCH  10  11
HETATM   11  C   UNL     1     -21.909 -10.583   0.172  1.00  0.00     0.000 C 
BRANCH  11  12
HETATM   12  C   UNL     1     -23.419 -10.688  -0.007  1.00  0.00     0.000 C 
BRANCH  12  13
HETATM   13  C   UNL     1     -23.759 -11.185  -1.409  1.00  0.00     0.000 C 
BRANCH  13  14
HETATM   14  C   UNL     1     -22.491 -11.398  -2.229  1.00  0.00    -0.000 C 
BRANCH  14  15
HETATM   15  C   UNL     1     -22.542 -10.607  -3.533  1.00  0.00    -0.005 C 
HETATM   16  C   UNL     1     -21.191 -10.613  -4.228  1.00  0.00     0.005 C 
ENDBRANCH  14  15
ENDBRANCH  13  14
ENDBRANCH  12  13
ENDBRANCH  11  12
ENDBRANCH  10  11
ENDBRANCH   9  10
ENDBRANCH   8   9
ENDBRANCH   6   7
ENDBRANCH   5   6
ENDBRANCH   4   5
ENDBRANCH   3   4
ENDBRANCH   2   3
ENDBRANCH   1   2
BRANCH   1  17
HETATM   17  C   UNL     1     -21.298  -4.684  -8.937  1.00  0.00     0.103 C 
BRANCH  17  18
HETATM   18  C   UNL     1     -22.690  -4.105  -8.828  1.00  0.00     0.217 C 
HETATM   19  O   UNL     1     -23.401  -4.222  -7.833  1.00  0.00    -0.274 OA
HETATM   20  N   UNL     1     -23.160  -3.425  -9.917  1.00  0.00    -0.357 N 
HETATM   21  H   UNL     1     -24.071  -3.008  -9.769  1.00  0.00     0.162 HD
BRANCH  20  22
HETATM   22  C   UNL     1     -22.436  -3.094 -11.129  1.00  0.00     0.161 C 
BRANCH  22  23
HETATM   23  C   UNL     1     -23.083  -3.705 -12.344  1.00  0.00    -0.038 A 
HETATM   24  C   UNL     1     -22.880  -5.054 -12.645  1.00  0.00     0.012 A 
HETATM   25  C   UNL     1     -23.504  -5.633 -13.749  1.00  0.00     0.040 A 
HETATM   26  C   UNL     1     -24.343  -4.872 -14.570  1.00  0.00     0.099 A 
HETATM   27  C   UNL     1     -24.557  -3.517 -14.298  1.00  0.00     0.101 A 
HETATM   28  C   UNL     1     -23.915  -2.946 -13.187  1.00  0.00     0.048 A 
BRANCH  26  29
HETATM   29  O   UNL     1     -24.942  -5.495 -15.630  1.00  0.00    -0.358 OA
HETATM   30  H   UNL     1     -24.290  -5.613 -16.338  1.00  0.00     0.217 HD
ENDBRANCH  26  29
BRANCH  27  31
HETATM   31  O   UNL     1     -25.339  -2.625 -14.982  1.00  0.00    -0.353 OA
HETATM   32  C   UNL     1     -24.979  -1.251 -14.942  1.00  0.00     0.210 C 
ENDBRANCH  27  31
ENDBRANCH  22  23
ENDBRANCH  20  22
ENDBRANCH  17  18
ENDBRANCH   1  17
TORSDOF 19
BEGIN_RES ARG D 557
REMARK  4 active torsions:
REMARK  status: ('A' for Active; 'I' for Inactive)
REMARK    1  A    between atoms: CA   and  CB  
REMARK    2  A    between atoms: CB   and  CG  
REMARK    3  A    between atoms: CG   and  CD  
REMARK    4  A    between atoms: CD   and  NE  
REMARK       I    between atoms: NE   and  CZ  
REMARK       I    between atoms: CZ   and  NH1 
REMARK       I    between atoms: CZ   and  NH2 
ROOT
ATOM      1  CA  ARG D 557     -26.217   2.705 -17.014  1.00 35.49     0.159 C 
ENDROOT
BRANCH   1   2
ATOM      2  CB  ARG D 557     -26.789   1.319 -17.183  1.00 35.49     0.034 C 
BRANCH   2   3
ATOM      3  CG  ARG D 557     -28.224   1.228 -17.478  1.00 35.49     0.027 C 
BRANCH   3   4
ATOM      4  CD  ARG D 557     -28.926   0.283 -16.580  1.00 35.49     0.116 C 
BRANCH   4   5
ATOM      5  NE  ARG D 557     -28.177  -0.929 -16.376  1.00 35.49    -0.212 N 
ATOM      6  CZ  ARG D 557     -28.506  -2.120 -16.825  1.00 35.49     0.666 C 
ATOM      7  NH1 ARG D 557     -29.606  -2.336 -17.522  1.00 35.49    -0.235 N 
ATOM      8  NH2 ARG D 557     -27.696  -3.105 -16.563  1.00 35.49    -0.235 N 
ATOM      9  HH  ARG D 557     -30.152  -1.702 -17.708  1.00 35.49     0.174 HD
ATOM     10  HH  ARG D 557     -29.767  -3.134 -17.791  1.00 35.49     0.174 HD
ATOM     11  HH  ARG D 557     -26.990  -2.934 -16.117  1.00 35.49     0.174 HD
ATOM     12  HH  ARG D 557     -27.873  -3.887 -16.839  1.00 35.49     0.174 HD
ATOM     13  HE  ARG D 557     -27.491  -0.895 -15.875  1.00 35.49     0.178 HD
ENDBRANCH   4   5
ENDBRANCH   3   4
ENDBRANCH   2   3
ENDBRANCH   1   2
END_RES ARG D 557
BEGIN_RES GLU D 570
REMARK  3 active torsions:
REMARK  status: ('A' for Active; 'I' for Inactive)
REMARK    5  A    between atoms: CA   and  CB  
REMARK    6  A    between atoms: CB   and  CG  
REMARK    7  A    between atoms: CG   and  CD  
ROOT
ATOM     14  CA  GLU D 570     -18.033  -6.348 -13.375  1.00 32.92     0.160 C 
ENDROOT
BRANCH  14  15
ATOM     15  CB  GLU D 570     -19.500  -6.345 -13.794  1.00 32.92     0.043 C 
BRANCH  15  16
ATOM     16  CG  GLU D 570     -19.802  -6.106 -15.229  1.00 32.92     0.100 C 
BRANCH  16  17
ATOM     17  CD  GLU D 570     -20.765  -7.117 -15.805  1.00 32.92     0.185 C 
ATOM     18  OE1 GLU D 570     -21.603  -6.743 -16.648  1.00 32.92    -0.647 OA
ATOM     19  OE2 GLU D 570     -20.693  -8.293 -15.396  1.00 32.92    -0.647 OA
ENDBRANCH  16  17
ENDBRANCH  15  16
ENDBRANCH  14  15
END_RES GLU D 570
ENDMDL
MODEL 5
REMARK VINA RESULT:      -7.9      2.013      2.888
REMARK  19 active torsions:
REMARK  status: ('A' for Active; 'I' for Inactive)
REMARK    1  A    between atoms: C_2  and  C_3 
REMARK    2  A    between atoms: C_3  and  C_4 
REMARK    3  A    between atoms: C_4  and  C_5 
REMARK    4  A    between atoms: C_5  and  C_6 
REMARK    5  A    between atoms: C_6  and  C_7 
REMARK    6  A    between atoms: C_7  and  C_8 
REMARK    7  A    between atoms: C_8  and  C_9 
REMARK    8  A    between atoms: C_10  and  C_11 
REMARK    9  A    between atoms: C_11  and  C_12 
REMARK   10  A    between atoms: C_12  and  C_13 
REMARK   11  A    between atoms: C_13  and  C_14 
REMARK   12  A    between atoms: C_14  and  C_15 
REMARK   13  A    between atoms: C_15  and  C_16 
REMARK   14  A    between atoms: C_16  and  C_17 
REMARK   15  A    between atoms: C_17  and  C_18 
REMARK       I    between atoms: C_18  and  N_20 
REMARK   16  A    between atoms: N_20  and  C_21 
REMARK   17  A    between atoms: C_21  and  C_22 
REMARK   18  A    between atoms: C_25  and  O_26 
REMARK   19  A    between atoms: C_27  and  O_28 
ROOT
HETATM    1  C   UNL     1     -21.252  -8.167  -5.119  1.00  0.00     0.009 C 
ENDROOT
BRANCH   1   2
HETATM    2  C   UNL     1     -20.171  -8.218  -4.042  1.00  0.00     0.000 C 
BRANCH   2   3
HETATM    3  C   UNL     1     -20.771  -8.138  -2.643  1.00  0.00     0.000 C 
BRANCH   3   4
HETATM    4  C   UNL     1     -21.248  -6.727  -2.286  1.00  0.00     0.000 C 
BRANCH   4   5
HETATM    5  C   UNL     1     -22.374  -6.671  -1.248  1.00  0.00     0.004 C 
BRANCH   5   6
HETATM    6  C   UNL     1     -22.074  -7.527  -0.019  1.00  0.00     0.027 C 
BRANCH   6   7
HETATM    7  C   UNL     1     -23.103  -8.600   0.158  1.00  0.00    -0.031 C 
HETATM    8  C   UNL     1     -22.880  -9.880  -0.172  1.00  0.00    -0.031 C 
BRANCH   8   9
HETATM    9  C   UNL     1     -23.887 -10.967   0.022  1.00  0.00     0.027 C 
BRANCH   9  10
HETATM   10  C   UNL     1     -24.249 -11.601  -1.319  1.00  0.00     0.004 C 
BRANCH  10  11
HETATM   11  C   UNL     1     -23.081 -12.426  -1.846  1.00  0.00     0.000 C 
BRANCH  11  12
HETATM   12  C   UNL     1     -22.619 -11.913  -3.205  1.00  0.00     0.000 C 
BRANCH  12  13
HETATM   13  C   UNL     1     -21.106 -11.729  -3.221  1.00  0.00     0.000 C 
BRANCH  13  14
HETATM   14  C   UNL     1     -20.473 -12.337  -1.974  1.00  0.00    -0.000 C 
BRANCH  14  15
HETATM   15  C   UNL     1     -19.561 -11.332  -1.276  1.00  0.00    -0.005 C 
HETATM   16  C   UNL     1     -19.638 -11.483   0.234  1.00  0.00     0.005 C 
ENDBRANCH  14  15
ENDBRANCH  13  14
ENDBRANCH  12  13
ENDBRANCH  11  12
ENDBRANCH  10  11
ENDBRANCH   9  10
ENDBRANCH   8   9
ENDBRANCH   6   7
ENDBRANCH   5   6
ENDBRANCH   4   5
ENDBRANCH   3   4
ENDBRANCH   2   3
ENDBRANCH   1   2
BRANCH   1  17
HETATM   17  C   UNL     1     -21.074  -6.900  -5.943  1.00  0.00     0.103 C 
BRANCH  17  18
HETATM   18  C   UNL     1     -22.204  -5.910  -5.780  1.00  0.00     0.217 C 
HETATM   19  O   UNL     1     -23.228  -6.143  -5.141  1.00  0.00    -0.274 OA
HETATM   20  N   UNL     1     -22.053  -4.698  -6.395  1.00  0.00    -0.357 N 
HETATM   21  H   UNL     1     -22.810  -4.054  -6.205  1.00  0.00     0.162 HD
BRANCH  20  22
HETATM   22  C   UNL     1     -20.883  -4.206  -7.096  1.00  0.00     0.161 C 
BRANCH  22  23
HETATM   23  C   UNL     1     -21.139  -4.075  -8.575  1.00  0.00    -0.038 A 
HETATM   24  C   UNL     1     -20.113  -4.325  -9.490  1.00  0.00     0.012 A 
HETATM   25  C   UNL     1     -20.353  -4.239 -10.860  1.00  0.00     0.040 A 
HETATM   26  C   UNL     1     -21.623  -3.903 -11.339  1.00  0.00     0.099 A 
HETATM   27  C   UNL     1     -22.667  -3.638 -10.445  1.00  0.00     0.101 A 
HETATM   28  C   UNL     1     -22.408  -3.722  -9.068  1.00  0.00     0.048 A 
BRANCH  26  29
HETATM   29  O   UNL     1     -21.807  -3.848 -12.693  1.00  0.00    -0.358 OA
HETATM   30  H   UNL     1     -22.081  -2.951 -12.940  1.00  0.00     0.217 HD
ENDBRANCH  26  29
BRANCH  27  31
HETATM   31  O   UNL     1     -23.963  -3.301 -10.728  1.00  0.00    -0.353 OA
HETATM   32  C   UNL     1     -24.892  -3.254  -9.653  1.00  0.00     0.210 C 
ENDBRANCH  27  31
ENDBRANCH  22  23
ENDBRANCH  20  22
ENDBRANCH  17  18
ENDBRANCH   1  17
TORSDOF 19
BEGIN_RES ARG D 557
REMARK  4 active torsions:
REMARK  status: ('A' for Active; 'I' for Inactive)
REMARK    1  A    between atoms: CA   and  CB  
REMARK    2  A    between atoms: CB   and  CG  
REMARK    3  A    between atoms: CG   and  CD  
REMARK    4  A    between atoms: CD   and  NE  
REMARK       I    between atoms: NE   and  CZ  
REMARK       I    between atoms: CZ   and  NH1 
REMARK       I    between atoms: CZ   and  NH2 
ROOT
ATOM      1  CA  ARG D 557     -26.217   2.705 -17.014  1.00 35.49     0.159 C 
ENDROOT
BRANCH   1   2
ATOM      2  CB  ARG D 557     -26.789   1.319 -17.183  1.00 35.49     0.034 C 
BRANCH   2   3
ATOM      3  CG  ARG D 557     -25.863   0.195 -16.998  1.00 35.49     0.027 C 
BRANCH   3   4
ATOM      4  CD  ARG D 557     -26.284  -0.709 -15.903  1.00 35.49     0.116 C 
BRANCH   4   5
ATOM      5  NE  ARG D 557     -25.243  -0.904 -14.930  1.00 35.49    -0.212 N 
ATOM      6  CZ  ARG D 557     -24.943  -2.041 -14.343  1.00 35.49     0.666 C 
ATOM      7  NH1 ARG D 557     -25.601  -3.159 -14.585  1.00 35.49    -0.235 N 
ATOM      8  NH2 ARG D 557     -23.952  -2.038 -13.500  1.00 35.49    -0.235 N 
ATOM      9  HH  ARG D 557     -26.256  -3.185 -15.138  1.00 35.49     0.174 HD
ATOM     10  HH  ARG D 557     -25.359  -3.871 -14.175  1.00 35.49     0.174 HD
ATOM     11  HH  ARG D 557     -23.540  -1.303 -13.368  1.00 35.49     0.174 HD
ATOM     12  HH  ARG D 557     -23.726  -2.754 -13.104  1.00 35.49     0.174 HD
ATOM     13  HE  ARG D 557     -24.815  -0.220 -14.660  1.00 35.49     0.178 HD
ENDBRANCH   4   5
ENDBRANCH   3   4
ENDBRANCH   2   3
ENDBRANCH   1   2
END_RES ARG D 557
BEGIN_RES GLU D 570
REMARK  3 active torsions:
REMARK  status: ('A' for Active; 'I' for Inactive)
REMARK    5  A    between atoms: CA   and  CB  
REMARK    6  A    between atoms: CB   and  CG  
REMARK    7  A    between atoms: CG   and  CD  
ROOT
ATOM     14  CA  GLU D 570     -18.033  -6.348 -13.375  1.00 32.92     0.160 C 
ENDROOT
BRANCH  14  15
ATOM     15  CB  GLU D 570     -19.500  -6.345 -13.794  1.00 32.92     0.043 C 
BRANCH  15  16
ATOM     16  CG  GLU D 570     -19.827  -5.798 -15.136  1.00 32.92     0.100 C 
BRANCH  16  17
ATOM     17  CD  GLU D 570     -21.307  -5.835 -15.443  1.00 32.92     0.185 C 
ATOM     18  OE1 GLU D 570     -21.688  -5.624 -16.610  1.00 32.92    -0.647 OA
ATOM     19  OE2 GLU D 570     -22.093  -6.061 -14.502  1.00 32.92    -0.647 OA
ENDBRANCH  16  17
ENDBRANCH  15  16
ENDBRANCH  14  15
END_RES GLU D 570
ENDMDL
MODEL 6
REMARK VINA RESULT:      -7.7      2.333      4.482
REMARK  19 active torsions:
REMARK  status: ('A' for Active; 'I' for Inactive)
REMARK    1  A    between atoms: C_2  and  C_3 
REMARK    2  A    between atoms: C_3  and  C_4 
REMARK    3  A    between atoms: C_4  and  C_5 
REMARK    4  A    between atoms: C_5  and  C_6 
REMARK    5  A    between atoms: C_6  and  C_7 
REMARK    6  A    between atoms: C_7  and  C_8 
REMARK    7  A    between atoms: C_8  and  C_9 
REMARK    8  A    between atoms: C_10  and  C_11 
REMARK    9  A    between atoms: C_11  and  C_12 
REMARK   10  A    between atoms: C_12  and  C_13 
REMARK   11  A    between atoms: C_13  and  C_14 
REMARK   12  A    between atoms: C_14  and  C_15 
REMARK   13  A    between atoms: C_15  and  C_16 
REMARK   14  A    between atoms: C_16  and  C_17 
REMARK   15  A    between atoms: C_17  and  C_18 
REMARK       I    between atoms: C_18  and  N_20 
REMARK   16  A    between atoms: N_20  and  C_21 
REMARK   17  A    between atoms: C_21  and  C_22 
REMARK   18  A    between atoms: C_25  and  O_26 
REMARK   19  A    between atoms: C_27  and  O_28 
ROOT
HETATM    1  C   UNL     1     -21.132  -8.319  -4.844  1.00  0.00     0.009 C 
ENDROOT
BRANCH   1   2
HETATM    2  C   UNL     1     -20.102  -8.566  -3.746  1.00  0.00     0.000 C 
BRANCH   2   3
HETATM    3  C   UNL     1     -20.710  -8.390  -2.358  1.00  0.00     0.000 C 
BRANCH   3   4
HETATM    4  C   UNL     1     -21.062  -6.932  -2.050  1.00  0.00     0.000 C 
BRANCH   4   5
HETATM    5  C   UNL     1     -22.277  -6.742  -1.135  1.00  0.00     0.004 C 
BRANCH   5   6
HETATM    6  C   UNL     1     -22.222  -7.643   0.097  1.00  0.00     0.027 C 
BRANCH   6   7
HETATM    7  C   UNL     1     -23.301  -8.681   0.058  1.00  0.00    -0.031 C 
HETATM    8  C   UNL     1     -23.044  -9.992  -0.042  1.00  0.00    -0.031 C 
BRANCH   8   9
HETATM    9  C   UNL     1     -24.107 -11.041  -0.057  1.00  0.00     0.027 C 
BRANCH   9  10
HETATM   10  C   UNL     1     -23.789 -12.105  -1.105  1.00  0.00     0.004 C 
BRANCH  10  11
HETATM   11  C   UNL     1     -23.929 -13.498  -0.503  1.00  0.00     0.000 C 
BRANCH  11  12
HETATM   12  C   UNL     1     -22.795 -13.786   0.475  1.00  0.00     0.000 C 
BRANCH  12  13
HETATM   13  C   UNL     1     -23.309 -13.767   1.911  1.00  0.00     0.000 C 
BRANCH  13  14
HETATM   14  C   UNL     1     -22.335 -14.480   2.843  1.00  0.00    -0.000 C 
BRANCH  14  15
HETATM   15  C   UNL     1     -23.080 -15.327   3.871  1.00  0.00    -0.005 C 
HETATM   16  C   UNL     1     -24.582 -15.130   3.754  1.00  0.00     0.005 C 
ENDBRANCH  14  15
ENDBRANCH  13  14
ENDBRANCH  12  13
ENDBRANCH  11  12
ENDBRANCH  10  11
ENDBRANCH   9  10
ENDBRANCH   8   9
ENDBRANCH   6   7
ENDBRANCH   5   6
ENDBRANCH   4   5
ENDBRANCH   3   4
ENDBRANCH   2   3
ENDBRANCH   1   2
BRANCH   1  17
HETATM   17  C   UNL     1     -20.811  -7.006  -5.543  1.00  0.00     0.103 C 
BRANCH  17  18
HETATM   18  C   UNL     1     -21.998  -6.078  -5.663  1.00  0.00     0.217 C 
HETATM   19  O   UNL     1     -23.043  -6.224  -5.033  1.00  0.00    -0.274 OA
HETATM   20  N   UNL     1     -21.874  -5.031  -6.533  1.00  0.00    -0.357 N 
HETATM   21  H   UNL     1     -22.672  -4.410  -6.530  1.00  0.00     0.162 HD
BRANCH  20  22
HETATM   22  C   UNL     1     -20.693  -4.639  -7.276  1.00  0.00     0.161 C 
BRANCH  22  23
HETATM   23  C   UNL     1     -21.012  -4.378  -8.726  1.00  0.00    -0.038 A 
HETATM   24  C   UNL     1     -20.020  -4.518  -9.700  1.00  0.00     0.012 A 
HETATM   25  C   UNL     1     -20.319  -4.312 -11.046  1.00  0.00     0.040 A 
HETATM   26  C   UNL     1     -21.614  -3.963 -11.440  1.00  0.00     0.099 A 
HETATM   27  C   UNL     1     -22.624  -3.807 -10.485  1.00  0.00     0.101 A 
HETATM   28  C   UNL     1     -22.307  -4.010  -9.133  1.00  0.00     0.048 A 
BRANCH  26  29
HETATM   29  O   UNL     1     -21.855  -3.789 -12.775  1.00  0.00    -0.358 OA
HETATM   30  H   UNL     1     -22.156  -2.879 -12.927  1.00  0.00     0.217 HD
ENDBRANCH  26  29
BRANCH  27  31
HETATM   31  O   UNL     1     -23.938  -3.474 -10.683  1.00  0.00    -0.353 OA
HETATM   32  C   UNL     1     -24.760  -3.284  -9.540  1.00  0.00     0.210 C 
ENDBRANCH  27  31
ENDBRANCH  22  23
ENDBRANCH  20  22
ENDBRANCH  17  18
ENDBRANCH   1  17
TORSDOF 19
BEGIN_RES ARG D 557
REMARK  4 active torsions:
REMARK  status: ('A' for Active; 'I' for Inactive)
REMARK    1  A    between atoms: CA   and  CB  
REMARK    2  A    between atoms: CB   and  CG  
REMARK    3  A    between atoms: CG   and  CD  
REMARK    4  A    between atoms: CD   and  NE  
REMARK       I    between atoms: NE   and  CZ  
REMARK       I    between atoms: CZ   and  NH1 
REMARK       I    between atoms: CZ   and  NH2 
ROOT
ATOM      1  CA  ARG D 557     -26.217   2.705 -17.014  1.00 35.49     0.159 C 
ENDROOT
BRANCH   1   2
ATOM      2  CB  ARG D 557     -26.789   1.319 -17.183  1.00 35.49     0.034 C 
BRANCH   2   3
ATOM      3  CG  ARG D 557     -25.882   0.194 -16.926  1.00 35.49     0.027 C 
BRANCH   3   4
ATOM      4  CD  ARG D 557     -26.374  -0.693 -15.847  1.00 35.49     0.116 C 
BRANCH   4   5
ATOM      5  NE  ARG D 557     -25.368  -0.941 -14.848  1.00 35.49    -0.212 N 
ATOM      6  CZ  ARG D 557     -25.098  -2.106 -14.303  1.00 35.49     0.666 C 
ATOM      7  NH1 ARG D 557     -25.757  -3.206 -14.618  1.00 35.49    -0.235 N 
ATOM      8  NH2 ARG D 557     -24.136  -2.151 -13.428  1.00 35.49    -0.235 N 
ATOM      9  HH  ARG D 557     -26.392  -3.200 -15.193  1.00 35.49     0.174 HD
ATOM     10  HH  ARG D 557     -25.535  -3.938 -14.232  1.00 35.49     0.174 HD
ATOM     11  HH  ARG D 557     -23.723  -1.426 -13.249  1.00 35.49     0.174 HD
ATOM     12  HH  ARG D 557     -23.930  -2.885 -13.057  1.00 35.49     0.174 HD
ATOM     13  HE  ARG D 557     -24.944  -0.274 -14.534  1.00 35.49     0.178 HD
ENDBRANCH   4   5
ENDBRANCH   3   4
ENDBRANCH   2   3
ENDBRANCH   1   2
END_RES ARG D 557
BEGIN_RES GLU D 570
REMARK  3 active torsions:
REMARK  status: ('A' for Active; 'I' for Inactive)
REMARK    5  A    between atoms: CA   and  CB  
REMARK    6  A    between atoms: CB   and  CG  
REMARK    7  A    between atoms: CG   and  CD  
ROOT
ATOM     14  CA  GLU D 570     -18.033  -6.348 -13.375  1.00 32.92     0.160 C 
ENDROOT
BRANCH  14  15
ATOM     15  CB  GLU D 570     -19.500  -6.345 -13.794  1.00 32.92     0.043 C 
BRANCH  15  16
ATOM     16  CG  GLU D 570     -19.808  -5.998 -15.205  1.00 32.92     0.100 C 
BRANCH  16  17
ATOM     17  CD  GLU D 570     -21.287  -5.823 -15.460  1.00 32.92     0.185 C 
ATOM     18  OE1 GLU D 570     -21.758  -4.671 -15.522  1.00 32.92    -0.647 OA
ATOM     19  OE2 GLU D 570     -21.985  -6.849 -15.582  1.00 32.92    -0.647 OA
ENDBRANCH  16  17
ENDBRANCH  15  16
ENDBRANCH  14  15
END_RES GLU D 570
ENDMDL
MODEL 7
REMARK VINA RESULT:      -7.7      2.338      3.323
REMARK  19 active torsions:
REMARK  status: ('A' for Active; 'I' for Inactive)
REMARK    1  A    between atoms: C_2  and  C_3 
REMARK    2  A    between atoms: C_3  and  C_4 
REMARK    3  A    between atoms: C_4  and  C_5 
REMARK    4  A    between atoms: C_5  and  C_6 
REMARK    5  A    between atoms: C_6  and  C_7 
REMARK    6  A    between atoms: C_7  and  C_8 
REMARK    7  A    between atoms: C_8  and  C_9 
REMARK    8  A    between atoms: C_10  and  C_11 
REMARK    9  A    between atoms: C_11  and  C_12 
REMARK   10  A    between atoms: C_12  and  C_13 
REMARK   11  A    between atoms: C_13  and  C_14 
REMARK   12  A    between atoms: C_14  and  C_15 
REMARK   13  A    between atoms: C_15  and  C_16 
REMARK   14  A    between atoms: C_16  and  C_17 
REMARK   15  A    between atoms: C_17  and  C_18 
REMARK       I    between atoms: C_18  and  N_20 
REMARK   16  A    between atoms: N_20  and  C_21 
REMARK   17  A    between atoms: C_21  and  C_22 
REMARK   18  A    between atoms: C_25  and  O_26 
REMARK   19  A    between atoms: C_27  and  O_28 
ROOT
HETATM    1  C   UNL     1     -21.307  -6.987  -3.287  1.00  0.00     0.009 C 
ENDROOT
BRANCH   1   2
HETATM    2  C   UNL     1     -22.002  -6.242  -2.151  1.00  0.00     0.000 C 
BRANCH   2   3
HETATM    3  C   UNL     1     -22.294  -7.166  -0.973  1.00  0.00     0.000 C 
BRANCH   3   4
HETATM    4  C   UNL     1     -21.273  -8.301  -0.848  1.00  0.00     0.000 C 
BRANCH   4   5
HETATM    5  C   UNL     1     -21.785  -9.550  -0.122  1.00  0.00     0.004 C 
BRANCH   5   6
HETATM    6  C   UNL     1     -23.292  -9.741  -0.286  1.00  0.00     0.027 C 
BRANCH   6   7
HETATM    7  C   UNL     1     -23.703 -11.137   0.066  1.00  0.00    -0.031 C 
HETATM    8  C   UNL     1     -22.850 -12.038   0.572  1.00  0.00    -0.031 C 
BRANCH   8   9
HETATM    9  C   UNL     1     -23.249 -13.426   0.953  1.00  0.00     0.027 C 
BRANCH   9  10
HETATM   10  C   UNL     1     -22.934 -14.400  -0.181  1.00  0.00     0.004 C 
BRANCH  10  11
HETATM   11  C   UNL     1     -24.166 -14.613  -1.051  1.00  0.00     0.000 C 
BRANCH  11  12
HETATM   12  C   UNL     1     -23.771 -14.889  -2.498  1.00  0.00     0.000 C 
BRANCH  12  13
HETATM   13  C   UNL     1     -22.419 -14.257  -2.813  1.00  0.00     0.000 C 
BRANCH  13  14
HETATM   14  C   UNL     1     -22.593 -13.015  -3.681  1.00  0.00    -0.000 C 
BRANCH  14  15
HETATM   15  C   UNL     1     -21.751 -11.856  -3.155  1.00  0.00    -0.005 C 
HETATM   16  C   UNL     1     -22.228 -10.532  -3.727  1.00  0.00     0.005 C 
ENDBRANCH  14  15
ENDBRANCH  13  14
ENDBRANCH  12  13
ENDBRANCH  11  12
ENDBRANCH  10  11
ENDBRANCH   9  10
ENDBRANCH   8   9
ENDBRANCH   6   7
ENDBRANCH   5   6
ENDBRANCH   4   5
ENDBRANCH   3   4
ENDBRANCH   2   3
ENDBRANCH   1   2
BRANCH   1  17
HETATM   17  C   UNL     1     -21.734  -6.378  -4.615  1.00  0.00     0.103 C 
BRANCH  17  18
HETATM   18  C   UNL     1     -21.072  -7.018  -5.813  1.00  0.00     0.217 C 
HETATM   19  O   UNL     1     -20.697  -8.188  -5.841  1.00  0.00    -0.274 OA
HETATM   20  N   UNL     1     -20.889  -6.224  -6.911  1.00  0.00    -0.357 N 
HETATM   21  H   UNL     1     -20.497  -6.717  -7.703  1.00  0.00     0.162 HD
BRANCH  20  22
HETATM   22  C   UNL     1     -21.357  -4.865  -7.103  1.00  0.00     0.161 C 
BRANCH  22  23
HETATM   23  C   UNL     1     -21.426  -4.506  -8.565  1.00  0.00    -0.038 A 
HETATM   24  C   UNL     1     -20.316  -4.703  -9.390  1.00  0.00     0.012 A 
HETATM   25  C   UNL     1     -20.386  -4.405 -10.750  1.00  0.00     0.040 A 
HETATM   26  C   UNL     1     -21.566  -3.905 -11.307  1.00  0.00     0.099 A 
HETATM   27  C   UNL     1     -22.690  -3.688 -10.503  1.00  0.00     0.101 A 
HETATM   28  C   UNL     1     -22.602  -3.986  -9.134  1.00  0.00     0.048 A 
BRANCH  26  29
HETATM   29  O   UNL     1     -21.584  -3.644 -12.650  1.00  0.00    -0.358 OA
HETATM   30  H   UNL     1     -20.717  -3.862 -13.027  1.00  0.00     0.217 HD
ENDBRANCH  26  29
BRANCH  27  31
HETATM   31  O   UNL     1     -23.920  -3.211 -10.870  1.00  0.00    -0.353 OA
HETATM   32  C   UNL     1     -24.959  -3.223  -9.901  1.00  0.00     0.210 C 
ENDBRANCH  27  31
ENDBRANCH  22  23
ENDBRANCH  20  22
ENDBRANCH  17  18
ENDBRANCH   1  17
TORSDOF 19
BEGIN_RES ARG D 557
REMARK  4 active torsions:
REMARK  status: ('A' for Active; 'I' for Inactive)
REMARK    1  A    between atoms: CA   and  CB  
REMARK    2  A    between atoms: CB   and  CG  
REMARK    3  A    between atoms: CG   and  CD  
REMARK    4  A    between atoms: CD   and  NE  
REMARK       I    between atoms: NE   and  CZ  
REMARK       I    between atoms: CZ   and  NH1 
REMARK       I    between atoms: CZ   and  NH2 
ROOT
ATOM      1  CA  ARG D 557     -26.217   2.705 -17.014  1.00 35.49     0.159 C 
ENDROOT
BRANCH   1   2
ATOM      2  CB  ARG D 557     -26.789   1.319 -17.183  1.00 35.49     0.034 C 
BRANCH   2   3
ATOM      3  CG  ARG D 557     -25.847   0.198 -17.078  1.00 35.49     0.027 C 
BRANCH   3   4
ATOM      4  CD  ARG D 557     -24.761   0.462 -16.107  1.00 35.49     0.116 C 
BRANCH   4   5
ATOM      5  NE  ARG D 557     -24.822  -0.421 -14.972  1.00 35.49    -0.212 N 
ATOM      6  CZ  ARG D 557     -23.976  -1.391 -14.707  1.00 35.49     0.666 C 
ATOM      7  NH1 ARG D 557     -22.954  -1.674 -15.493  1.00 35.49    -0.235 N 
ATOM      8  NH2 ARG D 557     -24.173  -2.079 -13.620  1.00 35.49    -0.235 N 
ATOM      9  HH  ARG D 557     -22.804  -1.233 -16.212  1.00 35.49     0.174 HD
ATOM     10  HH  ARG D 557     -22.434  -2.317 -15.268  1.00 35.49     0.174 HD
ATOM     11  HH  ARG D 557     -24.837  -1.869 -13.128  1.00 35.49     0.174 HD
ATOM     12  HH  ARG D 557     -23.646  -2.711 -13.414  1.00 35.49     0.174 HD
ATOM     13  HE  ARG D 557     -25.492  -0.356 -14.451  1.00 35.49     0.178 HD
ENDBRANCH   4   5
ENDBRANCH   3   4
ENDBRANCH   2   3
ENDBRANCH   1   2
END_RES ARG D 557
BEGIN_RES GLU D 570
REMARK  3 active torsions:
REMARK  status: ('A' for Active; 'I' for Inactive)
REMARK    5  A    between atoms: CA   and  CB  
REMARK    6  A    between atoms: CB   and  CG  
REMARK    7  A    between atoms: CG   and  CD  
ROOT
ATOM     14  CA  GLU D 570     -18.033  -6.348 -13.375  1.00 32.92     0.160 C 
ENDROOT
BRANCH  14  15
ATOM     15  CB  GLU D 570     -19.500  -6.345 -13.794  1.00 32.92     0.043 C 
BRANCH  15  16
ATOM     16  CG  GLU D 570     -19.797  -6.218 -15.244  1.00 32.92     0.100 C 
BRANCH  16  17
ATOM     17  CD  GLU D 570     -21.176  -5.662 -15.516  1.00 32.92     0.185 C 
ATOM     18  OE1 GLU D 570     -22.078  -5.843 -14.676  1.00 32.92    -0.647 OA
ATOM     19  OE2 GLU D 570     -21.360  -5.054 -16.589  1.00 32.92    -0.647 OA
ENDBRANCH  16  17
ENDBRANCH  15  16
ENDBRANCH  14  15
END_RES GLU D 570
ENDMDL
MODEL 8
REMARK VINA RESULT:      -7.6      4.832     10.985
REMARK  19 active torsions:
REMARK  status: ('A' for Active; 'I' for Inactive)
REMARK    1  A    between atoms: C_2  and  C_3 
REMARK    2  A    between atoms: C_3  and  C_4 
REMARK    3  A    between atoms: C_4  and  C_5 
REMARK    4  A    between atoms: C_5  and  C_6 
REMARK    5  A    between atoms: C_6  and  C_7 
REMARK    6  A    between atoms: C_7  and  C_8 
REMARK    7  A    between atoms: C_8  and  C_9 
REMARK    8  A    between atoms: C_10  and  C_11 
REMARK    9  A    between atoms: C_11  and  C_12 
REMARK   10  A    between atoms: C_12  and  C_13 
REMARK   11  A    between atoms: C_13  and  C_14 
REMARK   12  A    between atoms: C_14  and  C_15 
REMARK   13  A    between atoms: C_15  and  C_16 
REMARK   14  A    between atoms: C_16  and  C_17 
REMARK   15  A    between atoms: C_17  and  C_18 
REMARK       I    between atoms: C_18  and  N_20 
REMARK   16  A    between atoms: N_20  and  C_21 
REMARK   17  A    between atoms: C_21  and  C_22 
REMARK   18  A    between atoms: C_25  and  O_26 
REMARK   19  A    between atoms: C_27  and  O_28 
ROOT
HETATM    1  C   UNL     1     -24.262  -7.738 -19.786  1.00  0.00     0.009 C 
ENDROOT
BRANCH   1   2
HETATM    2  C   UNL     1     -23.976  -6.740 -18.667  1.00  0.00     0.000 C 
BRANCH   2   3
HETATM    3  C   UNL     1     -24.031  -7.406 -17.297  1.00  0.00     0.000 C 
BRANCH   3   4
HETATM    4  C   UNL     1     -25.302  -7.050 -16.519  1.00  0.00     0.000 C 
BRANCH   4   5
HETATM    5  C   UNL     1     -25.088  -6.101 -15.335  1.00  0.00     0.004 C 
BRANCH   5   6
HETATM    6  C   UNL     1     -23.631  -6.062 -14.878  1.00  0.00     0.027 C 
BRANCH   6   7
HETATM    7  C   UNL     1     -23.521  -5.619 -13.452  1.00  0.00    -0.031 C 
HETATM    8  C   UNL     1     -22.528  -4.835 -13.010  1.00  0.00    -0.031 C 
BRANCH   8   9
HETATM    9  C   UNL     1     -22.418  -4.364 -11.597  1.00  0.00     0.027 C 
BRANCH   9  10
HETATM   10  C   UNL     1     -20.993  -3.904 -11.300  1.00  0.00     0.004 C 
BRANCH  10  11
HETATM   11  C   UNL     1     -20.686  -4.060  -9.815  1.00  0.00     0.000 C 
BRANCH  11  12
HETATM   12  C   UNL     1     -21.971  -4.148  -8.999  1.00  0.00     0.000 C 
BRANCH  12  13
HETATM   13  C   UNL     1     -21.698  -3.828  -7.533  1.00  0.00     0.000 C 
BRANCH  13  14
HETATM   14  C   UNL     1     -20.335  -4.363  -7.108  1.00  0.00    -0.000 C 
BRANCH  14  15
HETATM   15  C   UNL     1     -20.451  -5.777  -6.545  1.00  0.00    -0.005 C 
HETATM   16  C   UNL     1     -21.608  -5.880  -5.566  1.00  0.00     0.005 C 
ENDBRANCH  14  15
ENDBRANCH  13  14
ENDBRANCH  12  13
ENDBRANCH  11  12
ENDBRANCH  10  11
ENDBRANCH   9  10
ENDBRANCH   8   9
ENDBRANCH   6   7
ENDBRANCH   5   6
ENDBRANCH   4   5
ENDBRANCH   3   4
ENDBRANCH   2   3
ENDBRANCH   1   2
BRANCH   1  17
HETATM   17  C   UNL     1     -25.233  -7.112 -20.776  1.00  0.00     0.103 C 
BRANCH  17  18
HETATM   18  C   UNL     1     -26.590  -7.776 -20.794  1.00  0.00     0.217 C 
HETATM   19  O   UNL     1     -26.860  -8.756 -21.483  1.00  0.00    -0.274 OA
HETATM   20  N   UNL     1     -27.553  -7.228 -19.992  1.00  0.00    -0.357 N 
HETATM   21  H   UNL     1     -28.422  -7.745 -19.997  1.00  0.00     0.162 HD
BRANCH  20  22
HETATM   22  C   UNL     1     -27.394  -6.148 -19.038  1.00  0.00     0.161 C 
BRANCH  22  23
HETATM   23  C   UNL     1     -28.705  -5.787 -18.389  1.00  0.00    -0.038 A 
HETATM   24  C   UNL     1     -29.617  -6.788 -18.042  1.00  0.00     0.012 A 
HETATM   25  C   UNL     1     -30.816  -6.462 -17.410  1.00  0.00     0.040 A 
HETATM   26  C   UNL     1     -31.123  -5.130 -17.113  1.00  0.00     0.099 A 
HETATM   27  C   UNL     1     -30.233  -4.107 -17.457  1.00  0.00     0.101 A 
HETATM   28  C   UNL     1     -29.033  -4.450 -18.100  1.00  0.00     0.048 A 
BRANCH  26  29
HETATM   29  O   UNL     1     -32.305  -4.870 -16.478  1.00  0.00    -0.358 OA
HETATM   30  H   UNL     1     -32.136  -4.741 -15.532  1.00  0.00     0.217 HD
ENDBRANCH  26  29
BRANCH  27  31
HETATM   31  O   UNL     1     -30.363  -2.761 -17.246  1.00  0.00    -0.353 OA
HETATM   32  C   UNL     1     -29.179  -1.980 -17.157  1.00  0.00     0.210 C 
ENDBRANCH  27  31
ENDBRANCH  22  23
ENDBRANCH  20  22
ENDBRANCH  17  18
ENDBRANCH   1  17
TORSDOF 19
BEGIN_RES ARG D 557
REMARK  4 active torsions:
REMARK  status: ('A' for Active; 'I' for Inactive)
REMARK    1  A    between atoms: CA   and  CB  
REMARK    2  A    between atoms: CB   and  CG  
REMARK    3  A    between atoms: CG   and  CD  
REMARK    4  A    between atoms: CD   and  NE  
REMARK       I    between atoms: NE   and  CZ  
REMARK       I    between atoms: CZ   and  NH1 
REMARK       I    between atoms: CZ   and  NH2 
ROOT
ATOM      1  CA  ARG D 557     -26.217   2.705 -17.014  1.00 35.49     0.159 C 
ENDROOT
BRANCH   1   2
ATOM      2  CB  ARG D 557     -26.789   1.319 -17.183  1.00 35.49     0.034 C 
BRANCH   2   3
ATOM      3  CG  ARG D 557     -25.839   0.201 -17.130  1.00 35.49     0.027 C 
BRANCH   3   4
ATOM      4  CD  ARG D 557     -24.748   0.433 -16.156  1.00 35.49     0.116 C 
BRANCH   4   5
ATOM      5  NE  ARG D 557     -24.879  -0.397 -14.988  1.00 35.49    -0.212 N 
ATOM      6  CZ  ARG D 557     -24.080  -1.386 -14.655  1.00 35.49     0.666 C 
ATOM      7  NH1 ARG D 557     -23.045  -1.741 -15.395  1.00 35.49    -0.235 N 
ATOM      8  NH2 ARG D 557     -24.336  -2.019 -13.548  1.00 35.49    -0.235 N 
ATOM      9  HH  ARG D 557     -22.856  -1.337 -16.127  1.00 35.49     0.174 HD
ATOM     10  HH  ARG D 557     -22.558  -2.393 -15.127  1.00 35.49     0.174 HD
ATOM     11  HH  ARG D 557     -25.007  -1.763 -13.087  1.00 35.49     0.174 HD
ATOM     12  HH  ARG D 557     -23.841  -2.661 -13.298  1.00 35.49     0.174 HD
ATOM     13  HE  ARG D 557     -25.561  -0.285 -14.492  1.00 35.49     0.178 HD
ENDBRANCH   4   5
ENDBRANCH   3   4
ENDBRANCH   2   3
ENDBRANCH   1   2
END_RES ARG D 557
BEGIN_RES GLU D 570
REMARK  3 active torsions:
REMARK  status: ('A' for Active; 'I' for Inactive)
REMARK    5  A    between atoms: CA   and  CB  
REMARK    6  A    between atoms: CB   and  CG  
REMARK    7  A    between atoms: CG   and  CD  
ROOT
ATOM     14  CA  GLU D 570     -18.033  -6.348 -13.375  1.00 32.92     0.160 C 
ENDROOT
BRANCH  14  15
ATOM     15  CB  GLU D 570     -19.500  -6.345 -13.794  1.00 32.92     0.043 C 
BRANCH  15  16
ATOM     16  CG  GLU D 570     -19.856  -5.609 -15.035  1.00 32.92     0.100 C 
BRANCH  16  17
ATOM     17  CD  GLU D 570     -20.447  -6.503 -16.101  1.00 32.92     0.185 C 
ATOM     18  OE1 GLU D 570     -20.756  -6.008 -17.202  1.00 32.92    -0.647 OA
ATOM     19  OE2 GLU D 570     -20.618  -7.707 -15.825  1.00 32.92    -0.647 OA
ENDBRANCH  16  17
ENDBRANCH  15  16
ENDBRANCH  14  15
END_RES GLU D 570
ENDMDL
MODEL 9
REMARK VINA RESULT:      -7.5      2.245      3.302
REMARK  19 active torsions:
REMARK  status: ('A' for Active; 'I' for Inactive)
REMARK    1  A    between atoms: C_2  and  C_3 
REMARK    2  A    between atoms: C_3  and  C_4 
REMARK    3  A    between atoms: C_4  and  C_5 
REMARK    4  A    between atoms: C_5  and  C_6 
REMARK    5  A    between atoms: C_6  and  C_7 
REMARK    6  A    between atoms: C_7  and  C_8 
REMARK    7  A    between atoms: C_8  and  C_9 
REMARK    8  A    between atoms: C_10  and  C_11 
REMARK    9  A    between atoms: C_11  and  C_12 
REMARK   10  A    between atoms: C_12  and  C_13 
REMARK   11  A    between atoms: C_13  and  C_14 
REMARK   12  A    between atoms: C_14  and  C_15 
REMARK   13  A    between atoms: C_15  and  C_16 
REMARK   14  A    between atoms: C_16  and  C_17 
REMARK   15  A    between atoms: C_17  and  C_18 
REMARK       I    between atoms: C_18  and  N_20 
REMARK   16  A    between atoms: N_20  and  C_21 
REMARK   17  A    between atoms: C_21  and  C_22 
REMARK   18  A    between atoms: C_25  and  O_26 
REMARK   19  A    between atoms: C_27  and  O_28 
ROOT
HETATM    1  C   UNL     1     -21.890  -6.735  -5.351  1.00  0.00     0.009 C 
ENDROOT
BRANCH   1   2
HETATM    2  C   UNL     1     -21.424  -7.478  -4.102  1.00  0.00     0.000 C 
BRANCH   2   3
HETATM    3  C   UNL     1     -21.567  -6.615  -2.853  1.00  0.00     0.000 C 
BRANCH   3   4
HETATM    4  C   UNL     1     -21.448  -7.428  -1.560  1.00  0.00     0.000 C 
BRANCH   4   5
HETATM    5  C   UNL     1     -22.511  -7.113  -0.501  1.00  0.00     0.004 C 
BRANCH   5   6
HETATM    6  C   UNL     1     -22.860  -8.332   0.351  1.00  0.00     0.027 C 
BRANCH   6   7
HETATM    7  C   UNL     1     -22.930  -9.574  -0.482  1.00  0.00    -0.031 C 
HETATM    8  C   UNL     1     -23.798 -10.564  -0.235  1.00  0.00    -0.031 C 
BRANCH   8   9
HETATM    9  C   UNL     1     -23.899 -11.798  -1.071  1.00  0.00     0.027 C 
BRANCH   9  10
HETATM   10  C   UNL     1     -23.805 -13.044  -0.193  1.00  0.00     0.004 C 
BRANCH  10  11
HETATM   11  C   UNL     1     -22.801 -12.824   0.932  1.00  0.00     0.000 C 
BRANCH  11  12
HETATM   12  C   UNL     1     -21.416 -13.319   0.532  1.00  0.00     0.000 C 
BRANCH  12  13
HETATM   13  C   UNL     1     -20.450 -12.148   0.385  1.00  0.00     0.000 C 
BRANCH  13  14
HETATM   14  C   UNL     1     -19.932 -12.051  -1.046  1.00  0.00    -0.000 C 
BRANCH  14  15
HETATM   15  C   UNL     1     -18.421 -12.256  -1.097  1.00  0.00    -0.005 C 
HETATM   16  C   UNL     1     -17.806 -12.129   0.287  1.00  0.00     0.005 C 
ENDBRANCH  14  15
ENDBRANCH  13  14
ENDBRANCH  12  13
ENDBRANCH  11  12
ENDBRANCH  10  11
ENDBRANCH   9  10
ENDBRANCH   8   9
ENDBRANCH   6   7
ENDBRANCH   5   6
ENDBRANCH   4   5
ENDBRANCH   3   4
ENDBRANCH   2   3
ENDBRANCH   1   2
BRANCH   1  17
HETATM   17  C   UNL     1     -20.684  -6.425  -6.225  1.00  0.00     0.103 C 
BRANCH  17  18
HETATM   18  C   UNL     1     -20.226  -4.988  -6.136  1.00  0.00     0.217 C 
HETATM   19  O   UNL     1     -20.011  -4.406  -5.076  1.00  0.00    -0.274 OA
HETATM   20  N   UNL     1     -20.055  -4.323  -7.319  1.00  0.00    -0.357 N 
HETATM   21  H   UNL     1     -19.691  -3.385  -7.204  1.00  0.00     0.162 HD
BRANCH  20  22
HETATM   22  C   UNL     1     -20.154  -4.868  -8.658  1.00  0.00     0.161 C 
BRANCH  22  23
HETATM   23  C   UNL     1     -21.436  -4.450  -9.332  1.00  0.00    -0.038 A 
HETATM   24  C   UNL     1     -22.524  -4.022  -8.567  1.00  0.00     0.012 A 
HETATM   25  C   UNL     1     -23.700  -3.602  -9.186  1.00  0.00     0.040 A 
HETATM   26  C   UNL     1     -23.807  -3.602 -10.580  1.00  0.00     0.099 A 
HETATM   27  C   UNL     1     -22.737  -4.035 -11.370  1.00  0.00     0.101 A 
HETATM   28  C   UNL     1     -21.562  -4.462 -10.732  1.00  0.00     0.048 A 
BRANCH  26  29
HETATM   29  O   UNL     1     -24.978  -3.164 -11.135  1.00  0.00    -0.358 OA
HETATM   30  H   UNL     1     -25.509  -2.726 -10.452  1.00  0.00     0.217 HD
ENDBRANCH  26  29
BRANCH  27  31
HETATM   31  O   UNL     1     -22.661  -4.102 -12.736  1.00  0.00    -0.353 OA
HETATM   32  C   UNL     1     -23.193  -5.250 -13.381  1.00  0.00     0.210 C 
ENDBRANCH  27  31
ENDBRANCH  22  23
ENDBRANCH  20  22
ENDBRANCH  17  18
ENDBRANCH   1  17
TORSDOF 19
BEGIN_RES ARG D 557
REMARK  4 active torsions:
REMARK  status: ('A' for Active; 'I' for Inactive)
REMARK    1  A    between atoms: CA   and  CB  
REMARK    2  A    between atoms: CB   and  CG  
REMARK    3  A    between atoms: CG   and  CD  
REMARK    4  A    between atoms: CD   and  NE  
REMARK       I    between atoms: NE   and  CZ  
REMARK       I    between atoms: CZ   and  NH1 
REMARK       I    between atoms: CZ   and  NH2 
ROOT
ATOM      1  CA  ARG D 557     -26.217   2.705 -17.014  1.00 35.49     0.159 C 
ENDROOT
BRANCH   1   2
ATOM      2  CB  ARG D 557     -26.789   1.319 -17.183  1.00 35.49     0.034 C 
BRANCH   2   3
ATOM      3  CG  ARG D 557     -25.832   0.205 -17.187  1.00 35.49     0.027 C 
BRANCH   3   4
ATOM      4  CD  ARG D 557     -25.306  -0.091 -15.836  1.00 35.49     0.116 C 
BRANCH   4   5
ATOM      5  NE  ARG D 557     -25.856  -1.306 -15.294  1.00 35.49    -0.212 N 
ATOM      6  CZ  ARG D 557     -25.309  -2.045 -14.355  1.00 35.49     0.666 C 
ATOM      7  NH1 ARG D 557     -24.148  -1.744 -13.802  1.00 35.49    -0.235 N 
ATOM      8  NH2 ARG D 557     -25.960  -3.103 -13.969  1.00 35.49    -0.235 N 
ATOM      9  HH  ARG D 557     -23.703  -1.051 -14.039  1.00 35.49     0.174 HD
ATOM     10  HH  ARG D 557     -23.842  -2.262 -13.192  1.00 35.49     0.174 HD
ATOM     11  HH  ARG D 557     -26.711  -3.268 -14.338  1.00 35.49     0.174 HD
ATOM     12  HH  ARG D 557     -25.640  -3.603 -13.362  1.00 35.49     0.174 HD
ATOM     13  HE  ARG D 557     -26.568  -1.612 -15.643  1.00 35.49     0.178 HD
ENDBRANCH   4   5
ENDBRANCH   3   4
ENDBRANCH   2   3
ENDBRANCH   1   2
END_RES ARG D 557
BEGIN_RES GLU D 570
REMARK  3 active torsions:
REMARK  status: ('A' for Active; 'I' for Inactive)
REMARK    5  A    between atoms: CA   and  CB  
REMARK    6  A    between atoms: CB   and  CG  
REMARK    7  A    between atoms: CG   and  CD  
ROOT
ATOM     14  CA  GLU D 570     -18.033  -6.348 -13.375  1.00 32.92     0.160 C 
ENDROOT
BRANCH  14  15
ATOM     15  CB  GLU D 570     -19.500  -6.345 -13.794  1.00 32.92     0.043 C 
BRANCH  15  16
ATOM     16  CG  GLU D 570     -19.796  -6.299 -15.249  1.00 32.92     0.100 C 
BRANCH  16  17
ATOM     17  CD  GLU D 570     -20.804  -7.339 -15.679  1.00 32.92     0.185 C 
ATOM     18  OE1 GLU D 570     -21.893  -6.966 -16.155  1.00 32.92    -0.647 OA
ATOM     19  OE2 GLU D 570     -20.507  -8.540 -15.523  1.00 32.92    -0.647 OA
ENDBRANCH  16  17
ENDBRANCH  15  16
ENDBRANCH  14  15
END_RES GLU D 570
ENDMDL
