MODEL 1
REMARK VINA RESULT:      -9.9      0.000      0.000
REMARK  8 active torsions:
REMARK  status: ('A' for Active; 'I' for Inactive)
REMARK    1  A    between atoms: C_2  and  C_5 
REMARK    2  A    between atoms: C_8  and  C_9 
REMARK    3  A    between atoms: C_9  and  N_10 
REMARK    4  A    between atoms: N_10  and  C_11 
REMARK    5  A    between atoms: N_13  and  C_14 
REMARK    6  A    between atoms: C_14  and  C_15 
REMARK    7  A    between atoms: C_18  and  N_19 
REMARK    8  A    between atoms: N_19  and  S_20 
ROOT
HETATM    1  C   UNL     1     -21.012  -5.054  -6.079  1.00  0.00     0.168 C 
HETATM    2  S   UNL     1     -19.714  -4.484  -5.201  1.00  0.00    -0.041 SA
HETATM    3  N   UNL     1     -21.528  -4.246  -7.045  1.00  0.00    -0.363 N 
HETATM    4  H   UNL     1     -21.023  -3.375  -7.162  1.00  0.00     0.162 HD
ENDROOT
BRANCH   3   5
HETATM    5  C   UNL     1     -22.790  -4.373  -7.746  1.00  0.00     0.160 C 
BRANCH   5   6
HETATM    6  C   UNL     1     -22.718  -4.096  -9.230  1.00  0.00    -0.037 A 
HETATM    7  C   UNL     1     -21.512  -4.158  -9.951  1.00  0.00     0.011 A 
HETATM    8  C   UNL     1     -21.464  -3.814 -11.309  1.00  0.00     0.034 A 
HETATM    9  C   UNL     1     -22.614  -3.363 -11.948  1.00  0.00     0.081 A 
HETATM   10  C   UNL     1     -23.821  -3.337 -11.249  1.00  0.00     0.144 A 
HETATM   11  F   UNL     1     -24.941  -2.938 -11.869  1.00  0.00    -0.204 F 
HETATM   12  C   UNL     1     -23.880  -3.696  -9.905  1.00  0.00     0.053 A 
BRANCH   9  13
HETATM   13  N   UNL     1     -22.554  -2.897 -13.296  1.00  0.00    -0.282 N 
HETATM   14  H   UNL     1     -22.833  -1.925 -13.437  1.00  0.00     0.178 HD
BRANCH  13  15
HETATM   15  S   UNL     1     -23.085  -3.885 -14.541  1.00  0.00     0.227 S 
HETATM   16  C   UNL     1     -23.169  -5.503 -13.795  1.00  0.00     0.186 C 
HETATM   17  O   UNL     1     -24.445  -3.474 -14.816  1.00  0.00    -0.206 OA
HETATM   18  O   UNL     1     -22.083  -3.915 -15.588  1.00  0.00    -0.206 OA
ENDBRANCH  13  15
ENDBRANCH   9  13
ENDBRANCH   5   6
ENDBRANCH   3   5
BRANCH   1  19
HETATM   19  N   UNL     1     -21.610  -6.272  -5.935  1.00  0.00    -0.363 N 
HETATM   20  H   UNL     1     -22.373  -6.471  -6.562  1.00  0.00     0.162 HD
BRANCH  19  21
HETATM   21  C   UNL     1     -20.908  -7.461  -5.484  1.00  0.00     0.160 C 
BRANCH  21  22
HETATM   22  C   UNL     1     -21.348  -7.878  -4.107  1.00  0.00    -0.041 A 
HETATM   23  C   UNL     1     -21.567  -9.225  -3.808  1.00  0.00     0.009 A 
HETATM   24  C   UNL     1     -21.900  -9.622  -2.508  1.00  0.00     0.008 A 
HETATM   25  C   UNL     1     -22.015  -8.691  -1.461  1.00  0.00    -0.051 A 
HETATM   26  C   UNL     1     -21.856  -7.335  -1.793  1.00  0.00     0.008 A 
HETATM   27  C   UNL     1     -21.521  -6.934  -3.093  1.00  0.00     0.009 A 
BRANCH  25  28
HETATM   28  C   UNL     1     -22.333  -9.143  -0.024  1.00  0.00    -0.024 C 
HETATM   29  C   UNL     1     -21.071  -9.633   0.727  1.00  0.00     0.019 C 
HETATM   30  C   UNL     1     -23.352 -10.295  -0.085  1.00  0.00     0.019 C 
HETATM   31  C   UNL     1     -22.928  -8.006   0.842  1.00  0.00     0.019 C 
ENDBRANCH  25  28
ENDBRANCH  21  22
ENDBRANCH  19  21
ENDBRANCH   1  19
TORSDOF 8
BEGIN_RES ARG D 557
REMARK  4 active torsions:
REMARK  status: ('A' for Active; 'I' for Inactive)
REMARK    1  A    between atoms: CA   and  CB  
REMARK    2  A    between atoms: CB   and  CG  
REMARK    3  A    between atoms: CG   and  CD  
REMARK    4  A    between atoms: CD   and  NE  
REMARK       I    between atoms: NE   and  CZ  
REMARK       I    between atoms: CZ   and  NH1 
REMARK       I    between atoms: CZ   and  NH2 
ROOT
ATOM      1  CA  ARG D 557     -26.217   2.705 -17.014  1.00 35.49     0.159 C 
ENDROOT
BRANCH   1   2
ATOM      2  CB  ARG D 557     -26.789   1.319 -17.183  1.00 35.49     0.034 C 
BRANCH   2   3
ATOM      3  CG  ARG D 557     -28.236   1.172 -16.981  1.00 35.49     0.027 C 
BRANCH   3   4
ATOM      4  CD  ARG D 557     -28.703  -0.210 -17.236  1.00 35.49     0.116 C 
BRANCH   4   5
ATOM      5  NE  ARG D 557     -27.900  -1.189 -16.553  1.00 35.49    -0.212 N 
ATOM      6  CZ  ARG D 557     -28.030  -2.493 -16.651  1.00 35.49     0.666 C 
ATOM      7  NH1 ARG D 557     -28.956  -3.058 -17.404  1.00 35.49    -0.235 N 
ATOM      8  NH2 ARG D 557     -27.199  -3.232 -15.975  1.00 35.49    -0.235 N 
ATOM      9  HH  ARG D 557     -29.512  -2.592 -17.859  1.00 35.49     0.174 HD
ATOM     10  HH  ARG D 557     -28.991  -3.914 -17.431  1.00 35.49     0.174 HD
ATOM     11  HH  ARG D 557     -26.607  -2.839 -15.503  1.00 35.49     0.174 HD
ATOM     12  HH  ARG D 557     -27.250  -4.077 -16.016  1.00 35.49     0.174 HD
ATOM     13  HE  ARG D 557     -27.326  -0.912 -15.989  1.00 35.49     0.178 HD
ENDBRANCH   4   5
ENDBRANCH   3   4
ENDBRANCH   2   3
ENDBRANCH   1   2
END_RES ARG D 557
BEGIN_RES GLU D 570
REMARK  3 active torsions:
REMARK  status: ('A' for Active; 'I' for Inactive)
REMARK    5  A    between atoms: CA   and  CB  
REMARK    6  A    between atoms: CB   and  CG  
REMARK    7  A    between atoms: CG   and  CD  
ROOT
ATOM     14  CA  GLU D 570     -18.033  -6.348 -13.375  1.00 32.92     0.160 C 
ENDROOT
BRANCH  14  15
ATOM     15  CB  GLU D 570     -19.500  -6.345 -13.794  1.00 32.92     0.043 C 
BRANCH  15  16
ATOM     16  CG  GLU D 570     -20.097  -7.642 -14.207  1.00 32.92     0.100 C 
BRANCH  16  17
ATOM     17  CD  GLU D 570     -20.659  -7.611 -15.609  1.00 32.92     0.185 C 
ATOM     18  OE1 GLU D 570     -20.506  -6.586 -16.301  1.00 32.92    -0.647 OA
ATOM     19  OE2 GLU D 570     -21.273  -8.618 -16.014  1.00 32.92    -0.647 OA
ENDBRANCH  16  17
ENDBRANCH  15  16
ENDBRANCH  14  15
END_RES GLU D 570
ENDMDL
MODEL 2
REMARK VINA RESULT:      -9.0      3.736     10.567
REMARK  8 active torsions:
REMARK  status: ('A' for Active; 'I' for Inactive)
REMARK    1  A    between atoms: C_2  and  C_5 
REMARK    2  A    between atoms: C_8  and  C_9 
REMARK    3  A    between atoms: C_9  and  N_10 
REMARK    4  A    between atoms: N_10  and  C_11 
REMARK    5  A    between atoms: N_13  and  C_14 
REMARK    6  A    between atoms: C_14  and  C_15 
REMARK    7  A    between atoms: C_18  and  N_19 
REMARK    8  A    between atoms: N_19  and  S_20 
ROOT
HETATM    1  C   UNL     1     -24.189  -4.012 -14.084  1.00  0.00     0.168 C 
HETATM    2  S   UNL     1     -25.481  -3.059 -14.537  1.00  0.00    -0.041 SA
HETATM    3  N   UNL     1     -23.446  -3.607 -13.019  1.00  0.00    -0.363 N 
HETATM    4  H   UNL     1     -23.795  -2.766 -12.572  1.00  0.00     0.162 HD
ENDROOT
BRANCH   3   5
HETATM    5  C   UNL     1     -22.144  -4.082 -12.596  1.00  0.00     0.160 C 
BRANCH   5   6
HETATM    6  C   UNL     1     -21.892  -3.994 -11.109  1.00  0.00    -0.037 A 
HETATM    7  C   UNL     1     -20.598  -4.038 -10.559  1.00  0.00     0.011 A 
HETATM    8  C   UNL     1     -20.404  -4.039  -9.171  1.00  0.00     0.034 A 
HETATM    9  C   UNL     1     -21.502  -4.038  -8.320  1.00  0.00     0.081 A 
HETATM   10  C   UNL     1     -22.787  -3.954  -8.858  1.00  0.00     0.144 A 
HETATM   11  F   UNL     1     -23.850  -3.915  -8.041  1.00  0.00    -0.204 F 
HETATM   12  C   UNL     1     -22.988  -3.933 -10.235  1.00  0.00     0.053 A 
BRANCH   9  13
HETATM   13  N   UNL     1     -21.322  -4.159  -6.909  1.00  0.00    -0.282 N 
HETATM   14  H   UNL     1     -20.526  -3.650  -6.522  1.00  0.00     0.178 HD
BRANCH  13  15
HETATM   15  S   UNL     1     -21.531  -5.648  -6.169  1.00  0.00     0.227 S 
HETATM   16  C   UNL     1     -20.515  -5.544  -4.707  1.00  0.00     0.186 C 
HETATM   17  O   UNL     1     -22.910  -5.677  -5.727  1.00  0.00    -0.206 OA
HETATM   18  O   UNL     1     -20.996  -6.687  -7.026  1.00  0.00    -0.206 OA
ENDBRANCH  13  15
ENDBRANCH   9  13
ENDBRANCH   5   6
ENDBRANCH   3   5
BRANCH   1  19
HETATM   19  N   UNL     1     -23.806  -5.182 -14.671  1.00  0.00    -0.363 N 
HETATM   20  H   UNL     1     -22.843  -5.449 -14.545  1.00  0.00     0.162 HD
BRANCH  19  21
HETATM   21  C   UNL     1     -24.698  -6.311 -14.867  1.00  0.00     0.160 C 
BRANCH  21  22
HETATM   22  C   UNL     1     -24.908  -6.608 -16.327  1.00  0.00    -0.041 A 
HETATM   23  C   UNL     1     -26.132  -6.328 -16.940  1.00  0.00     0.009 A 
HETATM   24  C   UNL     1     -26.304  -6.531 -18.314  1.00  0.00     0.008 A 
HETATM   25  C   UNL     1     -25.258  -7.007 -19.124  1.00  0.00    -0.051 A 
HETATM   26  C   UNL     1     -24.056  -7.345 -18.481  1.00  0.00     0.008 A 
HETATM   27  C   UNL     1     -23.880  -7.143 -17.106  1.00  0.00     0.009 A 
BRANCH  25  28
HETATM   28  C   UNL     1     -25.441  -7.179 -20.644  1.00  0.00    -0.024 C 
HETATM   29  C   UNL     1     -24.272  -7.964 -21.287  1.00  0.00     0.019 C 
HETATM   30  C   UNL     1     -25.517  -5.784 -21.290  1.00  0.00     0.019 C 
HETATM   31  C   UNL     1     -26.728  -7.960 -21.006  1.00  0.00     0.019 C 
ENDBRANCH  25  28
ENDBRANCH  21  22
ENDBRANCH  19  21
ENDBRANCH   1  19
TORSDOF 8
BEGIN_RES ARG D 557
REMARK  4 active torsions:
REMARK  status: ('A' for Active; 'I' for Inactive)
REMARK    1  A    between atoms: CA   and  CB  
REMARK    2  A    between atoms: CB   and  CG  
REMARK    3  A    between atoms: CG   and  CD  
REMARK    4  A    between atoms: CD   and  NE  
REMARK       I    between atoms: NE   and  CZ  
REMARK       I    between atoms: CZ   and  NH1 
REMARK       I    between atoms: CZ   and  NH2 
ROOT
ATOM      1  CA  ARG D 557     -26.217   2.705 -17.014  1.00 35.49     0.159 C 
ENDROOT
BRANCH   1   2
ATOM      2  CB  ARG D 557     -26.789   1.319 -17.183  1.00 35.49     0.034 C 
BRANCH   2   3
ATOM      3  CG  ARG D 557     -28.086   1.058 -16.548  1.00 35.49     0.027 C 
BRANCH   3   4
ATOM      4  CD  ARG D 557     -28.850  -0.006 -17.240  1.00 35.49     0.116 C 
BRANCH   4   5
ATOM      5  NE  ARG D 557     -28.321  -1.317 -16.969  1.00 35.49    -0.212 N 
ATOM      6  CZ  ARG D 557     -28.965  -2.452 -17.127  1.00 35.49     0.666 C 
ATOM      7  NH1 ARG D 557     -30.213  -2.506 -17.553  1.00 35.49    -0.235 N 
ATOM      8  NH2 ARG D 557     -28.322  -3.549 -16.852  1.00 35.49    -0.235 N 
ATOM      9  HH  ARG D 557     -30.655  -1.796 -17.742  1.00 35.49     0.174 HD
ATOM     10  HH  ARG D 557     -30.581  -3.275 -17.639  1.00 35.49     0.174 HD
ATOM     11  HH  ARG D 557     -27.514  -3.484 -16.586  1.00 35.49     0.174 HD
ATOM     12  HH  ARG D 557     -28.703  -4.301 -16.945  1.00 35.49     0.174 HD
ATOM     13  HE  ARG D 557     -27.547  -1.371 -16.622  1.00 35.49     0.178 HD
ENDBRANCH   4   5
ENDBRANCH   3   4
ENDBRANCH   2   3
ENDBRANCH   1   2
END_RES ARG D 557
BEGIN_RES GLU D 570
REMARK  3 active torsions:
REMARK  status: ('A' for Active; 'I' for Inactive)
REMARK    5  A    between atoms: CA   and  CB  
REMARK    6  A    between atoms: CB   and  CG  
REMARK    7  A    between atoms: CG   and  CD  
ROOT
ATOM     14  CA  GLU D 570     -18.033  -6.348 -13.375  1.00 32.92     0.160 C 
ENDROOT
BRANCH  14  15
ATOM     15  CB  GLU D 570     -19.500  -6.345 -13.794  1.00 32.92     0.043 C 
BRANCH  15  16
ATOM     16  CG  GLU D 570     -20.088  -7.636 -14.237  1.00 32.92     0.100 C 
BRANCH  16  17
ATOM     17  CD  GLU D 570     -20.519  -7.621 -15.685  1.00 32.92     0.185 C 
ATOM     18  OE1 GLU D 570     -20.565  -6.533 -16.292  1.00 32.92    -0.647 OA
ATOM     19  OE2 GLU D 570     -20.830  -8.706 -16.214  1.00 32.92    -0.647 OA
ENDBRANCH  16  17
ENDBRANCH  15  16
ENDBRANCH  14  15
END_RES GLU D 570
ENDMDL
MODEL 3
REMARK VINA RESULT:      -9.0      4.505      7.183
REMARK  8 active torsions:
REMARK  status: ('A' for Active; 'I' for Inactive)
REMARK    1  A    between atoms: C_2  and  C_5 
REMARK    2  A    between atoms: C_8  and  C_9 
REMARK    3  A    between atoms: C_9  and  N_10 
REMARK    4  A    between atoms: N_10  and  C_11 
REMARK    5  A    between atoms: N_13  and  C_14 
REMARK    6  A    between atoms: C_14  and  C_15 
REMARK    7  A    between atoms: C_18  and  N_19 
REMARK    8  A    between atoms: N_19  and  S_20 
ROOT
HETATM    1  C   UNL     1     -23.367  -4.166 -14.206  1.00  0.00     0.168 C 
HETATM    2  S   UNL     1     -22.722  -2.677 -14.591  1.00  0.00    -0.041 SA
HETATM    3  N   UNL     1     -23.574  -5.049 -15.221  1.00  0.00    -0.363 N 
HETATM    4  H   UNL     1     -23.261  -4.712 -16.125  1.00  0.00     0.162 HD
ENDROOT
BRANCH   3   5
HETATM    5  C   UNL     1     -24.355  -6.269 -15.208  1.00  0.00     0.160 C 
BRANCH   5   6
HETATM    6  C   UNL     1     -25.834  -6.074 -15.450  1.00  0.00    -0.037 A 
HETATM    7  C   UNL     1     -26.451  -4.813 -15.368  1.00  0.00     0.011 A 
HETATM    8  C   UNL     1     -27.839  -4.679 -15.515  1.00  0.00     0.034 A 
HETATM    9  C   UNL     1     -28.626  -5.809 -15.703  1.00  0.00     0.081 A 
HETATM   10  C   UNL     1     -28.016  -7.057 -15.825  1.00  0.00     0.144 A 
HETATM   11  F   UNL     1     -28.766  -8.147 -16.044  1.00  0.00    -0.204 F 
HETATM   12  C   UNL     1     -26.636  -7.197 -15.700  1.00  0.00     0.053 A 
BRANCH   9  13
HETATM   13  N   UNL     1     -30.049  -5.699 -15.735  1.00  0.00    -0.282 N 
HETATM   14  H   UNL     1     -30.548  -6.250 -15.035  1.00  0.00     0.178 HD
BRANCH  13  15
HETATM   15  S   UNL     1     -30.849  -5.690 -17.208  1.00  0.00     0.227 S 
HETATM   16  C   UNL     1     -32.204  -4.559 -16.951  1.00  0.00     0.186 C 
HETATM   17  O   UNL     1     -29.941  -5.059 -18.144  1.00  0.00    -0.206 OA
HETATM   18  O   UNL     1     -31.394  -7.009 -17.465  1.00  0.00    -0.206 OA
ENDBRANCH  13  15
ENDBRANCH   9  13
ENDBRANCH   5   6
ENDBRANCH   3   5
BRANCH   1  19
HETATM   19  N   UNL     1     -23.700  -4.602 -12.957  1.00  0.00    -0.363 N 
HETATM   20  H   UNL     1     -23.301  -5.481 -12.671  1.00  0.00     0.162 HD
BRANCH  19  21
HETATM   21  C   UNL     1     -23.990  -3.710 -11.847  1.00  0.00     0.160 C 
BRANCH  21  22
HETATM   22  C   UNL     1     -23.032  -3.914 -10.705  1.00  0.00    -0.041 A 
HETATM   23  C   UNL     1     -23.505  -4.062  -9.399  1.00  0.00     0.009 A 
HETATM   24  C   UNL     1     -22.622  -4.329  -8.346  1.00  0.00     0.008 A 
HETATM   25  C   UNL     1     -21.240  -4.469  -8.563  1.00  0.00    -0.051 A 
HETATM   26  C   UNL     1     -20.774  -4.252  -9.871  1.00  0.00     0.008 A 
HETATM   27  C   UNL     1     -21.655  -3.986 -10.927  1.00  0.00     0.009 A 
BRANCH  25  28
HETATM   28  C   UNL     1     -20.282  -4.813  -7.407  1.00  0.00    -0.024 C 
HETATM   29  C   UNL     1     -18.844  -4.304  -7.670  1.00  0.00     0.019 C 
HETATM   30  C   UNL     1     -20.244  -6.343  -7.240  1.00  0.00     0.019 C 
HETATM   31  C   UNL     1     -20.718  -4.182  -6.063  1.00  0.00     0.019 C 
ENDBRANCH  25  28
ENDBRANCH  21  22
ENDBRANCH  19  21
ENDBRANCH   1  19
TORSDOF 8
BEGIN_RES ARG D 557
REMARK  4 active torsions:
REMARK  status: ('A' for Active; 'I' for Inactive)
REMARK    1  A    between atoms: CA   and  CB  
REMARK    2  A    between atoms: CB   and  CG  
REMARK    3  A    between atoms: CG   and  CD  
REMARK    4  A    between atoms: CD   and  NE  
REMARK       I    between atoms: NE   and  CZ  
REMARK       I    between atoms: CZ   and  NH1 
REMARK       I    between atoms: CZ   and  NH2 
ROOT
ATOM      1  CA  ARG D 557     -26.217   2.705 -17.014  1.00 35.49     0.159 C 
ENDROOT
BRANCH   1   2
ATOM      2  CB  ARG D 557     -26.789   1.319 -17.183  1.00 35.49     0.034 C 
BRANCH   2   3
ATOM      3  CG  ARG D 557     -25.968   0.202 -16.700  1.00 35.49     0.027 C 
BRANCH   3   4
ATOM      4  CD  ARG D 557     -26.728  -0.721 -15.827  1.00 35.49     0.116 C 
BRANCH   4   5
ATOM      5  NE  ARG D 557     -27.604  -1.581 -16.579  1.00 35.49    -0.212 N 
ATOM      6  CZ  ARG D 557     -28.858  -1.328 -16.879  1.00 35.49     0.666 C 
ATOM      7  NH1 ARG D 557     -29.470  -0.223 -16.495  1.00 35.49    -0.235 N 
ATOM      8  NH2 ARG D 557     -29.496  -2.213 -17.588  1.00 35.49    -0.235 N 
ATOM      9  HH  ARG D 557     -29.069   0.374 -16.029  1.00 35.49     0.174 HD
ATOM     10  HH  ARG D 557     -30.288  -0.111 -16.723  1.00 35.49     0.174 HD
ATOM     11  HH  ARG D 557     -29.073  -2.914 -17.829  1.00 35.49     0.174 HD
ATOM     12  HH  ARG D 557     -30.305  -2.083 -17.805  1.00 35.49     0.174 HD
ATOM     13  HE  ARG D 557     -27.313  -2.348 -16.804  1.00 35.49     0.178 HD
ENDBRANCH   4   5
ENDBRANCH   3   4
ENDBRANCH   2   3
ENDBRANCH   1   2
END_RES ARG D 557
BEGIN_RES GLU D 570
REMARK  3 active torsions:
REMARK  status: ('A' for Active; 'I' for Inactive)
REMARK    5  A    between atoms: CA   and  CB  
REMARK    6  A    between atoms: CB   and  CG  
REMARK    7  A    between atoms: CG   and  CD  
ROOT
ATOM     14  CA  GLU D 570     -18.033  -6.348 -13.375  1.00 32.92     0.160 C 
ENDROOT
BRANCH  14  15
ATOM     15  CB  GLU D 570     -19.500  -6.345 -13.794  1.00 32.92     0.043 C 
BRANCH  15  16
ATOM     16  CG  GLU D 570     -19.804  -6.060 -15.220  1.00 32.92     0.100 C 
BRANCH  16  17
ATOM     17  CD  GLU D 570     -20.666  -7.122 -15.862  1.00 32.92     0.185 C 
ATOM     18  OE1 GLU D 570     -20.634  -8.283 -15.411  1.00 32.92    -0.647 OA
ATOM     19  OE2 GLU D 570     -21.370  -6.793 -16.838  1.00 32.92    -0.647 OA
ENDBRANCH  16  17
ENDBRANCH  15  16
ENDBRANCH  14  15
END_RES GLU D 570
ENDMDL
MODEL 4
REMARK VINA RESULT:      -8.9      2.048      2.749
REMARK  8 active torsions:
REMARK  status: ('A' for Active; 'I' for Inactive)
REMARK    1  A    between atoms: C_2  and  C_5 
REMARK    2  A    between atoms: C_8  and  C_9 
REMARK    3  A    between atoms: C_9  and  N_10 
REMARK    4  A    between atoms: N_10  and  C_11 
REMARK    5  A    between atoms: N_13  and  C_14 
REMARK    6  A    between atoms: C_14  and  C_15 
REMARK    7  A    between atoms: C_18  and  N_19 
REMARK    8  A    between atoms: N_19  and  S_20 
ROOT
HETATM    1  C   UNL     1     -20.721  -6.612  -4.739  1.00  0.00     0.168 C 
HETATM    2  S   UNL     1     -21.470  -6.046  -3.361  1.00  0.00    -0.041 SA
HETATM    3  N   UNL     1     -20.304  -5.697  -5.655  1.00  0.00    -0.363 N 
HETATM    4  H   UNL     1     -20.459  -4.736  -5.372  1.00  0.00     0.162 HD
ENDROOT
BRANCH   3   5
HETATM    5  C   UNL     1     -19.888  -5.920  -7.025  1.00  0.00     0.160 C 
BRANCH   5   6
HETATM    6  C   UNL     1     -20.580  -5.046  -8.045  1.00  0.00    -0.037 A 
HETATM    7  C   UNL     1     -21.846  -4.478  -7.816  1.00  0.00     0.011 A 
HETATM    8  C   UNL     1     -22.498  -3.741  -8.815  1.00  0.00     0.034 A 
HETATM    9  C   UNL     1     -21.908  -3.601 -10.066  1.00  0.00     0.081 A 
HETATM   10  C   UNL     1     -20.635  -4.127 -10.286  1.00  0.00     0.144 A 
HETATM   11  F   UNL     1     -20.044  -3.964 -11.479  1.00  0.00    -0.204 F 
HETATM   12  C   UNL     1     -19.973  -4.844  -9.293  1.00  0.00     0.053 A 
BRANCH   9  13
HETATM   13  N   UNL     1     -22.612  -2.956 -11.127  1.00  0.00    -0.282 N 
HETATM   14  H   UNL     1     -22.676  -1.939 -11.058  1.00  0.00     0.178 HD
BRANCH  13  15
HETATM   15  S   UNL     1     -24.027  -3.633 -11.717  1.00  0.00     0.227 S 
HETATM   16  C   UNL     1     -24.160  -2.972 -13.369  1.00  0.00     0.186 C 
HETATM   17  O   UNL     1     -23.759  -5.050 -11.847  1.00  0.00    -0.206 OA
HETATM   18  O   UNL     1     -25.150  -3.149 -10.938  1.00  0.00    -0.206 OA
ENDBRANCH  13  15
ENDBRANCH   9  13
ENDBRANCH   5   6
ENDBRANCH   3   5
BRANCH   1  19
HETATM   19  N   UNL     1     -20.466  -7.919  -5.039  1.00  0.00    -0.363 N 
HETATM   20  H   UNL     1     -20.359  -8.139  -6.016  1.00  0.00     0.162 HD
BRANCH  19  21
HETATM   21  C   UNL     1     -19.734  -8.815  -4.160  1.00  0.00     0.160 C 
BRANCH  21  22
HETATM   22  C   UNL     1     -20.654  -9.548  -3.222  1.00  0.00    -0.041 A 
HETATM   23  C   UNL     1     -21.552 -10.502  -3.708  1.00  0.00     0.009 A 
HETATM   24  C   UNL     1     -22.353 -11.240  -2.829  1.00  0.00     0.008 A 
HETATM   25  C   UNL     1     -22.277 -11.060  -1.437  1.00  0.00    -0.051 A 
HETATM   26  C   UNL     1     -21.418 -10.051  -0.970  1.00  0.00     0.008 A 
HETATM   27  C   UNL     1     -20.613  -9.312  -1.846  1.00  0.00     0.009 A 
BRANCH  25  28
HETATM   28  C   UNL     1     -23.126 -11.912  -0.475  1.00  0.00    -0.024 C 
HETATM   29  C   UNL     1     -22.291 -12.466   0.705  1.00  0.00     0.019 C 
HETATM   30  C   UNL     1     -23.720 -13.095  -1.261  1.00  0.00     0.019 C 
HETATM   31  C   UNL     1     -24.288 -11.113   0.163  1.00  0.00     0.019 C 
ENDBRANCH  25  28
ENDBRANCH  21  22
ENDBRANCH  19  21
ENDBRANCH   1  19
TORSDOF 8
BEGIN_RES ARG D 557
REMARK  4 active torsions:
REMARK  status: ('A' for Active; 'I' for Inactive)
REMARK    1  A    between atoms: CA   and  CB  
REMARK    2  A    between atoms: CB   and  CG  
REMARK    3  A    between atoms: CG   and  CD  
REMARK    4  A    between atoms: CD   and  NE  
REMARK       I    between atoms: NE   and  CZ  
REMARK       I    between atoms: CZ   and  NH1 
REMARK       I    between atoms: CZ   and  NH2 
ROOT
ATOM      1  CA  ARG D 557     -26.217   2.705 -17.014  1.00 35.49     0.159 C 
ENDROOT
BRANCH   1   2
ATOM      2  CB  ARG D 557     -26.789   1.319 -17.183  1.00 35.49     0.034 C 
BRANCH   2   3
ATOM      3  CG  ARG D 557     -28.240   1.223 -17.381  1.00 35.49     0.027 C 
BRANCH   3   4
ATOM      4  CD  ARG D 557     -28.877   0.274 -16.438  1.00 35.49     0.116 C 
BRANCH   4   5
ATOM      5  NE  ARG D 557     -29.266  -0.952 -17.084  1.00 35.49    -0.212 N 
ATOM      6  CZ  ARG D 557     -28.626  -2.098 -17.005  1.00 35.49     0.666 C 
ATOM      7  NH1 ARG D 557     -27.512  -2.242 -16.312  1.00 35.49    -0.235 N 
ATOM      8  NH2 ARG D 557     -29.135  -3.114 -17.639  1.00 35.49    -0.235 N 
ATOM      9  HH  ARG D 557     -27.160  -1.587 -15.885  1.00 35.49     0.174 HD
ATOM     10  HH  ARG D 557     -27.140  -3.014 -16.295  1.00 35.49     0.174 HD
ATOM     11  HH  ARG D 557     -29.860  -2.993 -18.073  1.00 35.49     0.174 HD
ATOM     12  HH  ARG D 557     -28.753  -3.870 -17.609  1.00 35.49     0.174 HD
ATOM     13  HE  ARG D 557     -29.933  -0.932 -17.610  1.00 35.49     0.178 HD
ENDBRANCH   4   5
ENDBRANCH   3   4
ENDBRANCH   2   3
ENDBRANCH   1   2
END_RES ARG D 557
BEGIN_RES GLU D 570
REMARK  3 active torsions:
REMARK  status: ('A' for Active; 'I' for Inactive)
REMARK    5  A    between atoms: CA   and  CB  
REMARK    6  A    between atoms: CB   and  CG  
REMARK    7  A    between atoms: CG   and  CD  
ROOT
ATOM     14  CA  GLU D 570     -18.033  -6.348 -13.375  1.00 32.92     0.160 C 
ENDROOT
BRANCH  14  15
ATOM     15  CB  GLU D 570     -19.500  -6.345 -13.794  1.00 32.92     0.043 C 
BRANCH  15  16
ATOM     16  CG  GLU D 570     -19.812  -5.943 -15.190  1.00 32.92     0.100 C 
BRANCH  16  17
ATOM     17  CD  GLU D 570     -21.285  -5.693 -15.415  1.00 32.92     0.185 C 
ATOM     18  OE1 GLU D 570     -21.665  -5.271 -16.525  1.00 32.92    -0.647 OA
ATOM     19  OE2 GLU D 570     -22.067  -5.907 -14.467  1.00 32.92    -0.647 OA
ENDBRANCH  16  17
ENDBRANCH  15  16
ENDBRANCH  14  15
END_RES GLU D 570
ENDMDL
MODEL 5
REMARK VINA RESULT:      -8.8      3.665      4.749
REMARK  8 active torsions:
REMARK  status: ('A' for Active; 'I' for Inactive)
REMARK    1  A    between atoms: C_2  and  C_5 
REMARK    2  A    between atoms: C_8  and  C_9 
REMARK    3  A    between atoms: C_9  and  N_10 
REMARK    4  A    between atoms: N_10  and  C_11 
REMARK    5  A    between atoms: N_13  and  C_14 
REMARK    6  A    between atoms: C_14  and  C_15 
REMARK    7  A    between atoms: C_18  and  N_19 
REMARK    8  A    between atoms: N_19  and  S_20 
ROOT
HETATM    1  C   UNL     1     -20.736  -6.841  -4.580  1.00  0.00     0.168 C 
HETATM    2  S   UNL     1     -21.738  -6.520  -3.286  1.00  0.00    -0.041 SA
HETATM    3  N   UNL     1     -20.635  -5.897  -5.554  1.00  0.00    -0.363 N 
HETATM    4  H   UNL     1     -21.163  -5.053  -5.361  1.00  0.00     0.162 HD
ENDROOT
BRANCH   3   5
HETATM    5  C   UNL     1     -20.071  -6.029  -6.882  1.00  0.00     0.160 C 
BRANCH   5   6
HETATM    6  C   UNL     1     -20.696  -5.132  -7.926  1.00  0.00    -0.037 A 
HETATM    7  C   UNL     1     -21.964  -4.548  -7.755  1.00  0.00     0.011 A 
HETATM    8  C   UNL     1     -22.552  -3.789  -8.777  1.00  0.00     0.034 A 
HETATM    9  C   UNL     1     -21.896  -3.644  -9.994  1.00  0.00     0.081 A 
HETATM   10  C   UNL     1     -20.621  -4.188 -10.155  1.00  0.00     0.144 A 
HETATM   11  F   UNL     1     -19.967  -4.020 -11.313  1.00  0.00    -0.204 F 
HETATM   12  C   UNL     1     -20.022  -4.926  -9.138  1.00  0.00     0.053 A 
BRANCH   9  13
HETATM   13  N   UNL     1     -22.534  -2.976 -11.082  1.00  0.00    -0.282 N 
HETATM   14  H   UNL     1     -22.603  -1.961 -10.995  1.00  0.00     0.178 HD
BRANCH  13  15
HETATM   15  S   UNL     1     -23.910  -3.639 -11.772  1.00  0.00     0.227 S 
HETATM   16  C   UNL     1     -23.940  -2.946 -13.415  1.00  0.00     0.186 C 
HETATM   17  O   UNL     1     -23.635  -5.054 -11.912  1.00  0.00    -0.206 OA
HETATM   18  O   UNL     1     -25.079  -3.169 -11.054  1.00  0.00    -0.206 OA
ENDBRANCH  13  15
ENDBRANCH   9  13
ENDBRANCH   5   6
ENDBRANCH   3   5
BRANCH   1  19
HETATM   19  N   UNL     1     -19.982  -7.965  -4.756  1.00  0.00    -0.363 N 
HETATM   20  H   UNL     1     -19.455  -8.018  -5.613  1.00  0.00     0.162 HD
BRANCH  19  21
HETATM   21  C   UNL     1     -19.382  -8.708  -3.661  1.00  0.00     0.160 C 
BRANCH  21  22
HETATM   22  C   UNL     1     -18.258  -9.588  -4.136  1.00  0.00    -0.041 A 
HETATM   23  C   UNL     1     -17.044  -9.624  -3.447  1.00  0.00     0.009 A 
HETATM   24  C   UNL     1     -16.025 -10.499  -3.841  1.00  0.00     0.008 A 
HETATM   25  C   UNL     1     -16.188 -11.375  -4.929  1.00  0.00    -0.051 A 
HETATM   26  C   UNL     1     -17.390 -11.280  -5.650  1.00  0.00     0.008 A 
HETATM   27  C   UNL     1     -18.412 -10.406  -5.258  1.00  0.00     0.009 A 
BRANCH  25  28
HETATM   28  C   UNL     1     -15.081 -12.370  -5.324  1.00  0.00    -0.024 C 
HETATM   29  C   UNL     1     -15.594 -13.830  -5.360  1.00  0.00     0.019 C 
HETATM   30  C   UNL     1     -13.941 -12.270  -4.295  1.00  0.00     0.019 C 
HETATM   31  C   UNL     1     -14.499 -12.088  -6.730  1.00  0.00     0.019 C 
ENDBRANCH  25  28
ENDBRANCH  21  22
ENDBRANCH  19  21
ENDBRANCH   1  19
TORSDOF 8
BEGIN_RES ARG D 557
REMARK  4 active torsions:
REMARK  status: ('A' for Active; 'I' for Inactive)
REMARK    1  A    between atoms: CA   and  CB  
REMARK    2  A    between atoms: CB   and  CG  
REMARK    3  A    between atoms: CG   and  CD  
REMARK    4  A    between atoms: CD   and  NE  
REMARK       I    between atoms: NE   and  CZ  
REMARK       I    between atoms: CZ   and  NH1 
REMARK       I    between atoms: CZ   and  NH2 
ROOT
ATOM      1  CA  ARG D 557     -26.217   2.705 -17.014  1.00 35.49     0.159 C 
ENDROOT
BRANCH   1   2
ATOM      2  CB  ARG D 557     -26.789   1.319 -17.183  1.00 35.49     0.034 C 
BRANCH   2   3
ATOM      3  CG  ARG D 557     -28.231   1.226 -17.442  1.00 35.49     0.027 C 
BRANCH   3   4
ATOM      4  CD  ARG D 557     -28.910   0.283 -16.524  1.00 35.49     0.116 C 
BRANCH   4   5
ATOM      5  NE  ARG D 557     -29.306  -0.930 -17.189  1.00 35.49    -0.212 N 
ATOM      6  CZ  ARG D 557     -28.721  -2.100 -17.065  1.00 35.49     0.666 C 
ATOM      7  NH1 ARG D 557     -27.661  -2.286 -16.299  1.00 35.49    -0.235 N 
ATOM      8  NH2 ARG D 557     -29.229  -3.099 -17.727  1.00 35.49    -0.235 N 
ATOM      9  HH  ARG D 557     -27.312  -1.643 -15.853  1.00 35.49     0.174 HD
ATOM     10  HH  ARG D 557     -27.324  -3.072 -16.255  1.00 35.49     0.174 HD
ATOM     11  HH  ARG D 557     -29.918  -2.951 -18.208  1.00 35.49     0.174 HD
ATOM     12  HH  ARG D 557     -28.881  -3.870 -17.669  1.00 35.49     0.174 HD
ATOM     13  HE  ARG D 557     -29.936  -0.886 -17.758  1.00 35.49     0.178 HD
ENDBRANCH   4   5
ENDBRANCH   3   4
ENDBRANCH   2   3
ENDBRANCH   1   2
END_RES ARG D 557
BEGIN_RES GLU D 570
REMARK  3 active torsions:
REMARK  status: ('A' for Active; 'I' for Inactive)
REMARK    5  A    between atoms: CA   and  CB  
REMARK    6  A    between atoms: CB   and  CG  
REMARK    7  A    between atoms: CG   and  CD  
ROOT
ATOM     14  CA  GLU D 570     -18.033  -6.348 -13.375  1.00 32.92     0.160 C 
ENDROOT
BRANCH  14  15
ATOM     15  CB  GLU D 570     -19.500  -6.345 -13.794  1.00 32.92     0.043 C 
BRANCH  15  16
ATOM     16  CG  GLU D 570     -19.815  -5.915 -15.181  1.00 32.92     0.100 C 
BRANCH  16  17
ATOM     17  CD  GLU D 570     -21.279  -5.598 -15.382  1.00 32.92     0.185 C 
ATOM     18  OE1 GLU D 570     -21.596  -4.649 -16.123  1.00 32.92    -0.647 OA
ATOM     19  OE2 GLU D 570     -22.116  -6.297 -14.778  1.00 32.92    -0.647 OA
ENDBRANCH  16  17
ENDBRANCH  15  16
ENDBRANCH  14  15
END_RES GLU D 570
ENDMDL
MODEL 6
REMARK VINA RESULT:      -8.8      2.019      3.089
REMARK  8 active torsions:
REMARK  status: ('A' for Active; 'I' for Inactive)
REMARK    1  A    between atoms: C_2  and  C_5 
REMARK    2  A    between atoms: C_8  and  C_9 
REMARK    3  A    between atoms: C_9  and  N_10 
REMARK    4  A    between atoms: N_10  and  C_11 
REMARK    5  A    between atoms: N_13  and  C_14 
REMARK    6  A    between atoms: C_14  and  C_15 
REMARK    7  A    between atoms: C_18  and  N_19 
REMARK    8  A    between atoms: N_19  and  S_20 
ROOT
HETATM    1  C   UNL     1     -22.312  -4.080  -8.308  1.00  0.00     0.168 C 
HETATM    2  S   UNL     1     -23.504  -4.521  -7.229  1.00  0.00    -0.041 SA
HETATM    3  N   UNL     1     -22.700  -3.565  -9.506  1.00  0.00    -0.363 N 
HETATM    4  H   UNL     1     -23.705  -3.459  -9.599  1.00  0.00     0.162 HD
ENDROOT
BRANCH   3   5
HETATM    5  C   UNL     1     -21.906  -3.364 -10.701  1.00  0.00     0.160 C 
BRANCH   5   6
HETATM    6  C   UNL     1     -22.448  -4.037 -11.941  1.00  0.00    -0.037 A 
HETATM    7  C   UNL     1     -23.312  -5.145 -11.880  1.00  0.00     0.011 A 
HETATM    8  C   UNL     1     -23.731  -5.798 -13.047  1.00  0.00     0.034 A 
HETATM    9  C   UNL     1     -23.257  -5.374 -14.283  1.00  0.00     0.081 A 
HETATM   10  C   UNL     1     -22.432  -4.252 -14.353  1.00  0.00     0.144 A 
HETATM   11  F   UNL     1     -21.999  -3.816 -15.546  1.00  0.00    -0.204 F 
HETATM   12  C   UNL     1     -22.026  -3.586 -13.200  1.00  0.00     0.053 A 
BRANCH   9  13
HETATM   13  N   UNL     1     -23.580  -6.102 -15.468  1.00  0.00    -0.282 N 
HETATM   14  H   UNL     1     -22.977  -5.923 -16.272  1.00  0.00     0.178 HD
BRANCH  13  15
HETATM   15  S   UNL     1     -25.184  -6.288 -15.918  1.00  0.00     0.227 S 
HETATM   16  C   UNL     1     -25.094  -6.736 -17.642  1.00  0.00     0.186 C 
HETATM   17  O   UNL     1     -25.660  -7.452 -15.201  1.00  0.00    -0.206 OA
HETATM   18  O   UNL     1     -25.862  -5.011 -15.811  1.00  0.00    -0.206 OA
ENDBRANCH  13  15
ENDBRANCH   9  13
ENDBRANCH   5   6
ENDBRANCH   3   5
BRANCH   1  19
HETATM   19  N   UNL     1     -20.966  -4.169  -8.104  1.00  0.00    -0.363 N 
HETATM   20  H   UNL     1     -20.525  -3.368  -7.681  1.00  0.00     0.162 HD
BRANCH  19  21
HETATM   21  C   UNL     1     -20.277  -5.419  -7.831  1.00  0.00     0.160 C 
BRANCH  21  22
HETATM   22  C   UNL     1     -20.625  -5.960  -6.470  1.00  0.00    -0.041 A 
HETATM   23  C   UNL     1     -21.087  -7.270  -6.323  1.00  0.00     0.009 A 
HETATM   24  C   UNL     1     -21.337  -7.800  -5.052  1.00  0.00     0.008 A 
HETATM   25  C   UNL     1     -21.124  -7.045  -3.886  1.00  0.00    -0.051 A 
HETATM   26  C   UNL     1     -20.722  -5.709  -4.054  1.00  0.00     0.008 A 
HETATM   27  C   UNL     1     -20.469  -5.176  -5.325  1.00  0.00     0.009 A 
BRANCH  25  28
HETATM   28  C   UNL     1     -21.353  -7.652  -2.489  1.00  0.00    -0.024 C 
HETATM   29  C   UNL     1     -22.192  -6.722  -1.579  1.00  0.00     0.019 C 
HETATM   30  C   UNL     1     -19.984  -7.891  -1.827  1.00  0.00     0.019 C 
HETATM   31  C   UNL     1     -22.116  -8.998  -2.541  1.00  0.00     0.019 C 
ENDBRANCH  25  28
ENDBRANCH  21  22
ENDBRANCH  19  21
ENDBRANCH   1  19
TORSDOF 8
BEGIN_RES ARG D 557
REMARK  4 active torsions:
REMARK  status: ('A' for Active; 'I' for Inactive)
REMARK    1  A    between atoms: CA   and  CB  
REMARK    2  A    between atoms: CB   and  CG  
REMARK    3  A    between atoms: CG   and  CD  
REMARK    4  A    between atoms: CD   and  NE  
REMARK       I    between atoms: NE   and  CZ  
REMARK       I    between atoms: CZ   and  NH1 
REMARK       I    between atoms: CZ   and  NH2 
ROOT
ATOM      1  CA  ARG D 557     -26.217   2.705 -17.014  1.00 35.49     0.159 C 
ENDROOT
BRANCH   1   2
ATOM      2  CB  ARG D 557     -26.789   1.319 -17.183  1.00 35.49     0.034 C 
BRANCH   2   3
ATOM      3  CG  ARG D 557     -28.241   1.222 -17.374  1.00 35.49     0.027 C 
BRANCH   3   4
ATOM      4  CD  ARG D 557     -28.869   0.255 -16.445  1.00 35.49     0.116 C 
BRANCH   4   5
ATOM      5  NE  ARG D 557     -29.261  -0.960 -17.110  1.00 35.49    -0.212 N 
ATOM      6  CZ  ARG D 557     -28.642  -2.116 -17.025  1.00 35.49     0.666 C 
ATOM      7  NH1 ARG D 557     -27.548  -2.283 -16.305  1.00 35.49    -0.235 N 
ATOM      8  NH2 ARG D 557     -29.150  -3.119 -17.680  1.00 35.49    -0.235 N 
ATOM      9  HH  ARG D 557     -27.197  -1.638 -15.864  1.00 35.49     0.174 HD
ATOM     10  HH  ARG D 557     -27.189  -3.061 -16.285  1.00 35.49     0.174 HD
ATOM     11  HH  ARG D 557     -29.861  -2.983 -18.131  1.00 35.49     0.174 HD
ATOM     12  HH  ARG D 557     -28.781  -3.881 -17.647  1.00 35.49     0.174 HD
ATOM     13  HE  ARG D 557     -29.914  -0.925 -17.653  1.00 35.49     0.178 HD
ENDBRANCH   4   5
ENDBRANCH   3   4
ENDBRANCH   2   3
ENDBRANCH   1   2
END_RES ARG D 557
BEGIN_RES GLU D 570
REMARK  3 active torsions:
REMARK  status: ('A' for Active; 'I' for Inactive)
REMARK    5  A    between atoms: CA   and  CB  
REMARK    6  A    between atoms: CB   and  CG  
REMARK    7  A    between atoms: CG   and  CD  
ROOT
ATOM     14  CA  GLU D 570     -18.033  -6.348 -13.375  1.00 32.92     0.160 C 
ENDROOT
BRANCH  14  15
ATOM     15  CB  GLU D 570     -19.500  -6.345 -13.794  1.00 32.92     0.043 C 
BRANCH  15  16
ATOM     16  CG  GLU D 570     -20.096  -7.641 -14.210  1.00 32.92     0.100 C 
BRANCH  16  17
ATOM     17  CD  GLU D 570     -20.509  -7.660 -15.663  1.00 32.92     0.185 C 
ATOM     18  OE1 GLU D 570     -20.612  -6.581 -16.277  1.00 32.92    -0.647 OA
ATOM     19  OE2 GLU D 570     -20.747  -8.766 -16.188  1.00 32.92    -0.647 OA
ENDBRANCH  16  17
ENDBRANCH  15  16
ENDBRANCH  14  15
END_RES GLU D 570
ENDMDL
MODEL 7
REMARK VINA RESULT:      -8.6      1.735      2.276
REMARK  8 active torsions:
REMARK  status: ('A' for Active; 'I' for Inactive)
REMARK    1  A    between atoms: C_2  and  C_5 
REMARK    2  A    between atoms: C_8  and  C_9 
REMARK    3  A    between atoms: C_9  and  N_10 
REMARK    4  A    between atoms: N_10  and  C_11 
REMARK    5  A    between atoms: N_13  and  C_14 
REMARK    6  A    between atoms: C_14  and  C_15 
REMARK    7  A    between atoms: C_18  and  N_19 
REMARK    8  A    between atoms: N_19  and  S_20 
ROOT
HETATM    1  C   UNL     1     -19.935  -7.094  -6.293  1.00  0.00     0.168 C 
HETATM    2  S   UNL     1     -18.903  -8.370  -5.997  1.00  0.00    -0.041 SA
HETATM    3  N   UNL     1     -19.438  -6.020  -6.964  1.00  0.00    -0.363 N 
HETATM    4  H   UNL     1     -18.474  -6.133  -7.260  1.00  0.00     0.162 HD
ENDROOT
BRANCH   3   5
HETATM    5  C   UNL     1     -20.018  -4.700  -7.107  1.00  0.00     0.160 C 
BRANCH   5   6
HETATM    6  C   UNL     1     -20.894  -4.524  -8.326  1.00  0.00    -0.037 A 
HETATM    7  C   UNL     1     -22.297  -4.486  -8.246  1.00  0.00     0.011 A 
HETATM    8  C   UNL     1     -23.084  -4.406  -9.404  1.00  0.00     0.034 A 
HETATM    9  C   UNL     1     -22.475  -4.405 -10.653  1.00  0.00     0.081 A 
HETATM   10  C   UNL     1     -21.082  -4.402 -10.738  1.00  0.00     0.144 A 
HETATM   11  F   UNL     1     -20.487  -4.364 -11.939  1.00  0.00    -0.204 F 
HETATM   12  C   UNL     1     -20.294  -4.462  -9.592  1.00  0.00     0.053 A 
BRANCH   9  13
HETATM   13  N   UNL     1     -23.265  -4.444 -11.841  1.00  0.00    -0.282 N 
HETATM   14  H   UNL     1     -23.131  -5.265 -12.432  1.00  0.00     0.178 HD
BRANCH  13  15
HETATM   15  S   UNL     1     -23.471  -3.049 -12.748  1.00  0.00     0.227 S 
HETATM   16  C   UNL     1     -22.774  -3.467 -14.336  1.00  0.00     0.186 C 
HETATM   17  O   UNL     1     -24.900  -2.910 -12.935  1.00  0.00    -0.206 OA
HETATM   18  O   UNL     1     -22.682  -1.980 -12.168  1.00  0.00    -0.206 OA
ENDBRANCH  13  15
ENDBRANCH   9  13
ENDBRANCH   5   6
ENDBRANCH   3   5
BRANCH   1  19
HETATM   19  N   UNL     1     -21.251  -7.023  -5.940  1.00  0.00    -0.363 N 
HETATM   20  H   UNL     1     -21.793  -7.861  -6.071  1.00  0.00     0.162 HD
BRANCH  19  21
HETATM   21  C   UNL     1     -21.750  -6.171  -4.874  1.00  0.00     0.160 C 
BRANCH  21  22
HETATM   22  C   UNL     1     -21.773  -6.891  -3.552  1.00  0.00    -0.041 A 
HETATM   23  C   UNL     1     -22.063  -6.201  -2.373  1.00  0.00     0.009 A 
HETATM   24  C   UNL     1     -22.161  -6.881  -1.154  1.00  0.00     0.008 A 
HETATM   25  C   UNL     1     -21.986  -8.274  -1.073  1.00  0.00    -0.051 A 
HETATM   26  C   UNL     1     -21.631  -8.942  -2.257  1.00  0.00     0.008 A 
HETATM   27  C   UNL     1     -21.533  -8.264  -3.479  1.00  0.00     0.009 A 
BRANCH  25  28
HETATM   28  C   UNL     1     -22.145  -9.022   0.264  1.00  0.00    -0.024 C 
HETATM   29  C   UNL     1     -21.047 -10.093   0.468  1.00  0.00     0.019 C 
HETATM   30  C   UNL     1     -23.521  -9.713   0.278  1.00  0.00     0.019 C 
HETATM   31  C   UNL     1     -22.056  -8.081   1.489  1.00  0.00     0.019 C 
ENDBRANCH  25  28
ENDBRANCH  21  22
ENDBRANCH  19  21
ENDBRANCH   1  19
TORSDOF 8
BEGIN_RES ARG D 557
REMARK  4 active torsions:
REMARK  status: ('A' for Active; 'I' for Inactive)
REMARK    1  A    between atoms: CA   and  CB  
REMARK    2  A    between atoms: CB   and  CG  
REMARK    3  A    between atoms: CG   and  CD  
REMARK    4  A    between atoms: CD   and  NE  
REMARK       I    between atoms: NE   and  CZ  
REMARK       I    between atoms: CZ   and  NH1 
REMARK       I    between atoms: CZ   and  NH2 
ROOT
ATOM      1  CA  ARG D 557     -26.217   2.705 -17.014  1.00 35.49     0.159 C 
ENDROOT
BRANCH   1   2
ATOM      2  CB  ARG D 557     -26.789   1.319 -17.183  1.00 35.49     0.034 C 
BRANCH   2   3
ATOM      3  CG  ARG D 557     -26.218   0.261 -16.340  1.00 35.49     0.027 C 
BRANCH   3   4
ATOM      4  CD  ARG D 557     -27.158  -0.865 -16.134  1.00 35.49     0.116 C 
BRANCH   4   5
ATOM      5  NE  ARG D 557     -26.504  -2.022 -15.581  1.00 35.49    -0.212 N 
ATOM      6  CZ  ARG D 557     -26.875  -3.270 -15.756  1.00 35.49     0.666 C 
ATOM      7  NH1 ARG D 557     -27.932  -3.602 -16.474  1.00 35.49    -0.235 N 
ATOM      8  NH2 ARG D 557     -26.151  -4.195 -15.196  1.00 35.49    -0.235 N 
ATOM      9  HH  ARG D 557     -28.422  -3.010 -16.853  1.00 35.49     0.174 HD
ATOM     10  HH  ARG D 557     -28.124  -4.433 -16.555  1.00 35.49     0.174 HD
ATOM     11  HH  ARG D 557     -25.470  -3.952 -14.745  1.00 35.49     0.174 HD
ATOM     12  HH  ARG D 557     -26.357  -5.013 -15.290  1.00 35.49     0.174 HD
ATOM     13  HE  ARG D 557     -25.856  -1.896 -15.045  1.00 35.49     0.178 HD
ENDBRANCH   4   5
ENDBRANCH   3   4
ENDBRANCH   2   3
ENDBRANCH   1   2
END_RES ARG D 557
BEGIN_RES GLU D 570
REMARK  3 active torsions:
REMARK  status: ('A' for Active; 'I' for Inactive)
REMARK    5  A    between atoms: CA   and  CB  
REMARK    6  A    between atoms: CB   and  CG  
REMARK    7  A    between atoms: CG   and  CD  
ROOT
ATOM     14  CA  GLU D 570     -18.033  -6.348 -13.375  1.00 32.92     0.160 C 
ENDROOT
BRANCH  14  15
ATOM     15  CB  GLU D 570     -19.500  -6.345 -13.794  1.00 32.92     0.043 C 
BRANCH  15  16
ATOM     16  CG  GLU D 570     -19.997  -7.520 -14.556  1.00 32.92     0.100 C 
BRANCH  16  17
ATOM     17  CD  GLU D 570     -20.840  -7.135 -15.749  1.00 32.92     0.185 C 
ATOM     18  OE1 GLU D 570     -21.846  -7.817 -16.024  1.00 32.92    -0.647 OA
ATOM     19  OE2 GLU D 570     -20.481  -6.151 -16.425  1.00 32.92    -0.647 OA
ENDBRANCH  16  17
ENDBRANCH  15  16
ENDBRANCH  14  15
END_RES GLU D 570
ENDMDL
MODEL 8
REMARK VINA RESULT:      -8.6      5.061      9.747
REMARK  8 active torsions:
REMARK  status: ('A' for Active; 'I' for Inactive)
REMARK    1  A    between atoms: C_2  and  C_5 
REMARK    2  A    between atoms: C_8  and  C_9 
REMARK    3  A    between atoms: C_9  and  N_10 
REMARK    4  A    between atoms: N_10  and  C_11 
REMARK    5  A    between atoms: N_13  and  C_14 
REMARK    6  A    between atoms: C_14  and  C_15 
REMARK    7  A    between atoms: C_18  and  N_19 
REMARK    8  A    between atoms: N_19  and  S_20 
ROOT
HETATM    1  C   UNL     1     -20.709  -5.749  -6.204  1.00  0.00     0.168 C 
HETATM    2  S   UNL     1     -19.442  -6.231  -7.176  1.00  0.00    -0.041 SA
HETATM    3  N   UNL     1     -20.635  -6.038  -4.877  1.00  0.00    -0.363 N 
HETATM    4  H   UNL     1     -19.770  -6.490  -4.604  1.00  0.00     0.162 HD
ENDROOT
BRANCH   3   5
HETATM    5  C   UNL     1     -21.689  -5.984  -3.884  1.00  0.00     0.160 C 
BRANCH   5   6
HETATM    6  C   UNL     1     -21.723  -7.159  -2.935  1.00  0.00    -0.037 A 
HETATM    7  C   UNL     1     -21.548  -8.485  -3.370  1.00  0.00     0.011 A 
HETATM    8  C   UNL     1     -21.668  -9.560  -2.478  1.00  0.00     0.034 A 
HETATM    9  C   UNL     1     -22.005  -9.320  -1.150  1.00  0.00     0.081 A 
HETATM   10  C   UNL     1     -22.141  -8.006  -0.704  1.00  0.00     0.144 A 
HETATM   11  F   UNL     1     -22.430  -7.766   0.584  1.00  0.00    -0.204 F 
HETATM   12  C   UNL     1     -22.004  -6.933  -1.580  1.00  0.00     0.053 A 
BRANCH   9  13
HETATM   13  N   UNL     1     -22.248 -10.410  -0.260  1.00  0.00    -0.282 N 
HETATM   14  H   UNL     1     -23.089 -10.330   0.313  1.00  0.00     0.178 HD
BRANCH  13  15
HETATM   15  S   UNL     1     -20.972 -11.085   0.593  1.00  0.00     0.227 S 
HETATM   16  C   UNL     1     -19.699 -11.294  -0.638  1.00  0.00     0.186 C 
HETATM   17  O   UNL     1     -20.519 -10.053   1.502  1.00  0.00    -0.206 OA
HETATM   18  O   UNL     1     -21.361 -12.395   1.078  1.00  0.00    -0.206 OA
ENDBRANCH  13  15
ENDBRANCH   9  13
ENDBRANCH   5   6
ENDBRANCH   3   5
BRANCH   1  19
HETATM   19  N   UNL     1     -21.821  -5.071  -6.609  1.00  0.00    -0.363 N 
HETATM   20  H   UNL     1     -22.646  -5.191  -6.043  1.00  0.00     0.162 HD
BRANCH  19  21
HETATM   21  C   UNL     1     -21.775  -3.794  -7.300  1.00  0.00     0.160 C 
BRANCH  21  22
HETATM   22  C   UNL     1     -22.221  -3.921  -8.732  1.00  0.00    -0.041 A 
HETATM   23  C   UNL     1     -23.552  -3.690  -9.085  1.00  0.00     0.009 A 
HETATM   24  C   UNL     1     -23.952  -3.731 -10.426  1.00  0.00     0.008 A 
HETATM   25  C   UNL     1     -23.036  -3.992 -11.459  1.00  0.00    -0.051 A 
HETATM   26  C   UNL     1     -21.715  -4.286 -11.081  1.00  0.00     0.008 A 
HETATM   27  C   UNL     1     -21.311  -4.245  -9.741  1.00  0.00     0.009 A 
BRANCH  25  28
HETATM   28  C   UNL     1     -23.475  -3.985 -12.935  1.00  0.00    -0.024 C 
HETATM   29  C   UNL     1     -24.779  -3.179 -13.152  1.00  0.00     0.019 C 
HETATM   30  C   UNL     1     -23.710  -5.439 -13.384  1.00  0.00     0.019 C 
HETATM   31  C   UNL     1     -22.419  -3.347 -13.870  1.00  0.00     0.019 C 
ENDBRANCH  25  28
ENDBRANCH  21  22
ENDBRANCH  19  21
ENDBRANCH   1  19
TORSDOF 8
BEGIN_RES ARG D 557
REMARK  4 active torsions:
REMARK  status: ('A' for Active; 'I' for Inactive)
REMARK    1  A    between atoms: CA   and  CB  
REMARK    2  A    between atoms: CB   and  CG  
REMARK    3  A    between atoms: CG   and  CD  
REMARK    4  A    between atoms: CD   and  NE  
REMARK       I    between atoms: NE   and  CZ  
REMARK       I    between atoms: CZ   and  NH1 
REMARK       I    between atoms: CZ   and  NH2 
ROOT
ATOM      1  CA  ARG D 557     -26.217   2.705 -17.014  1.00 35.49     0.159 C 
ENDROOT
BRANCH   1   2
ATOM      2  CB  ARG D 557     -26.789   1.319 -17.183  1.00 35.49     0.034 C 
BRANCH   2   3
ATOM      3  CG  ARG D 557     -28.232   1.226 -17.435  1.00 35.49     0.027 C 
BRANCH   3   4
ATOM      4  CD  ARG D 557     -28.909   0.295 -16.503  1.00 35.49     0.116 C 
BRANCH   4   5
ATOM      5  NE  ARG D 557     -29.296  -0.932 -17.149  1.00 35.49    -0.212 N 
ATOM      6  CZ  ARG D 557     -28.676  -2.086 -17.040  1.00 35.49     0.666 C 
ATOM      7  NH1 ARG D 557     -27.586  -2.239 -16.312  1.00 35.49    -0.235 N 
ATOM      8  NH2 ARG D 557     -29.181  -3.100 -17.680  1.00 35.49    -0.235 N 
ATOM      9  HH  ARG D 557     -27.238  -1.586 -15.881  1.00 35.49     0.174 HD
ATOM     10  HH  ARG D 557     -27.226  -3.016 -16.277  1.00 35.49     0.174 HD
ATOM     11  HH  ARG D 557     -29.890  -2.973 -18.137  1.00 35.49     0.174 HD
ATOM     12  HH  ARG D 557     -28.811  -3.862 -17.632  1.00 35.49     0.174 HD
ATOM     13  HE  ARG D 557     -29.947  -0.907 -17.695  1.00 35.49     0.178 HD
ENDBRANCH   4   5
ENDBRANCH   3   4
ENDBRANCH   2   3
ENDBRANCH   1   2
END_RES ARG D 557
BEGIN_RES GLU D 570
REMARK  3 active torsions:
REMARK  status: ('A' for Active; 'I' for Inactive)
REMARK    5  A    between atoms: CA   and  CB  
REMARK    6  A    between atoms: CB   and  CG  
REMARK    7  A    between atoms: CG   and  CD  
ROOT
ATOM     14  CA  GLU D 570     -18.033  -6.348 -13.375  1.00 32.92     0.160 C 
ENDROOT
BRANCH  14  15
ATOM     15  CB  GLU D 570     -19.500  -6.345 -13.794  1.00 32.92     0.043 C 
BRANCH  15  16
ATOM     16  CG  GLU D 570     -20.137  -7.660 -14.065  1.00 32.92     0.100 C 
BRANCH  16  17
ATOM     17  CD  GLU D 570     -20.778  -7.734 -15.432  1.00 32.92     0.185 C 
ATOM     18  OE1 GLU D 570     -21.564  -6.832 -15.781  1.00 32.92    -0.647 OA
ATOM     19  OE2 GLU D 570     -20.503  -8.712 -16.154  1.00 32.92    -0.647 OA
ENDBRANCH  16  17
ENDBRANCH  15  16
ENDBRANCH  14  15
END_RES GLU D 570
ENDMDL
MODEL 9
REMARK VINA RESULT:      -8.3      3.794     10.121
REMARK  8 active torsions:
REMARK  status: ('A' for Active; 'I' for Inactive)
REMARK    1  A    between atoms: C_2  and  C_5 
REMARK    2  A    between atoms: C_8  and  C_9 
REMARK    3  A    between atoms: C_9  and  N_10 
REMARK    4  A    between atoms: N_10  and  C_11 
REMARK    5  A    between atoms: N_13  and  C_14 
REMARK    6  A    between atoms: C_14  and  C_15 
REMARK    7  A    between atoms: C_18  and  N_19 
REMARK    8  A    between atoms: N_19  and  S_20 
ROOT
HETATM    1  C   UNL     1     -24.279  -4.461 -14.243  1.00  0.00     0.168 C 
HETATM    2  S   UNL     1     -25.566  -3.472 -14.628  1.00  0.00    -0.041 SA
HETATM    3  N   UNL     1     -23.703  -4.305 -13.020  1.00  0.00    -0.363 N 
HETATM    4  H   UNL     1     -24.162  -3.613 -12.438  1.00  0.00     0.162 HD
ENDROOT
BRANCH   3   5
HETATM    5  C   UNL     1     -22.435  -4.824 -12.549  1.00  0.00     0.160 C 
BRANCH   5   6
HETATM    6  C   UNL     1     -22.071  -4.416 -11.140  1.00  0.00    -0.037 A 
HETATM    7  C   UNL     1     -20.739  -4.217 -10.734  1.00  0.00     0.011 A 
HETATM    8  C   UNL     1     -20.429  -3.922  -9.399  1.00  0.00     0.034 A 
HETATM    9  C   UNL     1     -21.444  -3.864  -8.451  1.00  0.00     0.081 A 
HETATM   10  C   UNL     1     -22.770  -4.022  -8.855  1.00  0.00     0.144 A 
HETATM   11  F   UNL     1     -23.757  -3.931  -7.951  1.00  0.00    -0.204 F 
HETATM   12  C   UNL     1     -23.087  -4.296 -10.182  1.00  0.00     0.053 A 
BRANCH   9  13
HETATM   13  N   UNL     1     -21.131  -3.682  -7.070  1.00  0.00    -0.282 N 
HETATM   14  H   UNL     1     -20.432  -2.967  -6.868  1.00  0.00     0.178 HD
BRANCH  13  15
HETATM   15  S   UNL     1     -20.962  -5.020  -6.073  1.00  0.00     0.227 S 
HETATM   16  C   UNL     1     -20.067  -6.190  -7.079  1.00  0.00     0.186 C 
HETATM   17  O   UNL     1     -20.072  -4.606  -5.009  1.00  0.00    -0.206 OA
HETATM   18  O   UNL     1     -22.272  -5.570  -5.785  1.00  0.00    -0.206 OA
ENDBRANCH  13  15
ENDBRANCH   9  13
ENDBRANCH   5   6
ENDBRANCH   3   5
BRANCH   1  19
HETATM   19  N   UNL     1     -23.746  -5.435 -15.036  1.00  0.00    -0.363 N 
HETATM   20  H   UNL     1     -22.750  -5.400 -15.176  1.00  0.00     0.162 HD
BRANCH  19  21
HETATM   21  C   UNL     1     -24.298  -6.776 -15.139  1.00  0.00     0.160 C 
BRANCH  21  22
HETATM   22  C   UNL     1     -25.591  -6.787 -15.908  1.00  0.00    -0.041 A 
HETATM   23  C   UNL     1     -26.790  -7.125 -15.276  1.00  0.00     0.009 A 
HETATM   24  C   UNL     1     -28.005  -7.061 -15.968  1.00  0.00     0.008 A 
HETATM   25  C   UNL     1     -28.065  -6.647 -17.311  1.00  0.00    -0.051 A 
HETATM   26  C   UNL     1     -26.843  -6.374 -17.950  1.00  0.00     0.008 A 
HETATM   27  C   UNL     1     -25.626  -6.436 -17.259  1.00  0.00     0.009 A 
BRANCH  25  28
HETATM   28  C   UNL     1     -29.411  -6.531 -18.050  1.00  0.00    -0.024 C 
HETATM   29  C   UNL     1     -29.833  -7.869 -18.706  1.00  0.00     0.019 C 
HETATM   30  C   UNL     1     -29.277  -5.461 -19.148  1.00  0.00     0.019 C 
HETATM   31  C   UNL     1     -30.575  -6.131 -17.113  1.00  0.00     0.019 C 
ENDBRANCH  25  28
ENDBRANCH  21  22
ENDBRANCH  19  21
ENDBRANCH   1  19
TORSDOF 8
BEGIN_RES ARG D 557
REMARK  4 active torsions:
REMARK  status: ('A' for Active; 'I' for Inactive)
REMARK    1  A    between atoms: CA   and  CB  
REMARK    2  A    between atoms: CB   and  CG  
REMARK    3  A    between atoms: CG   and  CD  
REMARK    4  A    between atoms: CD   and  NE  
REMARK       I    between atoms: NE   and  CZ  
REMARK       I    between atoms: CZ   and  NH1 
REMARK       I    between atoms: CZ   and  NH2 
ROOT
ATOM      1  CA  ARG D 557     -26.217   2.705 -17.014  1.00 35.49     0.159 C 
ENDROOT
BRANCH   1   2
ATOM      2  CB  ARG D 557     -26.789   1.319 -17.183  1.00 35.49     0.034 C 
BRANCH   2   3
ATOM      3  CG  ARG D 557     -28.210   1.147 -16.858  1.00 35.49     0.027 C 
BRANCH   3   4
ATOM      4  CD  ARG D 557     -28.812  -0.013 -17.555  1.00 35.49     0.116 C 
BRANCH   4   5
ATOM      5  NE  ARG D 557     -28.266  -1.264 -17.097  1.00 35.49    -0.212 N 
ATOM      6  CZ  ARG D 557     -28.903  -2.413 -17.062  1.00 35.49     0.666 C 
ATOM      7  NH1 ARG D 557     -30.161  -2.538 -17.444  1.00 35.49    -0.235 N 
ATOM      8  NH2 ARG D 557     -28.245  -3.451 -16.636  1.00 35.49    -0.235 N 
ATOM      9  HH  ARG D 557     -30.612  -1.869 -17.730  1.00 35.49     0.174 HD
ATOM     10  HH  ARG D 557     -30.524  -3.313 -17.402  1.00 35.49     0.174 HD
ATOM     11  HH  ARG D 557     -27.432  -3.342 -16.403  1.00 35.49     0.174 HD
ATOM     12  HH  ARG D 557     -28.621  -4.211 -16.603  1.00 35.49     0.174 HD
ATOM     13  HE  ARG D 557     -27.484  -1.260 -16.764  1.00 35.49     0.178 HD
ENDBRANCH   4   5
ENDBRANCH   3   4
ENDBRANCH   2   3
ENDBRANCH   1   2
END_RES ARG D 557
BEGIN_RES GLU D 570
REMARK  3 active torsions:
REMARK  status: ('A' for Active; 'I' for Inactive)
REMARK    5  A    between atoms: CA   and  CB  
REMARK    6  A    between atoms: CB   and  CG  
REMARK    7  A    between atoms: CG   and  CD  
ROOT
ATOM     14  CA  GLU D 570     -18.033  -6.348 -13.375  1.00 32.92     0.160 C 
ENDROOT
BRANCH  14  15
ATOM     15  CB  GLU D 570     -19.500  -6.345 -13.794  1.00 32.92     0.043 C 
BRANCH  15  16
ATOM     16  CG  GLU D 570     -20.088  -7.636 -14.237  1.00 32.92     0.100 C 
BRANCH  16  17
ATOM     17  CD  GLU D 570     -20.714  -7.558 -15.610  1.00 32.92     0.185 C 
ATOM     18  OE1 GLU D 570     -20.859  -6.443 -16.146  1.00 32.92    -0.647 OA
ATOM     19  OE2 GLU D 570     -21.078  -8.622 -16.148  1.00 32.92    -0.647 OA
ENDBRANCH  16  17
ENDBRANCH  15  16
ENDBRANCH  14  15
END_RES GLU D 570
ENDMDL
