MODEL 1
REMARK VINA RESULT:     -11.3      0.000      0.000
REMARK  5 active torsions:
REMARK  status: ('A' for Active; 'I' for Inactive)
REMARK       I    between atoms: C_2  and  N_4 
REMARK    1  A    between atoms: N_4  and  C_5 
REMARK    2  A    between atoms: C_9  and  O_10 
REMARK    3  A    between atoms: O_10  and  C_11 
REMARK    4  A    between atoms: C_13  and  C_14 
REMARK    5  A    between atoms: C_17  and  C_18 
ROOT
HETATM    1  C   UNL     1     -24.512  -5.626 -14.427  1.00  0.00     0.151 A 
HETATM    2  C   UNL     1     -23.681  -5.735 -13.331  1.00  0.00     0.086 A 
HETATM    3  C   UNL     1     -23.378  -4.555 -12.678  1.00  0.00     0.047 A 
HETATM    4  N   UNL     1     -23.862  -3.366 -13.101  1.00  0.00    -0.352 N 
ATOM      5  HN  UNL     1     -23.655  -2.499 -12.604  1.00  0.00     0.166 HD
HETATM    6  C   UNL     1     -24.626  -3.377 -14.202  1.00  0.00     0.182 A 
HETATM    7  N   UNL     1     -24.973  -4.458 -14.903  1.00  0.00    -0.333 N 
ATOM      8  HN  UNL     1     -25.548  -4.400 -15.743  1.00  0.00     0.168 HD
ENDROOT
BRANCH   1   9
HETATM    9  O   UNL     1     -24.875  -6.815 -15.051  1.00  0.00    -0.291 OA
BRANCH   9  10
HETATM   10  C   UNL     1     -24.708  -6.907 -16.423  1.00  0.00     0.105 A 
HETATM   11  C   UNL     1     -25.818  -6.656 -17.269  1.00  0.00     0.085 A 
HETATM   12  N   UNL     1     -27.125  -6.342 -16.884  1.00  0.00    -0.333 N 
HETATM   13  C   UNL     1     -25.628  -6.734 -18.652  1.00  0.00     0.038 A 
HETATM   14  C   UNL     1     -27.897  -6.295 -17.944  1.00  0.00     0.152 A 
ATOM     15  HN  UNL     1     -27.432  -6.174 -15.925  1.00  0.00     0.168 HD
HETATM   16  S   UNL     1     -27.116  -6.424 -19.446  1.00  0.00    -0.052 SA
HETATM   17  C   UNL     1     -24.386  -7.034 -19.232  1.00  0.00     0.021 A 
HETATM   18  C   UNL     1     -23.303  -7.256 -18.388  1.00  0.00     0.004 A 
HETATM   19  C   UNL     1     -23.453  -7.172 -17.010  1.00  0.00     0.040 A 
BRANCH  14  20
HETATM   20  N   UNL     1     -29.254  -6.087 -17.852  1.00  0.00    -0.307 N 
HETATM   21  C   UNL     1     -29.925  -5.712 -16.707  1.00  0.00     0.219 C 
HETATM   22  C   UNL     1     -31.410  -5.588 -16.925  1.00  0.00     0.117 C 
HETATM   23  O   UNL     1     -29.444  -5.477 -15.604  1.00  0.00    -0.274 OA
HETATM   24  H   UNL     1     -29.717  -6.025 -18.748  1.00  0.00     0.171 HD
ENDBRANCH  14  20
ENDBRANCH   9  10
ENDBRANCH   1   9
BRANCH   3  25
HETATM   25  C   UNL     1     -22.540  -4.502 -11.459  1.00  0.00    -0.009 A 
HETATM   26  C   UNL     1     -21.157  -4.246 -11.514  1.00  0.00     0.014 A 
HETATM   27  C   UNL     1     -20.377  -4.214 -10.350  1.00  0.00     0.017 A 
HETATM   28  C   UNL     1     -20.953  -4.437  -9.093  1.00  0.00     0.048 A 
HETATM   29  C   UNL     1     -22.328  -4.680  -9.023  1.00  0.00     0.017 A 
HETATM   30  C   UNL     1     -23.105  -4.709 -10.186  1.00  0.00     0.014 A 
BRANCH  28  31
HETATM   31  C   UNL     1     -20.120  -4.411  -7.835  1.00  0.00     0.417 C 
HETATM   32  F   UNL     1     -18.907  -3.813  -7.995  1.00  0.00    -0.166 F 
HETATM   33  F   UNL     1     -20.731  -3.746  -6.815  1.00  0.00    -0.166 F 
HETATM   34  F   UNL     1     -19.857  -5.661  -7.361  1.00  0.00    -0.166 F 
ENDBRANCH  28  31
ENDBRANCH   3  25
TORSDOF 5
BEGIN_RES ARG D 557
REMARK  4 active torsions:
REMARK  status: ('A' for Active; 'I' for Inactive)
REMARK    1  A    between atoms: CA   and  CB  
REMARK    2  A    between atoms: CB   and  CG  
REMARK    3  A    between atoms: CG   and  CD  
REMARK    4  A    between atoms: CD   and  NE  
REMARK       I    between atoms: NE   and  CZ  
REMARK       I    between atoms: CZ   and  NH1 
REMARK       I    between atoms: CZ   and  NH2 
ROOT
ATOM      1  CA  ARG D 557     -26.217   2.705 -17.014  1.00 35.49     0.159 C 
ENDROOT
BRANCH   1   2
ATOM      2  CB  ARG D 557     -26.789   1.319 -17.183  1.00 35.49     0.034 C 
BRANCH   2   3
ATOM      3  CG  ARG D 557     -28.228   1.227 -17.458  1.00 35.49     0.027 C 
BRANCH   3   4
ATOM      4  CD  ARG D 557     -28.927   0.328 -16.511  1.00 35.49     0.116 C 
BRANCH   4   5
ATOM      5  NE  ARG D 557     -28.175  -0.871 -16.247  1.00 35.49    -0.212 N 
ATOM      6  CZ  ARG D 557     -28.433  -2.063 -16.737  1.00 35.49     0.666 C 
ATOM      7  NH1 ARG D 557     -29.455  -2.294 -17.541  1.00 35.49    -0.235 N 
ATOM      8  NH2 ARG D 557     -27.632  -3.034 -16.406  1.00 35.49    -0.235 N 
ATOM      9  HH  ARG D 557     -29.994  -1.669 -17.773  1.00 35.49     0.174 HD
ATOM     10  HH  ARG D 557     -29.572  -3.091 -17.831  1.00 35.49     0.174 HD
ATOM     11  HH  ARG D 557     -26.976  -2.854 -15.892  1.00 35.49     0.174 HD
ATOM     12  HH  ARG D 557     -27.763  -3.816 -16.706  1.00 35.49     0.174 HD
ATOM     13  HE  ARG D 557     -27.542  -0.828 -15.681  1.00 35.49     0.178 HD
ENDBRANCH   4   5
ENDBRANCH   3   4
ENDBRANCH   2   3
ENDBRANCH   1   2
END_RES ARG D 557
BEGIN_RES GLU D 570
REMARK  3 active torsions:
REMARK  status: ('A' for Active; 'I' for Inactive)
REMARK    5  A    between atoms: CA   and  CB  
REMARK    6  A    between atoms: CB   and  CG  
REMARK    7  A    between atoms: CG   and  CD  
ROOT
ATOM     14  CA  GLU D 570     -18.033  -6.348 -13.375  1.00 32.92     0.160 C 
ENDROOT
BRANCH  14  15
ATOM     15  CB  GLU D 570     -19.500  -6.345 -13.794  1.00 32.92     0.043 C 
BRANCH  15  16
ATOM     16  CG  GLU D 570     -19.821  -6.814 -15.167  1.00 32.92     0.100 C 
BRANCH  16  17
ATOM     17  CD  GLU D 570     -20.490  -5.754 -16.010  1.00 32.92     0.185 C 
ATOM     18  OE1 GLU D 570     -20.321  -5.766 -17.245  1.00 32.92    -0.647 OA
ATOM     19  OE2 GLU D 570     -21.178  -4.891 -15.428  1.00 32.92    -0.647 OA
ENDBRANCH  16  17
ENDBRANCH  15  16
ENDBRANCH  14  15
END_RES GLU D 570
ENDMDL
MODEL 2
REMARK VINA RESULT:     -11.2      2.008      3.440
REMARK  5 active torsions:
REMARK  status: ('A' for Active; 'I' for Inactive)
REMARK       I    between atoms: C_2  and  N_4 
REMARK    1  A    between atoms: N_4  and  C_5 
REMARK    2  A    between atoms: C_9  and  O_10 
REMARK    3  A    between atoms: O_10  and  C_11 
REMARK    4  A    between atoms: C_13  and  C_14 
REMARK    5  A    between atoms: C_17  and  C_18 
ROOT
HETATM    1  C   UNL     1     -23.676  -5.815 -14.568  1.00  0.00     0.151 A 
HETATM    2  C   UNL     1     -23.378  -5.797 -13.221  1.00  0.00     0.086 A 
HETATM    3  C   UNL     1     -22.596  -4.745 -12.785  1.00  0.00     0.047 A 
HETATM    4  N   UNL     1     -22.143  -3.797 -13.637  1.00  0.00    -0.352 N 
ATOM      5  HN  UNL     1     -21.584  -3.009 -13.309  1.00  0.00     0.166 HD
HETATM    6  C   UNL     1     -22.462  -3.940 -14.930  1.00  0.00     0.182 A 
HETATM    7  N   UNL     1     -23.206  -4.918 -15.450  1.00  0.00    -0.333 N 
ATOM      8  HN  UNL     1     -23.404  -4.979 -16.449  1.00  0.00     0.168 HD
ENDROOT
BRANCH   1   9
HETATM    9  O   UNL     1     -24.518  -6.834 -15.005  1.00  0.00    -0.291 OA
BRANCH   9  10
HETATM   10  C   UNL     1     -25.502  -6.515 -15.925  1.00  0.00     0.105 A 
HETATM   11  C   UNL     1     -25.287  -6.819 -17.294  1.00  0.00     0.085 A 
HETATM   12  N   UNL     1     -24.150  -7.397 -17.867  1.00  0.00    -0.333 N 
HETATM   13  C   UNL     1     -26.298  -6.508 -18.208  1.00  0.00     0.038 A 
HETATM   14  C   UNL     1     -24.275  -7.415 -19.173  1.00  0.00     0.152 A 
ATOM     15  HN  UNL     1     -23.345  -7.752 -17.349  1.00  0.00     0.168 HD
HETATM   16  S   UNL     1     -25.786  -6.939 -19.787  1.00  0.00    -0.052 SA
HETATM   17  C   UNL     1     -27.516  -5.926 -17.826  1.00  0.00     0.021 A 
HETATM   18  C   UNL     1     -27.719  -5.655 -16.476  1.00  0.00     0.004 A 
HETATM   19  C   UNL     1     -26.741  -5.964 -15.539  1.00  0.00     0.040 A 
BRANCH  14  20
HETATM   20  N   UNL     1     -23.267  -7.854 -19.999  1.00  0.00    -0.307 N 
HETATM   21  C   UNL     1     -23.433  -8.271 -21.303  1.00  0.00     0.219 C 
HETATM   22  C   UNL     1     -22.140  -8.714 -21.935  1.00  0.00     0.117 C 
HETATM   23  O   UNL     1     -24.474  -8.302 -21.950  1.00  0.00    -0.274 OA
HETATM   24  H   UNL     1     -22.340  -7.654 -19.651  1.00  0.00     0.171 HD
ENDBRANCH  14  20
ENDBRANCH   9  10
ENDBRANCH   1   9
BRANCH   3  25
HETATM   25  C   UNL     1     -22.224  -4.553 -11.366  1.00  0.00    -0.009 A 
HETATM   26  C   UNL     1     -23.190  -4.493 -10.343  1.00  0.00     0.014 A 
HETATM   27  C   UNL     1     -22.820  -4.295  -9.005  1.00  0.00     0.017 A 
HETATM   28  C   UNL     1     -21.474  -4.152  -8.646  1.00  0.00     0.048 A 
HETATM   29  C   UNL     1     -20.504  -4.222  -9.651  1.00  0.00     0.017 A 
HETATM   30  C   UNL     1     -20.875  -4.422 -10.985  1.00  0.00     0.014 A 
BRANCH  28  31
HETATM   31  C   UNL     1     -21.066  -3.932  -7.210  1.00  0.00     0.417 C 
HETATM   32  F   UNL     1     -19.730  -4.083  -6.993  1.00  0.00    -0.166 F 
HETATM   33  F   UNL     1     -21.377  -2.684  -6.761  1.00  0.00    -0.166 F 
HETATM   34  F   UNL     1     -21.680  -4.799  -6.357  1.00  0.00    -0.166 F 
ENDBRANCH  28  31
ENDBRANCH   3  25
TORSDOF 5
BEGIN_RES ARG D 557
REMARK  4 active torsions:
REMARK  status: ('A' for Active; 'I' for Inactive)
REMARK    1  A    between atoms: CA   and  CB  
REMARK    2  A    between atoms: CB   and  CG  
REMARK    3  A    between atoms: CG   and  CD  
REMARK    4  A    between atoms: CD   and  NE  
REMARK       I    between atoms: NE   and  CZ  
REMARK       I    between atoms: CZ   and  NH1 
REMARK       I    between atoms: CZ   and  NH2 
ROOT
ATOM      1  CA  ARG D 557     -26.217   2.705 -17.014  1.00 35.49     0.159 C 
ENDROOT
BRANCH   1   2
ATOM      2  CB  ARG D 557     -26.789   1.319 -17.183  1.00 35.49     0.034 C 
BRANCH   2   3
ATOM      3  CG  ARG D 557     -28.217   1.229 -17.510  1.00 35.49     0.027 C 
BRANCH   3   4
ATOM      4  CD  ARG D 557     -28.967   0.397 -16.541  1.00 35.49     0.116 C 
BRANCH   4   5
ATOM      5  NE  ARG D 557     -29.432  -0.832 -17.127  1.00 35.49    -0.212 N 
ATOM      6  CZ  ARG D 557     -28.824  -1.995 -17.057  1.00 35.49     0.666 C 
ATOM      7  NH1 ARG D 557     -27.674  -2.157 -16.429  1.00 35.49    -0.235 N 
ATOM      8  NH2 ARG D 557     -29.403  -3.010 -17.630  1.00 35.49    -0.235 N 
ATOM      9  HH  ARG D 557     -27.277  -1.504 -16.043  1.00 35.49     0.174 HD
ATOM     10  HH  ARG D 557     -27.326  -2.940 -16.414  1.00 35.49     0.174 HD
ATOM     11  HH  ARG D 557     -30.149  -2.877 -18.022  1.00 35.49     0.174 HD
ATOM     12  HH  ARG D 557     -29.043  -3.777 -17.603  1.00 35.49     0.174 HD
ATOM     13  HE  ARG D 557     -30.130  -0.804 -17.612  1.00 35.49     0.178 HD
ENDBRANCH   4   5
ENDBRANCH   3   4
ENDBRANCH   2   3
ENDBRANCH   1   2
END_RES ARG D 557
BEGIN_RES GLU D 570
REMARK  3 active torsions:
REMARK  status: ('A' for Active; 'I' for Inactive)
REMARK    5  A    between atoms: CA   and  CB  
REMARK    6  A    between atoms: CB   and  CG  
REMARK    7  A    between atoms: CG   and  CD  
ROOT
ATOM     14  CA  GLU D 570     -18.033  -6.348 -13.375  1.00 32.92     0.160 C 
ENDROOT
BRANCH  14  15
ATOM     15  CB  GLU D 570     -19.500  -6.345 -13.794  1.00 32.92     0.043 C 
BRANCH  15  16
ATOM     16  CG  GLU D 570     -19.796  -6.291 -15.249  1.00 32.92     0.100 C 
BRANCH  16  17
ATOM     17  CD  GLU D 570     -20.661  -7.438 -15.717  1.00 32.92     0.185 C 
ATOM     18  OE1 GLU D 570     -20.564  -8.541 -15.147  1.00 32.92    -0.647 OA
ATOM     19  OE2 GLU D 570     -21.432  -7.235 -16.676  1.00 32.92    -0.647 OA
ENDBRANCH  16  17
ENDBRANCH  15  16
ENDBRANCH  14  15
END_RES GLU D 570
ENDMDL
MODEL 3
REMARK VINA RESULT:     -10.6      2.181      3.807
REMARK  5 active torsions:
REMARK  status: ('A' for Active; 'I' for Inactive)
REMARK       I    between atoms: C_2  and  N_4 
REMARK    1  A    between atoms: N_4  and  C_5 
REMARK    2  A    between atoms: C_9  and  O_10 
REMARK    3  A    between atoms: O_10  and  C_11 
REMARK    4  A    between atoms: C_13  and  C_14 
REMARK    5  A    between atoms: C_17  and  C_18 
ROOT
HETATM    1  C   UNL     1     -23.636  -5.928 -14.839  1.00  0.00     0.151 A 
HETATM    2  C   UNL     1     -23.440  -5.857 -13.475  1.00  0.00     0.086 A 
HETATM    3  C   UNL     1     -22.573  -4.874 -13.036  1.00  0.00     0.047 A 
HETATM    4  N   UNL     1     -21.949  -4.041 -13.900  1.00  0.00    -0.352 N 
ATOM      5  HN  UNL     1     -21.327  -3.302 -13.572  1.00  0.00     0.166 HD
HETATM    6  C   UNL     1     -22.185  -4.231 -15.205  1.00  0.00     0.182 A 
HETATM    7  N   UNL     1     -22.999  -5.150 -15.729  1.00  0.00    -0.333 N 
ATOM      8  HN  UNL     1     -23.127  -5.254 -16.735  1.00  0.00     0.168 HD
ENDROOT
BRANCH   1   9
HETATM    9  O   UNL     1     -24.557  -6.872 -15.285  1.00  0.00    -0.291 OA
BRANCH   9  10
HETATM   10  C   UNL     1     -25.535  -6.456 -16.174  1.00  0.00     0.105 A 
HETATM   11  C   UNL     1     -25.403  -6.792 -17.546  1.00  0.00     0.085 A 
HETATM   12  N   UNL     1     -24.356  -7.493 -18.152  1.00  0.00    -0.333 N 
HETATM   13  C   UNL     1     -26.409  -6.381 -18.427  1.00  0.00     0.038 A 
HETATM   14  C   UNL     1     -24.530  -7.507 -19.452  1.00  0.00     0.152 A 
ATOM     15  HN  UNL     1     -23.576  -7.928 -17.659  1.00  0.00     0.168 HD
HETATM   16  S   UNL     1     -26.003  -6.877 -20.018  1.00  0.00    -0.052 SA
HETATM   17  C   UNL     1     -27.543  -5.670 -18.008  1.00  0.00     0.021 A 
HETATM   18  C   UNL     1     -27.666  -5.368 -16.655  1.00  0.00     0.004 A 
HETATM   19  C   UNL     1     -26.694  -5.773 -15.750  1.00  0.00     0.040 A 
BRANCH  14  20
HETATM   20  N   UNL     1     -23.606  -8.057 -20.308  1.00  0.00    -0.307 N 
HETATM   21  C   UNL     1     -22.238  -8.010 -20.138  1.00  0.00     0.219 C 
HETATM   22  C   UNL     1     -21.494  -8.686 -21.260  1.00  0.00     0.117 C 
HETATM   23  O   UNL     1     -21.619  -7.505 -19.208  1.00  0.00    -0.274 OA
HETATM   24  H   UNL     1     -24.005  -8.695 -20.983  1.00  0.00     0.171 HD
ENDBRANCH  14  20
ENDBRANCH   9  10
ENDBRANCH   1   9
BRANCH   3  25
HETATM   25  C   UNL     1     -22.289  -4.633 -11.604  1.00  0.00    -0.009 A 
HETATM   26  C   UNL     1     -20.999  -4.309 -11.143  1.00  0.00     0.014 A 
HETATM   27  C   UNL     1     -20.746  -4.098  -9.781  1.00  0.00     0.017 A 
HETATM   28  C   UNL     1     -21.774  -4.203  -8.835  1.00  0.00     0.048 A 
HETATM   29  C   UNL     1     -23.063  -4.510  -9.281  1.00  0.00     0.017 A 
HETATM   30  C   UNL     1     -23.313  -4.719 -10.642  1.00  0.00     0.014 A 
BRANCH  28  31
HETATM   31  C   UNL     1     -21.510  -3.984  -7.365  1.00  0.00     0.417 C 
HETATM   32  F   UNL     1     -22.398  -4.621  -6.551  1.00  0.00    -0.166 F 
HETATM   33  F   UNL     1     -20.277  -4.417  -6.983  1.00  0.00    -0.166 F 
HETATM   34  F   UNL     1     -21.568  -2.668  -7.018  1.00  0.00    -0.166 F 
ENDBRANCH  28  31
ENDBRANCH   3  25
TORSDOF 5
BEGIN_RES ARG D 557
REMARK  4 active torsions:
REMARK  status: ('A' for Active; 'I' for Inactive)
REMARK    1  A    between atoms: CA   and  CB  
REMARK    2  A    between atoms: CB   and  CG  
REMARK    3  A    between atoms: CG   and  CD  
REMARK    4  A    between atoms: CD   and  NE  
REMARK       I    between atoms: NE   and  CZ  
REMARK       I    between atoms: CZ   and  NH1 
REMARK       I    between atoms: CZ   and  NH2 
ROOT
ATOM      1  CA  ARG D 557     -26.217   2.705 -17.014  1.00 35.49     0.159 C 
ENDROOT
BRANCH   1   2
ATOM      2  CB  ARG D 557     -26.789   1.319 -17.183  1.00 35.49     0.034 C 
BRANCH   2   3
ATOM      3  CG  ARG D 557     -25.833   0.205 -17.183  1.00 35.49     0.027 C 
BRANCH   3   4
ATOM      4  CD  ARG D 557     -25.257  -0.044 -15.841  1.00 35.49     0.116 C 
BRANCH   4   5
ATOM      5  NE  ARG D 557     -25.724  -1.281 -15.272  1.00 35.49    -0.212 N 
ATOM      6  CZ  ARG D 557     -25.132  -1.957 -14.314  1.00 35.49     0.666 C 
ATOM      7  NH1 ARG D 557     -23.997  -1.564 -13.765  1.00 35.49    -0.235 N 
ATOM      8  NH2 ARG D 557     -25.709  -3.049 -13.904  1.00 35.49    -0.235 N 
ATOM      9  HH  ARG D 557     -23.601  -0.847 -14.017  1.00 35.49     0.174 HD
ATOM     10  HH  ARG D 557     -23.659  -2.044 -13.142  1.00 35.49     0.174 HD
ATOM     11  HH  ARG D 557     -26.445  -3.275 -14.272  1.00 35.49     0.174 HD
ATOM     12  HH  ARG D 557     -25.359  -3.511 -13.285  1.00 35.49     0.174 HD
ATOM     13  HE  ARG D 557     -26.411  -1.645 -15.617  1.00 35.49     0.178 HD
ENDBRANCH   4   5
ENDBRANCH   3   4
ENDBRANCH   2   3
ENDBRANCH   1   2
END_RES ARG D 557
BEGIN_RES GLU D 570
REMARK  3 active torsions:
REMARK  status: ('A' for Active; 'I' for Inactive)
REMARK    5  A    between atoms: CA   and  CB  
REMARK    6  A    between atoms: CB   and  CG  
REMARK    7  A    between atoms: CG   and  CD  
ROOT
ATOM     14  CA  GLU D 570     -18.033  -6.348 -13.375  1.00 32.92     0.160 C 
ENDROOT
BRANCH  14  15
ATOM     15  CB  GLU D 570     -19.500  -6.345 -13.794  1.00 32.92     0.043 C 
BRANCH  15  16
ATOM     16  CG  GLU D 570     -20.095  -7.640 -14.213  1.00 32.92     0.100 C 
BRANCH  16  17
ATOM     17  CD  GLU D 570     -20.454  -7.677 -15.680  1.00 32.92     0.185 C 
ATOM     18  OE1 GLU D 570     -20.407  -6.622 -16.341  1.00 32.92    -0.647 OA
ATOM     19  OE2 GLU D 570     -20.802  -8.770 -16.169  1.00 32.92    -0.647 OA
ENDBRANCH  16  17
ENDBRANCH  15  16
ENDBRANCH  14  15
END_RES GLU D 570
ENDMDL
MODEL 4
REMARK VINA RESULT:     -10.6      1.581      2.100
REMARK  5 active torsions:
REMARK  status: ('A' for Active; 'I' for Inactive)
REMARK       I    between atoms: C_2  and  N_4 
REMARK    1  A    between atoms: N_4  and  C_5 
REMARK    2  A    between atoms: C_9  and  O_10 
REMARK    3  A    between atoms: O_10  and  C_11 
REMARK    4  A    between atoms: C_13  and  C_14 
REMARK    5  A    between atoms: C_17  and  C_18 
ROOT
HETATM    1  C   UNL     1     -23.684  -5.719 -14.573  1.00  0.00     0.151 A 
HETATM    2  C   UNL     1     -23.441  -5.703 -13.215  1.00  0.00     0.086 A 
HETATM    3  C   UNL     1     -22.536  -4.758 -12.770  1.00  0.00     0.047 A 
HETATM    4  N   UNL     1     -21.921  -3.908 -13.624  1.00  0.00    -0.352 N 
ATOM      5  HN  UNL     1     -21.270  -3.196 -13.292  1.00  0.00     0.166 HD
HETATM    6  C   UNL     1     -22.205  -4.044 -14.926  1.00  0.00     0.182 A 
HETATM    7  N   UNL     1     -23.058  -4.923 -15.455  1.00  0.00    -0.333 N 
ATOM      8  HN  UNL     1     -23.222  -4.987 -16.459  1.00  0.00     0.168 HD
ENDROOT
BRANCH   1   9
HETATM    9  O   UNL     1     -24.643  -6.624 -15.021  1.00  0.00    -0.291 OA
BRANCH   9  10
HETATM   10  C   UNL     1     -24.828  -6.751 -16.388  1.00  0.00     0.105 A 
HETATM   11  C   UNL     1     -26.099  -6.447 -16.939  1.00  0.00     0.085 A 
HETATM   12  N   UNL     1     -27.249  -6.047 -16.253  1.00  0.00    -0.333 N 
HETATM   13  C   UNL     1     -26.264  -6.563 -18.323  1.00  0.00     0.038 A 
HETATM   14  C   UNL     1     -28.258  -5.972 -17.089  1.00  0.00     0.152 A 
ATOM     15  HN  UNL     1     -27.298  -5.843 -15.254  1.00  0.00     0.168 HD
HETATM   16  S   UNL     1     -27.884  -6.177 -18.734  1.00  0.00    -0.052 SA
HETATM   17  C   UNL     1     -25.225  -6.948 -19.184  1.00  0.00     0.021 A 
HETATM   18  C   UNL     1     -23.979  -7.221 -18.628  1.00  0.00     0.004 A 
HETATM   19  C   UNL     1     -23.775  -7.103 -17.258  1.00  0.00     0.040 A 
BRANCH  14  20
HETATM   20  N   UNL     1     -29.535  -5.681 -16.671  1.00  0.00    -0.307 N 
HETATM   21  C   UNL     1     -30.308  -4.642 -17.145  1.00  0.00     0.219 C 
HETATM   22  C   UNL     1     -31.654  -4.572 -16.472  1.00  0.00     0.117 C 
HETATM   23  O   UNL     1     -30.016  -3.830 -18.017  1.00  0.00    -0.274 OA
HETATM   24  H   UNL     1     -29.963  -6.416 -16.127  1.00  0.00     0.171 HD
ENDBRANCH  14  20
ENDBRANCH   9  10
ENDBRANCH   1   9
BRANCH   3  25
HETATM   25  C   UNL     1     -22.198  -4.576 -11.341  1.00  0.00    -0.009 A 
HETATM   26  C   UNL     1     -23.180  -4.600 -10.333  1.00  0.00     0.014 A 
HETATM   27  C   UNL     1     -22.843  -4.411  -8.986  1.00  0.00     0.017 A 
HETATM   28  C   UNL     1     -21.514  -4.195  -8.601  1.00  0.00     0.048 A 
HETATM   29  C   UNL     1     -20.527  -4.183  -9.592  1.00  0.00     0.017 A 
HETATM   30  C   UNL     1     -20.865  -4.373 -10.936  1.00  0.00     0.014 A 
BRANCH  28  31
HETATM   31  C   UNL     1     -21.141  -3.984  -7.154  1.00  0.00     0.417 C 
HETATM   32  F   UNL     1     -19.826  -4.219  -6.889  1.00  0.00    -0.166 F 
HETATM   33  F   UNL     1     -21.385  -2.714  -6.729  1.00  0.00    -0.166 F 
HETATM   34  F   UNL     1     -21.839  -4.800  -6.315  1.00  0.00    -0.166 F 
ENDBRANCH  28  31
ENDBRANCH   3  25
TORSDOF 5
BEGIN_RES ARG D 557
REMARK  4 active torsions:
REMARK  status: ('A' for Active; 'I' for Inactive)
REMARK    1  A    between atoms: CA   and  CB  
REMARK    2  A    between atoms: CB   and  CG  
REMARK    3  A    between atoms: CG   and  CD  
REMARK    4  A    between atoms: CD   and  NE  
REMARK       I    between atoms: NE   and  CZ  
REMARK       I    between atoms: CZ   and  NH1 
REMARK       I    between atoms: CZ   and  NH2 
ROOT
ATOM      1  CA  ARG D 557     -26.217   2.705 -17.014  1.00 35.49     0.159 C 
ENDROOT
BRANCH   1   2
ATOM      2  CB  ARG D 557     -26.789   1.319 -17.183  1.00 35.49     0.034 C 
BRANCH   2   3
ATOM      3  CG  ARG D 557     -25.835   0.203 -17.158  1.00 35.49     0.027 C 
BRANCH   3   4
ATOM      4  CD  ARG D 557     -25.434  -0.165 -15.781  1.00 35.49     0.116 C 
BRANCH   4   5
ATOM      5  NE  ARG D 557     -25.988  -1.430 -15.374  1.00 35.49    -0.212 N 
ATOM      6  CZ  ARG D 557     -25.543  -2.184 -14.395  1.00 35.49     0.666 C 
ATOM      7  NH1 ARG D 557     -24.493  -1.854 -13.666  1.00 35.49    -0.235 N 
ATOM      8  NH2 ARG D 557     -26.182  -3.291 -14.151  1.00 35.49    -0.235 N 
ATOM      9  HH  ARG D 557     -24.058  -1.129 -13.808  1.00 35.49     0.174 HD
ATOM     10  HH  ARG D 557     -24.249  -2.384 -13.039  1.00 35.49     0.174 HD
ATOM     11  HH  ARG D 557     -26.861  -3.475 -14.633  1.00 35.49     0.174 HD
ATOM     12  HH  ARG D 557     -25.927  -3.802 -13.525  1.00 35.49     0.174 HD
ATOM     13  HE  ARG D 557     -26.624  -1.754 -15.837  1.00 35.49     0.178 HD
ENDBRANCH   4   5
ENDBRANCH   3   4
ENDBRANCH   2   3
ENDBRANCH   1   2
END_RES ARG D 557
BEGIN_RES GLU D 570
REMARK  3 active torsions:
REMARK  status: ('A' for Active; 'I' for Inactive)
REMARK    5  A    between atoms: CA   and  CB  
REMARK    6  A    between atoms: CB   and  CG  
REMARK    7  A    between atoms: CG   and  CD  
ROOT
ATOM     14  CA  GLU D 570     -18.033  -6.348 -13.375  1.00 32.92     0.160 C 
ENDROOT
BRANCH  14  15
ATOM     15  CB  GLU D 570     -19.500  -6.345 -13.794  1.00 32.92     0.043 C 
BRANCH  15  16
ATOM     16  CG  GLU D 570     -20.096  -7.641 -14.209  1.00 32.92     0.100 C 
BRANCH  16  17
ATOM     17  CD  GLU D 570     -20.514  -7.660 -15.660  1.00 32.92     0.185 C 
ATOM     18  OE1 GLU D 570     -20.825  -8.746 -16.187  1.00 32.92    -0.647 OA
ATOM     19  OE2 GLU D 570     -20.515  -6.580 -16.283  1.00 32.92    -0.647 OA
ENDBRANCH  16  17
ENDBRANCH  15  16
ENDBRANCH  14  15
END_RES GLU D 570
ENDMDL
MODEL 5
REMARK VINA RESULT:     -10.5      6.058      9.775
REMARK  5 active torsions:
REMARK  status: ('A' for Active; 'I' for Inactive)
REMARK       I    between atoms: C_2  and  N_4 
REMARK    1  A    between atoms: N_4  and  C_5 
REMARK    2  A    between atoms: C_9  and  O_10 
REMARK    3  A    between atoms: O_10  and  C_11 
REMARK    4  A    between atoms: C_13  and  C_14 
REMARK    5  A    between atoms: C_17  and  C_18 
ROOT
HETATM    1  C   UNL     1     -21.674  -5.520  -5.926  1.00  0.00     0.151 A 
HETATM    2  C   UNL     1     -22.266  -5.195  -7.129  1.00  0.00     0.086 A 
HETATM    3  C   UNL     1     -21.444  -4.605  -8.071  1.00  0.00     0.047 A 
HETATM    4  N   UNL     1     -20.140  -4.355  -7.817  1.00  0.00    -0.352 N 
ATOM      5  HN  UNL     1     -19.530  -3.940  -8.522  1.00  0.00     0.166 HD
HETATM    6  C   UNL     1     -19.686  -4.676  -6.599  1.00  0.00     0.182 A 
HETATM    7  N   UNL     1     -20.396  -5.243  -5.622  1.00  0.00    -0.333 N 
ATOM      8  HN  UNL     1     -19.995  -5.452  -4.708  1.00  0.00     0.168 HD
ENDROOT
BRANCH   1   9
HETATM    9  O   UNL     1     -22.477  -6.173  -4.996  1.00  0.00    -0.291 OA
BRANCH   9  10
HETATM   10  C   UNL     1     -21.855  -6.836  -3.951  1.00  0.00     0.105 A 
HETATM   11  C   UNL     1     -21.224  -8.081  -4.206  1.00  0.00     0.085 A 
HETATM   12  N   UNL     1     -21.170  -8.773  -5.420  1.00  0.00    -0.333 N 
HETATM   13  C   UNL     1     -20.584  -8.727  -3.144  1.00  0.00     0.038 A 
HETATM   14  C   UNL     1     -20.601  -9.940  -5.236  1.00  0.00     0.152 A 
ATOM     15  HN  UNL     1     -21.519  -8.423  -6.313  1.00  0.00     0.168 HD
HETATM   16  S   UNL     1     -19.935 -10.215  -3.698  1.00  0.00    -0.052 SA
HETATM   17  C   UNL     1     -20.526  -8.190  -1.850  1.00  0.00     0.021 A 
HETATM   18  C   UNL     1     -21.131  -6.958  -1.623  1.00  0.00     0.004 A 
HETATM   19  C   UNL     1     -21.764  -6.281  -2.658  1.00  0.00     0.040 A 
BRANCH  14  20
HETATM   20  N   UNL     1     -20.490 -10.867  -6.246  1.00  0.00    -0.307 N 
HETATM   21  C   UNL     1     -21.274 -11.994  -6.381  1.00  0.00     0.219 C 
HETATM   22  C   UNL     1     -20.891 -12.822  -7.578  1.00  0.00     0.117 C 
HETATM   23  O   UNL     1     -22.201 -12.348  -5.660  1.00  0.00    -0.274 OA
HETATM   24  H   UNL     1     -19.918 -10.559  -7.020  1.00  0.00     0.171 HD
ENDBRANCH  14  20
ENDBRANCH   9  10
ENDBRANCH   1   9
BRANCH   3  25
HETATM   25  C   UNL     1     -21.909  -4.239  -9.428  1.00  0.00    -0.009 A 
HETATM   26  C   UNL     1     -21.011  -3.999 -10.485  1.00  0.00     0.014 A 
HETATM   27  C   UNL     1     -21.470  -3.637 -11.759  1.00  0.00     0.017 A 
HETATM   28  C   UNL     1     -22.839  -3.506 -12.020  1.00  0.00     0.048 A 
HETATM   29  C   UNL     1     -23.743  -3.754 -10.981  1.00  0.00     0.017 A 
HETATM   30  C   UNL     1     -23.283  -4.116  -9.710  1.00  0.00     0.014 A 
BRANCH  28  31
HETATM   31  C   UNL     1     -23.342  -3.111 -13.387  1.00  0.00     0.417 C 
HETATM   32  F   UNL     1     -24.050  -4.094 -14.012  1.00  0.00    -0.166 F 
HETATM   33  F   UNL     1     -24.165  -2.026 -13.350  1.00  0.00    -0.166 F 
HETATM   34  F   UNL     1     -22.331  -2.785 -14.238  1.00  0.00    -0.166 F 
ENDBRANCH  28  31
ENDBRANCH   3  25
TORSDOF 5
BEGIN_RES ARG D 557
REMARK  4 active torsions:
REMARK  status: ('A' for Active; 'I' for Inactive)
REMARK    1  A    between atoms: CA   and  CB  
REMARK    2  A    between atoms: CB   and  CG  
REMARK    3  A    between atoms: CG   and  CD  
REMARK    4  A    between atoms: CD   and  NE  
REMARK       I    between atoms: NE   and  CZ  
REMARK       I    between atoms: CZ   and  NH1 
REMARK       I    between atoms: CZ   and  NH2 
ROOT
ATOM      1  CA  ARG D 557     -26.217   2.705 -17.014  1.00 35.49     0.159 C 
ENDROOT
BRANCH   1   2
ATOM      2  CB  ARG D 557     -26.789   1.319 -17.183  1.00 35.49     0.034 C 
BRANCH   2   3
ATOM      3  CG  ARG D 557     -28.239   1.177 -17.006  1.00 35.49     0.027 C 
BRANCH   3   4
ATOM      4  CD  ARG D 557     -28.649  -0.234 -16.815  1.00 35.49     0.116 C 
BRANCH   4   5
ATOM      5  NE  ARG D 557     -27.661  -0.992 -16.094  1.00 35.49    -0.212 N 
ATOM      6  CZ  ARG D 557     -27.499  -2.295 -16.154  1.00 35.49     0.666 C 
ATOM      7  NH1 ARG D 557     -28.263  -3.071 -16.900  1.00 35.49    -0.235 N 
ATOM      8  NH2 ARG D 557     -26.537  -2.814 -15.447  1.00 35.49    -0.235 N 
ATOM      9  HH  ARG D 557     -28.901  -2.751 -17.375  1.00 35.49     0.174 HD
ATOM     10  HH  ARG D 557     -28.109  -3.914 -16.901  1.00 35.49     0.174 HD
ATOM     11  HH  ARG D 557     -26.055  -2.287 -14.980  1.00 35.49     0.174 HD
ATOM     12  HH  ARG D 557     -26.399  -3.650 -15.463  1.00 35.49     0.174 HD
ATOM     13  HE  ARG D 557     -27.172  -0.580 -15.533  1.00 35.49     0.178 HD
ENDBRANCH   4   5
ENDBRANCH   3   4
ENDBRANCH   2   3
ENDBRANCH   1   2
END_RES ARG D 557
BEGIN_RES GLU D 570
REMARK  3 active torsions:
REMARK  status: ('A' for Active; 'I' for Inactive)
REMARK    5  A    between atoms: CA   and  CB  
REMARK    6  A    between atoms: CB   and  CG  
REMARK    7  A    between atoms: CG   and  CD  
ROOT
ATOM     14  CA  GLU D 570     -18.033  -6.348 -13.375  1.00 32.92     0.160 C 
ENDROOT
BRANCH  14  15
ATOM     15  CB  GLU D 570     -19.500  -6.345 -13.794  1.00 32.92     0.043 C 
BRANCH  15  16
ATOM     16  CG  GLU D 570     -19.819  -5.870 -15.165  1.00 32.92     0.100 C 
BRANCH  16  17
ATOM     17  CD  GLU D 570     -21.304  -5.736 -15.411  1.00 32.92     0.185 C 
ATOM     18  OE1 GLU D 570     -22.097  -6.373 -14.692  1.00 32.92    -0.647 OA
ATOM     19  OE2 GLU D 570     -21.677  -4.998 -16.345  1.00 32.92    -0.647 OA
ENDBRANCH  16  17
ENDBRANCH  15  16
ENDBRANCH  14  15
END_RES GLU D 570
ENDMDL
MODEL 6
REMARK VINA RESULT:     -10.1      6.224     10.216
REMARK  5 active torsions:
REMARK  status: ('A' for Active; 'I' for Inactive)
REMARK       I    between atoms: C_2  and  N_4 
REMARK    1  A    between atoms: N_4  and  C_5 
REMARK    2  A    between atoms: C_9  and  O_10 
REMARK    3  A    between atoms: O_10  and  C_11 
REMARK    4  A    between atoms: C_13  and  C_14 
REMARK    5  A    between atoms: C_17  and  C_18 
ROOT
HETATM    1  C   UNL     1     -20.997  -6.295  -6.588  1.00  0.00     0.151 A 
HETATM    2  C   UNL     1     -21.666  -5.954  -7.746  1.00  0.00     0.086 A 
HETATM    3  C   UNL     1     -21.209  -4.827  -8.402  1.00  0.00     0.047 A 
HETATM    4  N   UNL     1     -20.173  -4.100  -7.926  1.00  0.00    -0.352 N 
ATOM      5  HN  UNL     1     -19.823  -3.281  -8.424  1.00  0.00     0.166 HD
HETATM    6  C   UNL     1     -19.628  -4.503  -6.771  1.00  0.00     0.182 A 
HETATM    7  N   UNL     1     -19.996  -5.571  -6.061  1.00  0.00    -0.333 N 
ATOM      8  HN  UNL     1     -19.549  -5.820  -5.179  1.00  0.00     0.168 HD
ENDROOT
BRANCH   1   9
HETATM    9  O   UNL     1     -21.408  -7.465  -5.956  1.00  0.00    -0.291 OA
BRANCH   9  10
HETATM   10  C   UNL     1     -21.000  -7.675  -4.649  1.00  0.00     0.105 A 
HETATM   11  C   UNL     1     -19.927  -8.569  -4.400  1.00  0.00     0.085 A 
HETATM   12  N   UNL     1     -19.214  -9.322  -5.337  1.00  0.00    -0.333 N 
HETATM   13  C   UNL     1     -19.516  -8.756  -3.076  1.00  0.00     0.038 A 
HETATM   14  C   UNL     1     -18.375 -10.117  -4.717  1.00  0.00     0.152 A 
ATOM     15  HN  UNL     1     -19.327  -9.262  -6.349  1.00  0.00     0.168 HD
HETATM   16  S   UNL     1     -18.237  -9.899  -3.038  1.00  0.00    -0.052 SA
HETATM   17  C   UNL     1     -20.107  -8.086  -1.994  1.00  0.00     0.021 A 
HETATM   18  C   UNL     1     -21.143  -7.197  -2.259  1.00  0.00     0.004 A 
HETATM   19  C   UNL     1     -21.568  -6.976  -3.564  1.00  0.00     0.040 A 
BRANCH  14  20
HETATM   20  N   UNL     1     -17.601 -11.033  -5.390  1.00  0.00    -0.307 N 
HETATM   21  C   UNL     1     -17.903 -11.576  -6.621  1.00  0.00     0.219 C 
HETATM   22  C   UNL     1     -16.867 -12.568  -7.083  1.00  0.00     0.117 C 
HETATM   23  O   UNL     1     -18.874 -11.329  -7.328  1.00  0.00    -0.274 OA
HETATM   24  H   UNL     1     -16.669 -11.134  -5.013  1.00  0.00     0.171 HD
ENDBRANCH  14  20
ENDBRANCH   9  10
ENDBRANCH   1   9
BRANCH   3  25
HETATM   25  C   UNL     1     -21.784  -4.351  -9.680  1.00  0.00    -0.009 A 
HETATM   26  C   UNL     1     -23.150  -4.038  -9.813  1.00  0.00     0.014 A 
HETATM   27  C   UNL     1     -23.680  -3.603 -11.036  1.00  0.00     0.017 A 
HETATM   28  C   UNL     1     -22.862  -3.465 -12.165  1.00  0.00     0.048 A 
HETATM   29  C   UNL     1     -21.501  -3.761 -12.042  1.00  0.00     0.017 A 
HETATM   30  C   UNL     1     -20.974  -4.193 -10.821  1.00  0.00     0.014 A 
BRANCH  28  31
HETATM   31  C   UNL     1     -23.424  -3.004 -13.487  1.00  0.00     0.417 C 
HETATM   32  F   UNL     1     -24.323  -1.986 -13.373  1.00  0.00    -0.166 F 
HETATM   33  F   UNL     1     -22.460  -2.555 -14.338  1.00  0.00    -0.166 F 
HETATM   34  F   UNL     1     -24.075  -3.999 -14.151  1.00  0.00    -0.166 F 
ENDBRANCH  28  31
ENDBRANCH   3  25
TORSDOF 5
BEGIN_RES ARG D 557
REMARK  4 active torsions:
REMARK  status: ('A' for Active; 'I' for Inactive)
REMARK    1  A    between atoms: CA   and  CB  
REMARK    2  A    between atoms: CB   and  CG  
REMARK    3  A    between atoms: CG   and  CD  
REMARK    4  A    between atoms: CD   and  NE  
REMARK       I    between atoms: NE   and  CZ  
REMARK       I    between atoms: CZ   and  NH1 
REMARK       I    between atoms: CZ   and  NH2 
ROOT
ATOM      1  CA  ARG D 557     -26.217   2.705 -17.014  1.00 35.49     0.159 C 
ENDROOT
BRANCH   1   2
ATOM      2  CB  ARG D 557     -26.789   1.319 -17.183  1.00 35.49     0.034 C 
BRANCH   2   3
ATOM      3  CG  ARG D 557     -28.230   1.165 -16.946  1.00 35.49     0.027 C 
BRANCH   3   4
ATOM      4  CD  ARG D 557     -28.644  -0.255 -16.889  1.00 35.49     0.116 C 
BRANCH   4   5
ATOM      5  NE  ARG D 557     -27.695  -1.069 -16.176  1.00 35.49    -0.212 N 
ATOM      6  CZ  ARG D 557     -27.598  -2.378 -16.248  1.00 35.49     0.666 C 
ATOM      7  NH1 ARG D 557     -28.401  -3.108 -16.999  1.00 35.49    -0.235 N 
ATOM      8  NH2 ARG D 557     -26.662  -2.950 -15.547  1.00 35.49    -0.235 N 
ATOM      9  HH  ARG D 557     -29.023  -2.752 -17.470  1.00 35.49     0.174 HD
ATOM     10  HH  ARG D 557     -28.289  -3.957 -17.008  1.00 35.49     0.174 HD
ATOM     11  HH  ARG D 557     -26.154  -2.452 -15.077  1.00 35.49     0.174 HD
ATOM     12  HH  ARG D 557     -26.567  -3.792 -15.570  1.00 35.49     0.174 HD
ATOM     13  HE  ARG D 557     -27.185  -0.687 -15.613  1.00 35.49     0.178 HD
ENDBRANCH   4   5
ENDBRANCH   3   4
ENDBRANCH   2   3
ENDBRANCH   1   2
END_RES ARG D 557
BEGIN_RES GLU D 570
REMARK  3 active torsions:
REMARK  status: ('A' for Active; 'I' for Inactive)
REMARK    5  A    between atoms: CA   and  CB  
REMARK    6  A    between atoms: CB   and  CG  
REMARK    7  A    between atoms: CG   and  CD  
ROOT
ATOM     14  CA  GLU D 570     -18.033  -6.348 -13.375  1.00 32.92     0.160 C 
ENDROOT
BRANCH  14  15
ATOM     15  CB  GLU D 570     -19.500  -6.345 -13.794  1.00 32.92     0.043 C 
BRANCH  15  16
ATOM     16  CG  GLU D 570     -19.809  -5.986 -15.202  1.00 32.92     0.100 C 
BRANCH  16  17
ATOM     17  CD  GLU D 570     -21.272  -5.683 -15.426  1.00 32.92     0.185 C 
ATOM     18  OE1 GLU D 570     -21.591  -4.835 -16.281  1.00 32.92    -0.647 OA
ATOM     19  OE2 GLU D 570     -22.108  -6.287 -14.726  1.00 32.92    -0.647 OA
ENDBRANCH  16  17
ENDBRANCH  15  16
ENDBRANCH  14  15
END_RES GLU D 570
ENDMDL
MODEL 7
REMARK VINA RESULT:     -10.0      7.802     11.323
REMARK  5 active torsions:
REMARK  status: ('A' for Active; 'I' for Inactive)
REMARK       I    between atoms: C_2  and  N_4 
REMARK    1  A    between atoms: N_4  and  C_5 
REMARK    2  A    between atoms: C_9  and  O_10 
REMARK    3  A    between atoms: O_10  and  C_11 
REMARK    4  A    between atoms: C_13  and  C_14 
REMARK    5  A    between atoms: C_17  and  C_18 
ROOT
HETATM    1  C   UNL     1     -21.348  -8.416  -1.672  1.00  0.00     0.151 A 
HETATM    2  C   UNL     1     -21.031  -8.023  -2.956  1.00  0.00     0.086 A 
HETATM    3  C   UNL     1     -21.405  -6.741  -3.310  1.00  0.00     0.047 A 
HETATM    4  N   UNL     1     -22.053  -5.928  -2.445  1.00  0.00    -0.352 N 
ATOM      5  HN  UNL     1     -22.309  -4.973  -2.700  1.00  0.00     0.166 HD
HETATM    6  C   UNL     1     -22.345  -6.432  -1.239  1.00  0.00     0.182 A 
HETATM    7  N   UNL     1     -22.032  -7.654  -0.804  1.00  0.00    -0.333 N 
ATOM      8  HN  UNL     1     -22.294  -7.985   0.125  1.00  0.00     0.168 HD
ENDROOT
BRANCH   1   9
HETATM    9  O   UNL     1     -20.918  -9.682  -1.286  1.00  0.00    -0.291 OA
BRANCH   9  10
HETATM   10  C   UNL     1     -21.853 -10.703  -1.245  1.00  0.00     0.105 A 
HETATM   11  C   UNL     1     -21.833 -11.694  -2.260  1.00  0.00     0.085 A 
HETATM   12  N   UNL     1     -20.974 -11.765  -3.361  1.00  0.00    -0.333 N 
HETATM   13  C   UNL     1     -22.772 -12.727  -2.194  1.00  0.00     0.038 A 
HETATM   14  C   UNL     1     -21.336 -12.758  -4.139  1.00  0.00     0.152 A 
ATOM     15  HN  UNL     1     -20.186 -11.140  -3.534  1.00  0.00     0.168 HD
HETATM   16  S   UNL     1     -22.564 -13.768  -3.541  1.00  0.00    -0.052 SA
HETATM   17  C   UNL     1     -23.717 -12.832  -1.162  1.00  0.00     0.021 A 
HETATM   18  C   UNL     1     -23.708 -11.863  -0.163  1.00  0.00     0.004 A 
HETATM   19  C   UNL     1     -22.780 -10.830  -0.190  1.00  0.00     0.040 A 
BRANCH  14  20
HETATM   20  N   UNL     1     -20.717 -13.009  -5.341  1.00  0.00    -0.307 N 
HETATM   21  C   UNL     1     -20.597 -12.108  -6.377  1.00  0.00     0.219 C 
HETATM   22  C   UNL     1     -19.885 -12.691  -7.569  1.00  0.00     0.117 C 
HETATM   23  O   UNL     1     -20.988 -10.945  -6.404  1.00  0.00    -0.274 OA
HETATM   24  H   UNL     1     -20.158 -13.851  -5.342  1.00  0.00     0.171 HD
ENDBRANCH  14  20
ENDBRANCH   9  10
ENDBRANCH   1   9
BRANCH   3  25
HETATM   25  C   UNL     1     -21.099  -6.148  -4.630  1.00  0.00    -0.009 A 
HETATM   26  C   UNL     1     -20.283  -5.009  -4.767  1.00  0.00     0.014 A 
HETATM   27  C   UNL     1     -20.017  -4.453  -6.026  1.00  0.00     0.017 A 
HETATM   28  C   UNL     1     -20.555  -5.018  -7.189  1.00  0.00     0.048 A 
HETATM   29  C   UNL     1     -21.356  -6.158  -7.069  1.00  0.00     0.017 A 
HETATM   30  C   UNL     1     -21.619  -6.712  -5.811  1.00  0.00     0.014 A 
BRANCH  28  31
HETATM   31  C   UNL     1     -20.278  -4.423  -8.548  1.00  0.00     0.417 C 
HETATM   32  F   UNL     1     -19.759  -5.314  -9.439  1.00  0.00    -0.166 F 
HETATM   33  F   UNL     1     -21.398  -3.918  -9.137  1.00  0.00    -0.166 F 
HETATM   34  F   UNL     1     -19.388  -3.393  -8.493  1.00  0.00    -0.166 F 
ENDBRANCH  28  31
ENDBRANCH   3  25
TORSDOF 5
BEGIN_RES ARG D 557
REMARK  4 active torsions:
REMARK  status: ('A' for Active; 'I' for Inactive)
REMARK    1  A    between atoms: CA   and  CB  
REMARK    2  A    between atoms: CB   and  CG  
REMARK    3  A    between atoms: CG   and  CD  
REMARK    4  A    between atoms: CD   and  NE  
REMARK       I    between atoms: NE   and  CZ  
REMARK       I    between atoms: CZ   and  NH1 
REMARK       I    between atoms: CZ   and  NH2 
ROOT
ATOM      1  CA  ARG D 557     -26.217   2.705 -17.014  1.00 35.49     0.159 C 
ENDROOT
BRANCH   1   2
ATOM      2  CB  ARG D 557     -26.789   1.319 -17.183  1.00 35.49     0.034 C 
BRANCH   2   3
ATOM      3  CG  ARG D 557     -25.835   0.203 -17.158  1.00 35.49     0.027 C 
BRANCH   3   4
ATOM      4  CD  ARG D 557     -24.760   0.402 -16.160  1.00 35.49     0.116 C 
BRANCH   4   5
ATOM      5  NE  ARG D 557     -24.922  -0.447 -15.010  1.00 35.49    -0.212 N 
ATOM      6  CZ  ARG D 557     -24.119  -1.427 -14.659  1.00 35.49     0.666 C 
ATOM      7  NH1 ARG D 557     -23.048  -1.751 -15.360  1.00 35.49    -0.235 N 
ATOM      8  NH2 ARG D 557     -24.409  -2.080 -13.572  1.00 35.49    -0.235 N 
ATOM      9  HH  ARG D 557     -22.837  -1.333 -16.077  1.00 35.49     0.174 HD
ATOM     10  HH  ARG D 557     -22.560  -2.398 -15.080  1.00 35.49     0.174 HD
ATOM     11  HH  ARG D 557     -25.103  -1.844 -13.136  1.00 35.49     0.174 HD
ATOM     12  HH  ARG D 557     -23.913  -2.716 -13.311  1.00 35.49     0.174 HD
ATOM     13  HE  ARG D 557     -25.626  -0.355 -14.542  1.00 35.49     0.178 HD
ENDBRANCH   4   5
ENDBRANCH   3   4
ENDBRANCH   2   3
ENDBRANCH   1   2
END_RES ARG D 557
BEGIN_RES GLU D 570
REMARK  3 active torsions:
REMARK  status: ('A' for Active; 'I' for Inactive)
REMARK    5  A    between atoms: CA   and  CB  
REMARK    6  A    between atoms: CB   and  CG  
REMARK    7  A    between atoms: CG   and  CD  
ROOT
ATOM     14  CA  GLU D 570     -18.033  -6.348 -13.375  1.00 32.92     0.160 C 
ENDROOT
BRANCH  14  15
ATOM     15  CB  GLU D 570     -19.500  -6.345 -13.794  1.00 32.92     0.043 C 
BRANCH  15  16
ATOM     16  CG  GLU D 570     -20.441  -5.527 -12.986  1.00 32.92     0.100 C 
BRANCH  16  17
ATOM     17  CD  GLU D 570     -21.730  -5.221 -13.713  1.00 32.92     0.185 C 
ATOM     18  OE1 GLU D 570     -22.155  -6.032 -14.558  1.00 32.92    -0.647 OA
ATOM     19  OE2 GLU D 570     -22.311  -4.150 -13.447  1.00 32.92    -0.647 OA
ENDBRANCH  16  17
ENDBRANCH  15  16
ENDBRANCH  14  15
END_RES GLU D 570
ENDMDL
MODEL 8
REMARK VINA RESULT:      -9.7      5.612      9.234
REMARK  5 active torsions:
REMARK  status: ('A' for Active; 'I' for Inactive)
REMARK       I    between atoms: C_2  and  N_4 
REMARK    1  A    between atoms: N_4  and  C_5 
REMARK    2  A    between atoms: C_9  and  O_10 
REMARK    3  A    between atoms: O_10  and  C_11 
REMARK    4  A    between atoms: C_13  and  C_14 
REMARK    5  A    between atoms: C_17  and  C_18 
ROOT
HETATM    1  C   UNL     1     -33.786  -4.107 -15.591  1.00  0.00     0.151 A 
HETATM    2  C   UNL     1     -32.535  -4.683 -15.500  1.00  0.00     0.086 A 
HETATM    3  C   UNL     1     -31.648  -4.374 -16.514  1.00  0.00     0.047 A 
HETATM    4  N   UNL     1     -31.997  -3.561 -17.537  1.00  0.00    -0.352 N 
ATOM      5  HN  UNL     1     -31.333  -3.316 -18.273  1.00  0.00     0.166 HD
HETATM    6  C   UNL     1     -33.252  -3.093 -17.542  1.00  0.00     0.182 A 
HETATM    7  N   UNL     1     -34.181  -3.335 -16.616  1.00  0.00    -0.333 N 
ATOM      8  HN  UNL     1     -35.127  -2.958 -16.682  1.00  0.00     0.168 HD
ENDROOT
BRANCH   1   9
HETATM    9  O   UNL     1     -34.663  -4.361 -14.541  1.00  0.00    -0.291 OA
BRANCH   9  10
HETATM   10  C   UNL     1     -34.394  -3.778 -13.314  1.00  0.00     0.105 A 
HETATM   11  C   UNL     1     -34.715  -2.410 -13.119  1.00  0.00     0.085 A 
HETATM   12  N   UNL     1     -35.264  -1.524 -14.052  1.00  0.00    -0.333 N 
HETATM   13  C   UNL     1     -34.455  -1.841 -11.868  1.00  0.00     0.038 A 
HETATM   14  C   UNL     1     -35.308  -0.317 -13.540  1.00  0.00     0.152 A 
ATOM     15  HN  UNL     1     -35.581  -1.778 -14.988  1.00  0.00     0.168 HD
HETATM   16  S   UNL     1     -34.895  -0.184 -11.898  1.00  0.00    -0.052 SA
HETATM   17  C   UNL     1     -33.908  -2.569 -10.800  1.00  0.00     0.021 A 
HETATM   18  C   UNL     1     -33.621  -3.915 -11.003  1.00  0.00     0.004 A 
HETATM   19  C   UNL     1     -33.880  -4.516 -12.228  1.00  0.00     0.040 A 
BRANCH  14  20
HETATM   20  N   UNL     1     -35.726   0.771 -14.269  1.00  0.00    -0.307 N 
HETATM   21  C   UNL     1     -36.015   0.762 -15.618  1.00  0.00     0.219 C 
HETATM   22  C   UNL     1     -36.426   2.117 -16.129  1.00  0.00     0.117 C 
HETATM   23  O   UNL     1     -35.977  -0.197 -16.382  1.00  0.00    -0.274 OA
HETATM   24  H   UNL     1     -36.015   1.555 -13.701  1.00  0.00     0.171 HD
ENDBRANCH  14  20
ENDBRANCH   9  10
ENDBRANCH   1   9
BRANCH   3  25
HETATM   25  C   UNL     1     -30.254  -4.870 -16.543  1.00  0.00    -0.009 A 
HETATM   26  C   UNL     1     -29.434  -4.726 -17.678  1.00  0.00     0.014 A 
HETATM   27  C   UNL     1     -28.121  -5.216 -17.692  1.00  0.00     0.017 A 
HETATM   28  C   UNL     1     -27.584  -5.863 -16.573  1.00  0.00     0.048 A 
HETATM   29  C   UNL     1     -28.383  -6.001 -15.434  1.00  0.00     0.017 A 
HETATM   30  C   UNL     1     -29.693  -5.510 -15.422  1.00  0.00     0.014 A 
BRANCH  28  31
HETATM   31  C   UNL     1     -26.173  -6.399 -16.580  1.00  0.00     0.417 C 
HETATM   32  F   UNL     1     -25.293  -5.629 -15.881  1.00  0.00    -0.166 F 
HETATM   33  F   UNL     1     -26.083  -7.647 -16.043  1.00  0.00    -0.166 F 
HETATM   34  F   UNL     1     -25.661  -6.496 -17.839  1.00  0.00    -0.166 F 
ENDBRANCH  28  31
ENDBRANCH   3  25
TORSDOF 5
BEGIN_RES ARG D 557
REMARK  4 active torsions:
REMARK  status: ('A' for Active; 'I' for Inactive)
REMARK    1  A    between atoms: CA   and  CB  
REMARK    2  A    between atoms: CB   and  CG  
REMARK    3  A    between atoms: CG   and  CD  
REMARK    4  A    between atoms: CD   and  NE  
REMARK       I    between atoms: NE   and  CZ  
REMARK       I    between atoms: CZ   and  NH1 
REMARK       I    between atoms: CZ   and  NH2 
ROOT
ATOM      1  CA  ARG D 557     -26.217   2.705 -17.014  1.00 35.49     0.159 C 
ENDROOT
BRANCH   1   2
ATOM      2  CB  ARG D 557     -26.789   1.319 -17.183  1.00 35.49     0.034 C 
BRANCH   2   3
ATOM      3  CG  ARG D 557     -25.837   0.202 -17.147  1.00 35.49     0.027 C 
BRANCH   3   4
ATOM      4  CD  ARG D 557     -24.759   0.411 -16.154  1.00 35.49     0.116 C 
BRANCH   4   5
ATOM      5  NE  ARG D 557     -24.906  -0.445 -15.006  1.00 35.49    -0.212 N 
ATOM      6  CZ  ARG D 557     -24.090  -1.417 -14.664  1.00 35.49     0.666 C 
ATOM      7  NH1 ARG D 557     -23.020  -1.728 -15.372  1.00 35.49    -0.235 N 
ATOM      8  NH2 ARG D 557     -24.367  -2.078 -13.578  1.00 35.49    -0.235 N 
ATOM      9  HH  ARG D 557     -22.818  -1.305 -16.089  1.00 35.49     0.174 HD
ATOM     10  HH  ARG D 557     -22.524  -2.370 -15.099  1.00 35.49     0.174 HD
ATOM     11  HH  ARG D 557     -25.060  -1.850 -13.136  1.00 35.49     0.174 HD
ATOM     12  HH  ARG D 557     -23.862  -2.709 -13.322  1.00 35.49     0.174 HD
ATOM     13  HE  ARG D 557     -25.608  -0.362 -14.533  1.00 35.49     0.178 HD
ENDBRANCH   4   5
ENDBRANCH   3   4
ENDBRANCH   2   3
ENDBRANCH   1   2
END_RES ARG D 557
BEGIN_RES GLU D 570
REMARK  3 active torsions:
REMARK  status: ('A' for Active; 'I' for Inactive)
REMARK    5  A    between atoms: CA   and  CB  
REMARK    6  A    between atoms: CB   and  CG  
REMARK    7  A    between atoms: CG   and  CD  
ROOT
ATOM     14  CA  GLU D 570     -18.033  -6.348 -13.375  1.00 32.92     0.160 C 
ENDROOT
BRANCH  14  15
ATOM     15  CB  GLU D 570     -19.500  -6.345 -13.794  1.00 32.92     0.043 C 
BRANCH  15  16
ATOM     16  CG  GLU D 570     -20.442  -5.530 -12.983  1.00 32.92     0.100 C 
BRANCH  16  17
ATOM     17  CD  GLU D 570     -21.727  -5.215 -13.713  1.00 32.92     0.185 C 
ATOM     18  OE1 GLU D 570     -22.301  -4.132 -13.487  1.00 32.92    -0.647 OA
ATOM     19  OE2 GLU D 570     -22.172  -6.066 -14.507  1.00 32.92    -0.647 OA
ENDBRANCH  16  17
ENDBRANCH  15  16
ENDBRANCH  14  15
END_RES GLU D 570
ENDMDL
MODEL 9
REMARK VINA RESULT:      -9.5      7.706     11.167
REMARK  5 active torsions:
REMARK  status: ('A' for Active; 'I' for Inactive)
REMARK       I    between atoms: C_2  and  N_4 
REMARK    1  A    between atoms: N_4  and  C_5 
REMARK    2  A    between atoms: C_9  and  O_10 
REMARK    3  A    between atoms: O_10  and  C_11 
REMARK    4  A    between atoms: C_13  and  C_14 
REMARK    5  A    between atoms: C_17  and  C_18 
ROOT
HETATM    1  C   UNL     1     -21.358  -8.430  -1.667  1.00  0.00     0.151 A 
HETATM    2  C   UNL     1     -21.065  -8.040  -2.957  1.00  0.00     0.086 A 
HETATM    3  C   UNL     1     -21.441  -6.756  -3.305  1.00  0.00     0.047 A 
HETATM    4  N   UNL     1     -22.068  -5.939  -2.428  1.00  0.00    -0.352 N 
ATOM      5  HN  UNL     1     -22.325  -4.984  -2.679  1.00  0.00     0.166 HD
HETATM    6  C   UNL     1     -22.338  -6.441  -1.216  1.00  0.00     0.182 A 
HETATM    7  N   UNL     1     -22.021  -7.664  -0.786  1.00  0.00    -0.333 N 
ATOM      8  HN  UNL     1     -22.266  -7.993   0.148  1.00  0.00     0.168 HD
ENDROOT
BRANCH   1   9
HETATM    9  O   UNL     1     -20.925  -9.697  -1.288  1.00  0.00    -0.291 OA
BRANCH   9  10
HETATM   10  C   UNL     1     -21.861 -10.718  -1.246  1.00  0.00     0.105 A 
HETATM   11  C   UNL     1     -21.847 -11.705  -2.265  1.00  0.00     0.085 A 
HETATM   12  N   UNL     1     -20.996 -11.770  -3.372  1.00  0.00    -0.333 N 
HETATM   13  C   UNL     1     -22.786 -12.739  -2.197  1.00  0.00     0.038 A 
HETATM   14  C   UNL     1     -21.363 -12.760  -4.152  1.00  0.00     0.152 A 
ATOM     15  HN  UNL     1     -20.209 -11.145  -3.547  1.00  0.00     0.168 HD
HETATM   16  S   UNL     1     -22.586 -13.773  -3.550  1.00  0.00    -0.052 SA
HETATM   17  C   UNL     1     -23.723 -12.848  -1.159  1.00  0.00     0.021 A 
HETATM   18  C   UNL     1     -23.708 -11.884  -0.156  1.00  0.00     0.004 A 
HETATM   19  C   UNL     1     -22.780 -10.850  -0.184  1.00  0.00     0.040 A 
BRANCH  14  20
HETATM   20  N   UNL     1     -20.751 -13.006  -5.359  1.00  0.00    -0.307 N 
HETATM   21  C   UNL     1     -20.664 -12.109  -6.403  1.00  0.00     0.219 C 
HETATM   22  C   UNL     1     -19.953 -12.684  -7.599  1.00  0.00     0.117 C 
HETATM   23  O   UNL     1     -21.081 -10.956  -6.433  1.00  0.00    -0.274 OA
HETATM   24  H   UNL     1     -20.174 -13.835  -5.361  1.00  0.00     0.171 HD
ENDBRANCH  14  20
ENDBRANCH   9  10
ENDBRANCH   1   9
BRANCH   3  25
HETATM   25  C   UNL     1     -21.159  -6.166  -4.632  1.00  0.00    -0.009 A 
HETATM   26  C   UNL     1     -21.726  -6.681  -5.813  1.00  0.00     0.014 A 
HETATM   27  C   UNL     1     -21.435  -6.118  -7.064  1.00  0.00     0.017 A 
HETATM   28  C   UNL     1     -20.570  -5.022  -7.175  1.00  0.00     0.048 A 
HETATM   29  C   UNL     1     -20.011  -4.493  -6.008  1.00  0.00     0.017 A 
HETATM   30  C   UNL     1     -20.304  -5.055  -4.761  1.00  0.00     0.014 A 
BRANCH  28  31
HETATM   31  C   UNL     1     -20.247  -4.413  -8.517  1.00  0.00     0.417 C 
HETATM   32  F   UNL     1     -19.372  -3.371  -8.447  1.00  0.00    -0.166 F 
HETATM   33  F   UNL     1     -19.689  -5.308  -9.379  1.00  0.00    -0.166 F 
HETATM   34  F   UNL     1     -21.352  -3.926  -9.147  1.00  0.00    -0.166 F 
ENDBRANCH  28  31
ENDBRANCH   3  25
TORSDOF 5
BEGIN_RES ARG D 557
REMARK  4 active torsions:
REMARK  status: ('A' for Active; 'I' for Inactive)
REMARK    1  A    between atoms: CA   and  CB  
REMARK    2  A    between atoms: CB   and  CG  
REMARK    3  A    between atoms: CG   and  CD  
REMARK    4  A    between atoms: CD   and  NE  
REMARK       I    between atoms: NE   and  CZ  
REMARK       I    between atoms: CZ   and  NH1 
REMARK       I    between atoms: CZ   and  NH2 
ROOT
ATOM      1  CA  ARG D 557     -26.217   2.705 -17.014  1.00 35.49     0.159 C 
ENDROOT
BRANCH   1   2
ATOM      2  CB  ARG D 557     -26.789   1.319 -17.183  1.00 35.49     0.034 C 
BRANCH   2   3
ATOM      3  CG  ARG D 557     -28.232   1.226 -17.438  1.00 35.49     0.027 C 
BRANCH   3   4
ATOM      4  CD  ARG D 557     -28.912   0.302 -16.502  1.00 35.49     0.116 C 
BRANCH   4   5
ATOM      5  NE  ARG D 557     -29.314  -0.921 -17.145  1.00 35.49    -0.212 N 
ATOM      6  CZ  ARG D 557     -28.699  -2.079 -17.049  1.00 35.49     0.666 C 
ATOM      7  NH1 ARG D 557     -27.599  -2.240 -16.338  1.00 35.49    -0.235 N 
ATOM      8  NH2 ARG D 557     -29.218  -3.089 -17.684  1.00 35.49    -0.235 N 
ATOM      9  HH  ARG D 557     -27.241  -1.589 -15.910  1.00 35.49     0.174 HD
ATOM     10  HH  ARG D 557     -27.242  -3.018 -16.310  1.00 35.49     0.174 HD
ATOM     11  HH  ARG D 557     -29.933  -2.957 -18.130  1.00 35.49     0.174 HD
ATOM     12  HH  ARG D 557     -28.851  -3.852 -17.643  1.00 35.49     0.174 HD
ATOM     13  HE  ARG D 557     -29.973  -0.892 -17.682  1.00 35.49     0.178 HD
ENDBRANCH   4   5
ENDBRANCH   3   4
ENDBRANCH   2   3
ENDBRANCH   1   2
END_RES ARG D 557
BEGIN_RES GLU D 570
REMARK  3 active torsions:
REMARK  status: ('A' for Active; 'I' for Inactive)
REMARK    5  A    between atoms: CA   and  CB  
REMARK    6  A    between atoms: CB   and  CG  
REMARK    7  A    between atoms: CG   and  CD  
ROOT
ATOM     14  CA  GLU D 570     -18.033  -6.348 -13.375  1.00 32.92     0.160 C 
ENDROOT
BRANCH  14  15
ATOM     15  CB  GLU D 570     -19.500  -6.345 -13.794  1.00 32.92     0.043 C 
BRANCH  15  16
ATOM     16  CG  GLU D 570     -19.805  -6.620 -15.222  1.00 32.92     0.100 C 
BRANCH  16  17
ATOM     17  CD  GLU D 570     -20.808  -5.654 -15.807  1.00 32.92     0.185 C 
ATOM     18  OE1 GLU D 570     -20.799  -5.441 -17.035  1.00 32.92    -0.647 OA
ATOM     19  OE2 GLU D 570     -21.601  -5.090 -15.027  1.00 32.92    -0.647 OA
ENDBRANCH  16  17
ENDBRANCH  15  16
ENDBRANCH  14  15
END_RES GLU D 570
ENDMDL
