REMARK  22 active torsions:
REMARK  status: ('A' for Active; 'I' for Inactive)
REMARK    1  A    between atoms: C_2  and  C_3 
REMARK    2  A    between atoms: C_3  and  C_4 
REMARK    3  A    between atoms: C_4  and  C_5 
REMARK    4  A    between atoms: C_5  and  C_6 
REMARK    5  A    between atoms: C_6  and  C_7 
REMARK    6  A    between atoms: C_7  and  C_8 
REMARK    7  A    between atoms: C_7  and  C_31 
REMARK    8  A    between atoms: C_8  and  C_9 
REMARK    9  A    between atoms: C_10  and  C_11 
REMARK   10  A    between atoms: C_11  and  C_12 
REMARK   11  A    between atoms: C_12  and  C_13 
REMARK   12  A    between atoms: C_13  and  C_14 
REMARK   13  A    between atoms: C_14  and  C_15 
REMARK   14  A    between atoms: C_15  and  C_16 
REMARK   15  A    between atoms: C_16  and  C_17 
REMARK   16  A    between atoms: C_17  and  C_18 
REMARK       I    between atoms: C_18  and  N_20 
REMARK   17  A    between atoms: N_20  and  C_21 
REMARK   18  A    between atoms: C_21  and  C_22 
REMARK   19  A    between atoms: C_25  and  O_26 
REMARK   20  A    between atoms: C_27  and  O_28 
REMARK   21  A    between atoms: C_31  and  C_33 
REMARK   22  A    between atoms: C_33  and  C_34 
ROOT
HETATM    1  C   UNL     1       2.327   0.449   5.437  1.00  0.00     0.004 C 
ENDROOT
BRANCH   1   2
HETATM    2  C   UNL     1       2.958   1.793   5.811  1.00  0.00     0.027 C 
BRANCH   2   3
HETATM    3  C   UNL     1       4.449   1.693   5.734  1.00  0.00    -0.031 C 
HETATM    4  C   UNL     1       5.162   2.451   4.890  1.00  0.00    -0.030 C 
BRANCH   4   5
HETATM    5  C   UNL     1       6.619   2.247   4.610  1.00  0.00     0.039 C 
BRANCH   5   6
HETATM    6  C   UNL     1       6.865   1.873   3.133  1.00  0.00     0.059 C 
BRANCH   6   7
HETATM    7  C   UNL     1       6.533   3.021   2.148  1.00  0.00     0.012 C 
BRANCH   7   8
HETATM    8  C   UNL     1       7.177   4.375   2.446  1.00  0.00     0.001 C 
BRANCH   8   9
HETATM    9  C   UNL     1       8.704   4.343   2.405  1.00  0.00     0.000 C 
BRANCH   9  10
HETATM   10  C   UNL     1       9.266   5.726   2.729  1.00  0.00    -0.000 C 
BRANCH  10  11
HETATM   11  C   UNL     1      10.791   5.746   2.672  1.00  0.00    -0.005 C 
HETATM   12  C   UNL     1      11.323   7.132   3.002  1.00  0.00     0.005 C 
ENDBRANCH  10  11
ENDBRANCH   9  10
ENDBRANCH   8   9
ENDBRANCH   7   8
ENDBRANCH   6   7
BRANCH   6  13
HETATM   13  C   UNL     1       6.058   0.620   2.734  1.00  0.00     0.135 C 
HETATM   14  O   UNL     1       5.266   0.630   1.785  1.00  0.00    -0.297 OA
BRANCH  13  15
HETATM   15  C   UNL     1       6.308  -0.669   3.490  1.00  0.00     0.117 C 
BRANCH  15  16
HETATM   16  C   UNL     1       7.438  -1.479   2.918  1.00  0.00    -0.051 A 
HETATM   17  C   UNL     1       8.566  -1.779   3.696  1.00  0.00     0.007 A 
HETATM   18  C   UNL     1       9.583  -2.575   3.174  1.00  0.00     0.001 A 
HETATM   19  C   UNL     1       9.479  -3.076   1.878  1.00  0.00     0.000 A 
HETATM   20  C   UNL     1       8.372  -2.775   1.091  1.00  0.00     0.001 A 
HETATM   21  C   UNL     1       7.354  -1.979   1.610  1.00  0.00     0.007 A 
ENDBRANCH  15  16
ENDBRANCH  13  15
ENDBRANCH   6  13
ENDBRANCH   5   6
ENDBRANCH   4   5
ENDBRANCH   2   3
ENDBRANCH   1   2
BRANCH   1  22
HETATM   22  C   UNL     1       0.804   0.506   5.455  1.00  0.00     0.000 C 
BRANCH  22  23
HETATM   23  C   UNL     1       0.225   1.464   4.408  1.00  0.00     0.000 C 
BRANCH  23  24
HETATM   24  C   UNL     1      -1.295   1.566   4.485  1.00  0.00     0.000 C 
BRANCH  24  25
HETATM   25  C   UNL     1      -1.751   2.093   5.846  1.00  0.00     0.009 C 
BRANCH  25  26
HETATM   26  C   UNL     1      -3.258   2.226   5.912  1.00  0.00     0.103 C 
BRANCH  26  27
HETATM   27  C   UNL     1      -3.717   2.691   7.281  1.00  0.00     0.217 C 
HETATM   28  O   UNL     1      -2.955   2.992   8.193  1.00  0.00    -0.274 OA
HETATM   29  N   UNL     1      -5.063   2.764   7.488  1.00  0.00    -0.357 N 
HETATM   30  H   UNL     1      -5.308   3.144   8.395  1.00  0.00     0.162 HD
BRANCH  29  31
HETATM   31  C   UNL     1      -6.110   2.560   6.511  1.00  0.00     0.161 C 
BRANCH  31  32
HETATM   32  C   UNL     1      -6.331   3.792   5.673  1.00  0.00    -0.038 A 
HETATM   33  C   UNL     1      -6.778   4.974   6.276  1.00  0.00     0.012 A 
HETATM   34  C   UNL     1      -6.994   6.153   5.584  1.00  0.00     0.040 A 
HETATM   35  C   UNL     1      -6.720   6.129   4.215  1.00  0.00     0.099 A 
HETATM   36  C   UNL     1      -6.268   4.959   3.562  1.00  0.00     0.101 A 
HETATM   37  C   UNL     1      -6.086   3.791   4.301  1.00  0.00     0.048 A 
BRANCH  35  38
HETATM   38  O   UNL     1      -6.875   7.233   3.430  1.00  0.00    -0.358 OA
HETATM   39  H   UNL     1      -7.182   8.034   3.811  1.00  0.00     0.217 HD
ENDBRANCH  35  38
BRANCH  36  40
HETATM   40  O   UNL     1      -6.038   5.058   2.212  1.00  0.00    -0.353 OA
HETATM   41  C   UNL     1      -5.573   3.896   1.538  1.00  0.00     0.210 C 
ENDBRANCH  36  40
ENDBRANCH  31  32
ENDBRANCH  29  31
ENDBRANCH  26  27
ENDBRANCH  25  26
ENDBRANCH  24  25
ENDBRANCH  23  24
ENDBRANCH  22  23
ENDBRANCH   1  22
TORSDOF 22
