MODEL 1
REMARK VINA RESULT:      -8.1      0.000      0.000
REMARK  22 active torsions:
REMARK  status: ('A' for Active; 'I' for Inactive)
REMARK    1  A    between atoms: C_2  and  C_3 
REMARK    2  A    between atoms: C_3  and  C_4 
REMARK    3  A    between atoms: C_4  and  C_5 
REMARK    4  A    between atoms: C_5  and  C_6 
REMARK    5  A    between atoms: C_6  and  C_7 
REMARK    6  A    between atoms: C_7  and  C_8 
REMARK    7  A    between atoms: C_7  and  C_31 
REMARK    8  A    between atoms: C_8  and  C_9 
REMARK    9  A    between atoms: C_10  and  C_11 
REMARK   10  A    between atoms: C_11  and  C_12 
REMARK   11  A    between atoms: C_12  and  C_13 
REMARK   12  A    between atoms: C_13  and  C_14 
REMARK   13  A    between atoms: C_14  and  C_15 
REMARK   14  A    between atoms: C_15  and  C_16 
REMARK   15  A    between atoms: C_16  and  C_17 
REMARK   16  A    between atoms: C_17  and  C_18 
REMARK       I    between atoms: C_18  and  N_20 
REMARK   17  A    between atoms: N_20  and  C_21 
REMARK   18  A    between atoms: C_21  and  C_22 
REMARK   19  A    between atoms: C_25  and  O_26 
REMARK   20  A    between atoms: C_27  and  O_28 
REMARK   21  A    between atoms: C_31  and  C_33 
REMARK   22  A    between atoms: C_33  and  C_34 
ROOT
HETATM    1  C   UNL     1     -18.807 -10.116  -2.135  1.00  0.00     0.004 C 
ENDROOT
BRANCH   1   2
HETATM    2  C   UNL     1     -18.562 -11.498  -2.748  1.00  0.00     0.027 C 
BRANCH   2   3
HETATM    3  C   UNL     1     -19.870 -12.153  -3.063  1.00  0.00    -0.031 C 
HETATM    4  C   UNL     1     -20.526 -12.887  -2.153  1.00  0.00    -0.030 C 
BRANCH   4   5
HETATM    5  C   UNL     1     -21.716 -13.740  -2.468  1.00  0.00     0.039 C 
BRANCH   5   6
HETATM    6  C   UNL     1     -22.935 -13.353  -1.605  1.00  0.00     0.059 C 
BRANCH   6   7
HETATM    7  C   UNL     1     -24.173 -14.248  -1.858  1.00  0.00     0.012 C 
BRANCH   7   8
HETATM    8  C   UNL     1     -24.503 -15.269  -0.769  1.00  0.00     0.001 C 
BRANCH   8   9
HETATM    9  C   UNL     1     -23.424 -15.378   0.308  1.00  0.00     0.000 C 
BRANCH   9  10
HETATM   10  C   UNL     1     -24.069 -15.432   1.692  1.00  0.00    -0.000 C 
BRANCH  10  11
HETATM   11  C   UNL     1     -23.552 -14.322   2.602  1.00  0.00    -0.005 C 
HETATM   12  C   UNL     1     -22.239 -13.762   2.075  1.00  0.00     0.005 C 
ENDBRANCH  10  11
ENDBRANCH   9  10
ENDBRANCH   8   9
ENDBRANCH   7   8
ENDBRANCH   6   7
BRANCH   6  13
HETATM   13  C   UNL     1     -23.328 -11.877  -1.827  1.00  0.00     0.135 C 
HETATM   14  O   UNL     1     -23.221 -11.334  -2.932  1.00  0.00    -0.297 OA
BRANCH  13  15
HETATM   15  C   UNL     1     -23.928 -11.109  -0.667  1.00  0.00     0.117 C 
BRANCH  15  16
HETATM   16  C   UNL     1     -22.953 -10.167  -0.017  1.00  0.00    -0.051 A 
HETATM   17  C   UNL     1     -23.312  -8.835   0.242  1.00  0.00     0.007 A 
HETATM   18  C   UNL     1     -22.421  -7.986   0.893  1.00  0.00     0.001 A 
HETATM   19  C   UNL     1     -21.172  -8.459   1.290  1.00  0.00     0.000 A 
HETATM   20  C   UNL     1     -20.799  -9.773   1.028  1.00  0.00     0.001 A 
HETATM   21  C   UNL     1     -21.687 -10.625   0.377  1.00  0.00     0.007 A 
ENDBRANCH  15  16
ENDBRANCH  13  15
ENDBRANCH   6  13
ENDBRANCH   5   6
ENDBRANCH   4   5
ENDBRANCH   2   3
ENDBRANCH   1   2
BRANCH   1  22
HETATM   22  C   UNL     1     -19.886  -9.341  -2.882  1.00  0.00     0.000 C 
BRANCH  22  23
HETATM   23  C   UNL     1     -20.215  -7.991  -2.235  1.00  0.00     0.000 C 
BRANCH  23  24
HETATM   24  C   UNL     1     -21.567  -7.443  -2.680  1.00  0.00     0.000 C 
BRANCH  24  25
HETATM   25  C   UNL     1     -21.403  -6.246  -3.617  1.00  0.00     0.009 C 
BRANCH  25  26
HETATM   26  C   UNL     1     -22.141  -6.458  -4.922  1.00  0.00     0.103 C 
BRANCH  26  27
HETATM   27  C   UNL     1     -21.260  -7.132  -5.957  1.00  0.00     0.217 C 
HETATM   28  O   UNL     1     -21.082  -8.343  -6.021  1.00  0.00    -0.274 OA
HETATM   29  N   UNL     1     -20.634  -6.320  -6.856  1.00  0.00    -0.357 N 
HETATM   30  H   UNL     1     -20.116  -6.829  -7.562  1.00  0.00     0.162 HD
BRANCH  29  31
HETATM   31  C   UNL     1     -20.805  -4.892  -7.011  1.00  0.00     0.161 C 
BRANCH  31  32
HETATM   32  C   UNL     1     -21.066  -4.519  -8.447  1.00  0.00    -0.038 A 
HETATM   33  C   UNL     1     -20.065  -4.708  -9.408  1.00  0.00     0.012 A 
HETATM   34  C   UNL     1     -20.224  -4.406 -10.750  1.00  0.00     0.040 A 
HETATM   35  C   UNL     1     -21.472  -3.908 -11.131  1.00  0.00     0.099 A 
HETATM   36  C   UNL     1     -22.512  -3.700 -10.196  1.00  0.00     0.101 A 
HETATM   37  C   UNL     1     -22.294  -4.001  -8.852  1.00  0.00     0.048 A 
BRANCH  35  38
HETATM   38  O   UNL     1     -21.756  -3.592 -12.426  1.00  0.00    -0.358 OA
HETATM   39  H   UNL     1     -21.055  -3.474 -13.040  1.00  0.00     0.217 HD
ENDBRANCH  35  38
BRANCH  36  40
HETATM   40  O   UNL     1     -23.692  -3.200 -10.690  1.00  0.00    -0.353 OA
HETATM   41  C   UNL     1     -24.855  -3.348  -9.887  1.00  0.00     0.210 C 
ENDBRANCH  36  40
ENDBRANCH  31  32
ENDBRANCH  29  31
ENDBRANCH  26  27
ENDBRANCH  25  26
ENDBRANCH  24  25
ENDBRANCH  23  24
ENDBRANCH  22  23
ENDBRANCH   1  22
TORSDOF 22
ENDMDL
MODEL 2
REMARK VINA RESULT:      -7.9      2.367      4.896
REMARK  22 active torsions:
REMARK  status: ('A' for Active; 'I' for Inactive)
REMARK    1  A    between atoms: C_2  and  C_3 
REMARK    2  A    between atoms: C_3  and  C_4 
REMARK    3  A    between atoms: C_4  and  C_5 
REMARK    4  A    between atoms: C_5  and  C_6 
REMARK    5  A    between atoms: C_6  and  C_7 
REMARK    6  A    between atoms: C_7  and  C_8 
REMARK    7  A    between atoms: C_7  and  C_31 
REMARK    8  A    between atoms: C_8  and  C_9 
REMARK    9  A    between atoms: C_10  and  C_11 
REMARK   10  A    between atoms: C_11  and  C_12 
REMARK   11  A    between atoms: C_12  and  C_13 
REMARK   12  A    between atoms: C_13  and  C_14 
REMARK   13  A    between atoms: C_14  and  C_15 
REMARK   14  A    between atoms: C_15  and  C_16 
REMARK   15  A    between atoms: C_16  and  C_17 
REMARK   16  A    between atoms: C_17  and  C_18 
REMARK       I    between atoms: C_18  and  N_20 
REMARK   17  A    between atoms: N_20  and  C_21 
REMARK   18  A    between atoms: C_21  and  C_22 
REMARK   19  A    between atoms: C_25  and  O_26 
REMARK   20  A    between atoms: C_27  and  O_28 
REMARK   21  A    between atoms: C_31  and  C_33 
REMARK   22  A    between atoms: C_33  and  C_34 
ROOT
HETATM    1  C   UNL     1     -21.825  -7.768  -0.118  1.00  0.00     0.004 C 
ENDROOT
BRANCH   1   2
HETATM    2  C   UNL     1     -22.831  -8.903   0.092  1.00  0.00     0.027 C 
BRANCH   2   3
HETATM    3  C   UNL     1     -22.161 -10.223  -0.131  1.00  0.00    -0.031 C 
HETATM    4  C   UNL     1     -20.973 -10.510   0.417  1.00  0.00    -0.030 C 
BRANCH   4   5
HETATM    5  C   UNL     1     -20.156 -11.713   0.059  1.00  0.00     0.039 C 
BRANCH   5   6
HETATM    6  C   UNL     1     -19.866 -11.772  -1.455  1.00  0.00     0.059 C 
BRANCH   6   7
HETATM    7  C   UNL     1     -20.139 -13.163  -2.077  1.00  0.00     0.012 C 
BRANCH   7   8
HETATM    8  C   UNL     1     -20.653 -13.172  -3.517  1.00  0.00     0.001 C 
BRANCH   8   9
HETATM    9  C   UNL     1     -21.447 -11.920  -3.885  1.00  0.00     0.000 C 
BRANCH   9  10
HETATM   10  C   UNL     1     -21.915 -12.005  -5.337  1.00  0.00    -0.000 C 
BRANCH  10  11
HETATM   11  C   UNL     1     -20.745 -11.933  -6.315  1.00  0.00    -0.005 C 
HETATM   12  C   UNL     1     -20.976 -12.862  -7.497  1.00  0.00     0.005 C 
ENDBRANCH  10  11
ENDBRANCH   9  10
ENDBRANCH   8   9
ENDBRANCH   7   8
ENDBRANCH   6   7
BRANCH   6  13
HETATM   13  C   UNL     1     -18.410 -11.363  -1.760  1.00  0.00     0.135 C 
HETATM   14  O   UNL     1     -17.478 -12.172  -1.691  1.00  0.00    -0.297 OA
BRANCH  13  15
HETATM   15  C   UNL     1     -18.141  -9.946  -2.224  1.00  0.00     0.117 C 
BRANCH  15  16
HETATM   16  C   UNL     1     -17.506  -9.881  -3.585  1.00  0.00    -0.051 A 
HETATM   17  C   UNL     1     -18.299  -9.856  -4.742  1.00  0.00     0.007 A 
HETATM   18  C   UNL     1     -17.702  -9.742  -5.995  1.00  0.00     0.001 A 
HETATM   19  C   UNL     1     -16.316  -9.650  -6.100  1.00  0.00     0.000 A 
HETATM   20  C   UNL     1     -15.517  -9.686  -4.962  1.00  0.00     0.001 A 
HETATM   21  C   UNL     1     -16.111  -9.801  -3.707  1.00  0.00     0.007 A 
ENDBRANCH  15  16
ENDBRANCH  13  15
ENDBRANCH   6  13
ENDBRANCH   5   6
ENDBRANCH   4   5
ENDBRANCH   2   3
ENDBRANCH   1   2
BRANCH   1  22
HETATM   22  C   UNL     1     -22.291  -6.777  -1.178  1.00  0.00     0.000 C 
BRANCH  22  23
HETATM   23  C   UNL     1     -21.330  -6.671  -2.368  1.00  0.00     0.000 C 
BRANCH  23  24
HETATM   24  C   UNL     1     -20.991  -8.031  -2.969  1.00  0.00     0.000 C 
BRANCH  24  25
HETATM   25  C   UNL     1     -21.588  -8.188  -4.368  1.00  0.00     0.009 C 
BRANCH  25  26
HETATM   26  C   UNL     1     -21.158  -7.061  -5.284  1.00  0.00     0.103 C 
BRANCH  26  27
HETATM   27  C   UNL     1     -22.284  -6.072  -5.517  1.00  0.00     0.217 C 
HETATM   28  O   UNL     1     -23.367  -6.119  -4.945  1.00  0.00    -0.274 OA
HETATM   29  N   UNL     1     -22.056  -5.082  -6.428  1.00  0.00    -0.357 N 
HETATM   30  H   UNL     1     -22.816  -4.415  -6.491  1.00  0.00     0.162 HD
BRANCH  29  31
HETATM   31  C   UNL     1     -20.817  -4.796  -7.116  1.00  0.00     0.161 C 
BRANCH  31  32
HETATM   32  C   UNL     1     -21.051  -4.494  -8.573  1.00  0.00    -0.038 A 
HETATM   33  C   UNL     1     -20.045  -4.758  -9.510  1.00  0.00     0.012 A 
HETATM   34  C   UNL     1     -20.181  -4.523 -10.868  1.00  0.00     0.040 A 
HETATM   35  C   UNL     1     -21.411  -4.015 -11.290  1.00  0.00     0.099 A 
HETATM   36  C   UNL     1     -22.457  -3.732 -10.380  1.00  0.00     0.101 A 
HETATM   37  C   UNL     1     -22.261  -3.967  -9.020  1.00  0.00     0.048 A 
BRANCH  35  38
HETATM   38  O   UNL     1     -21.673  -3.761 -12.604  1.00  0.00    -0.358 OA
HETATM   39  H   UNL     1     -22.422  -3.244 -12.836  1.00  0.00     0.217 HD
ENDBRANCH  35  38
BRANCH  36  40
HETATM   40  O   UNL     1     -23.617  -3.230 -10.915  1.00  0.00    -0.353 OA
HETATM   41  C   UNL     1     -24.819  -3.434 -10.184  1.00  0.00     0.210 C 
ENDBRANCH  36  40
ENDBRANCH  31  32
ENDBRANCH  29  31
ENDBRANCH  26  27
ENDBRANCH  25  26
ENDBRANCH  24  25
ENDBRANCH  23  24
ENDBRANCH  22  23
ENDBRANCH   1  22
TORSDOF 22
ENDMDL
MODEL 3
REMARK VINA RESULT:      -7.9      1.947      4.667
REMARK  22 active torsions:
REMARK  status: ('A' for Active; 'I' for Inactive)
REMARK    1  A    between atoms: C_2  and  C_3 
REMARK    2  A    between atoms: C_3  and  C_4 
REMARK    3  A    between atoms: C_4  and  C_5 
REMARK    4  A    between atoms: C_5  and  C_6 
REMARK    5  A    between atoms: C_6  and  C_7 
REMARK    6  A    between atoms: C_7  and  C_8 
REMARK    7  A    between atoms: C_7  and  C_31 
REMARK    8  A    between atoms: C_8  and  C_9 
REMARK    9  A    between atoms: C_10  and  C_11 
REMARK   10  A    between atoms: C_11  and  C_12 
REMARK   11  A    between atoms: C_12  and  C_13 
REMARK   12  A    between atoms: C_13  and  C_14 
REMARK   13  A    between atoms: C_14  and  C_15 
REMARK   14  A    between atoms: C_15  and  C_16 
REMARK   15  A    between atoms: C_16  and  C_17 
REMARK   16  A    between atoms: C_17  and  C_18 
REMARK       I    between atoms: C_18  and  N_20 
REMARK   17  A    between atoms: N_20  and  C_21 
REMARK   18  A    between atoms: C_21  and  C_22 
REMARK   19  A    between atoms: C_25  and  O_26 
REMARK   20  A    between atoms: C_27  and  O_28 
REMARK   21  A    between atoms: C_31  and  C_33 
REMARK   22  A    between atoms: C_33  and  C_34 
ROOT
HETATM    1  C   UNL     1     -22.376  -7.587   0.462  1.00  0.00     0.004 C 
ENDROOT
BRANCH   1   2
HETATM    2  C   UNL     1     -21.423  -8.528   1.205  1.00  0.00     0.027 C 
BRANCH   2   3
HETATM    3  C   UNL     1     -21.041  -9.670   0.316  1.00  0.00    -0.031 C 
HETATM    4  C   UNL     1     -20.498 -10.792   0.807  1.00  0.00    -0.030 C 
BRANCH   4   5
HETATM    5  C   UNL     1     -19.898 -11.871  -0.040  1.00  0.00     0.039 C 
BRANCH   5   6
HETATM    6  C   UNL     1     -19.100 -11.284  -1.224  1.00  0.00     0.059 C 
BRANCH   6   7
HETATM    7  C   UNL     1     -19.836 -11.411  -2.580  1.00  0.00     0.012 C 
BRANCH   7   8
HETATM    8  C   UNL     1     -20.507 -12.755  -2.862  1.00  0.00     0.001 C 
BRANCH   8   9
HETATM    9  C   UNL     1     -22.032 -12.674  -2.908  1.00  0.00     0.000 C 
BRANCH   9  10
HETATM   10  C   UNL     1     -22.482 -11.217  -2.818  1.00  0.00    -0.000 C 
BRANCH  10  11
HETATM   11  C   UNL     1     -23.565 -11.022  -1.760  1.00  0.00    -0.005 C 
HETATM   12  C   UNL     1     -23.706 -12.269  -0.900  1.00  0.00     0.005 C 
ENDBRANCH  10  11
ENDBRANCH   9  10
ENDBRANCH   8   9
ENDBRANCH   7   8
ENDBRANCH   6   7
BRANCH   6  13
HETATM   13  C   UNL     1     -17.711 -11.945  -1.342  1.00  0.00     0.135 C 
HETATM   14  O   UNL     1     -17.552 -13.160  -1.177  1.00  0.00    -0.297 OA
BRANCH  13  15
HETATM   15  C   UNL     1     -16.533 -11.080  -1.742  1.00  0.00     0.117 C 
BRANCH  15  16
HETATM   16  C   UNL     1     -16.341 -10.997  -3.231  1.00  0.00    -0.051 A 
HETATM   17  C   UNL     1     -16.021  -9.776  -3.842  1.00  0.00     0.007 A 
HETATM   18  C   UNL     1     -15.792  -9.720  -5.215  1.00  0.00     0.001 A 
HETATM   19  C   UNL     1     -15.879 -10.880  -5.982  1.00  0.00     0.000 A 
HETATM   20  C   UNL     1     -16.209 -12.095  -5.391  1.00  0.00     0.001 A 
HETATM   21  C   UNL     1     -16.438 -12.154  -4.019  1.00  0.00     0.007 A 
ENDBRANCH  15  16
ENDBRANCH  13  15
ENDBRANCH   6  13
ENDBRANCH   5   6
ENDBRANCH   4   5
ENDBRANCH   2   3
ENDBRANCH   1   2
BRANCH   1  22
HETATM   22  C   UNL     1     -22.187  -7.656  -1.049  1.00  0.00     0.000 C 
BRANCH  22  23
HETATM   23  C   UNL     1     -22.201  -6.279  -1.721  1.00  0.00     0.000 C 
BRANCH  23  24
HETATM   24  C   UNL     1     -21.396  -6.251  -3.016  1.00  0.00     0.000 C 
BRANCH  24  25
HETATM   25  C   UNL     1     -21.303  -7.641  -3.646  1.00  0.00     0.009 C 
BRANCH  25  26
HETATM   26  C   UNL     1     -21.588  -7.597  -5.132  1.00  0.00     0.103 C 
BRANCH  26  27
HETATM   27  C   UNL     1     -20.321  -7.378  -5.937  1.00  0.00     0.217 C 
HETATM   28  O   UNL     1     -19.369  -8.151  -5.940  1.00  0.00    -0.274 OA
HETATM   29  N   UNL     1     -20.256  -6.241  -6.688  1.00  0.00    -0.357 N 
HETATM   30  H   UNL     1     -19.417  -6.183  -7.253  1.00  0.00     0.162 HD
BRANCH  29  31
HETATM   31  C   UNL     1     -21.309  -5.272  -6.899  1.00  0.00     0.161 C 
BRANCH  31  32
HETATM   32  C   UNL     1     -21.383  -4.844  -8.341  1.00  0.00    -0.038 A 
HETATM   33  C   UNL     1     -20.215  -4.778  -9.110  1.00  0.00     0.012 A 
HETATM   34  C   UNL     1     -20.195  -4.408 -10.444  1.00  0.00     0.040 A 
HETATM   35  C   UNL     1     -21.430  -4.111 -11.025  1.00  0.00     0.099 A 
HETATM   36  C   UNL     1     -22.636  -4.162 -10.288  1.00  0.00     0.101 A 
HETATM   37  C   UNL     1     -22.599  -4.521  -8.941  1.00  0.00     0.048 A 
BRANCH  35  38
HETATM   38  O   UNL     1     -21.542  -3.753 -12.336  1.00  0.00    -0.358 OA
HETATM   39  H   UNL     1     -20.787  -3.787 -12.892  1.00  0.00     0.217 HD
ENDBRANCH  35  38
BRANCH  36  40
HETATM   40  O   UNL     1     -23.785  -3.844 -10.967  1.00  0.00    -0.353 OA
HETATM   41  C   UNL     1     -24.856  -3.282 -10.220  1.00  0.00     0.210 C 
ENDBRANCH  36  40
ENDBRANCH  31  32
ENDBRANCH  29  31
ENDBRANCH  26  27
ENDBRANCH  25  26
ENDBRANCH  24  25
ENDBRANCH  23  24
ENDBRANCH  22  23
ENDBRANCH   1  22
TORSDOF 22
ENDMDL
MODEL 4
REMARK VINA RESULT:      -7.9      2.298      5.147
REMARK  22 active torsions:
REMARK  status: ('A' for Active; 'I' for Inactive)
REMARK    1  A    between atoms: C_2  and  C_3 
REMARK    2  A    between atoms: C_3  and  C_4 
REMARK    3  A    between atoms: C_4  and  C_5 
REMARK    4  A    between atoms: C_5  and  C_6 
REMARK    5  A    between atoms: C_6  and  C_7 
REMARK    6  A    between atoms: C_7  and  C_8 
REMARK    7  A    between atoms: C_7  and  C_31 
REMARK    8  A    between atoms: C_8  and  C_9 
REMARK    9  A    between atoms: C_10  and  C_11 
REMARK   10  A    between atoms: C_11  and  C_12 
REMARK   11  A    between atoms: C_12  and  C_13 
REMARK   12  A    between atoms: C_13  and  C_14 
REMARK   13  A    between atoms: C_14  and  C_15 
REMARK   14  A    between atoms: C_15  and  C_16 
REMARK   15  A    between atoms: C_16  and  C_17 
REMARK   16  A    between atoms: C_17  and  C_18 
REMARK       I    between atoms: C_18  and  N_20 
REMARK   17  A    between atoms: N_20  and  C_21 
REMARK   18  A    between atoms: C_21  and  C_22 
REMARK   19  A    between atoms: C_25  and  O_26 
REMARK   20  A    between atoms: C_27  and  O_28 
REMARK   21  A    between atoms: C_31  and  C_33 
REMARK   22  A    between atoms: C_33  and  C_34 
ROOT
HETATM    1  C   UNL     1     -23.375  -8.393   0.369  1.00  0.00     0.004 C 
ENDROOT
BRANCH   1   2
HETATM    2  C   UNL     1     -23.167  -9.910   0.390  1.00  0.00     0.027 C 
BRANCH   2   3
HETATM    3  C   UNL     1     -23.464 -10.482  -0.960  1.00  0.00    -0.031 C 
HETATM    4  C   UNL     1     -22.495 -10.701  -1.859  1.00  0.00    -0.030 C 
BRANCH   4   5
HETATM    5  C   UNL     1     -22.748 -11.062  -3.290  1.00  0.00     0.039 C 
BRANCH   5   6
HETATM    6  C   UNL     1     -21.451 -11.012  -4.125  1.00  0.00     0.059 C 
BRANCH   6   7
HETATM    7  C   UNL     1     -21.312 -12.199  -5.110  1.00  0.00     0.012 C 
BRANCH   7   8
HETATM    8  C   UNL     1     -21.153 -11.836  -6.587  1.00  0.00     0.001 C 
BRANCH   8   9
HETATM    9  C   UNL     1     -19.772 -12.168  -7.149  1.00  0.00     0.000 C 
BRANCH   9  10
HETATM   10  C   UNL     1     -19.087 -13.215  -6.271  1.00  0.00    -0.000 C 
BRANCH  10  11
HETATM   11  C   UNL     1     -18.607 -14.412  -7.087  1.00  0.00    -0.005 C 
HETATM   12  C   UNL     1     -18.882 -14.200  -8.567  1.00  0.00     0.005 C 
ENDBRANCH  10  11
ENDBRANCH   9  10
ENDBRANCH   8   9
ENDBRANCH   7   8
ENDBRANCH   6   7
BRANCH   6  13
HETATM   13  C   UNL     1     -20.205 -10.966  -3.216  1.00  0.00     0.135 C 
HETATM   14  O   UNL     1     -19.819 -11.959  -2.589  1.00  0.00    -0.297 OA
BRANCH  13  15
HETATM   15  C   UNL     1     -19.403  -9.682  -3.157  1.00  0.00     0.117 C 
BRANCH  15  16
HETATM   16  C   UNL     1     -18.107  -9.760  -3.915  1.00  0.00    -0.051 A 
HETATM   17  C   UNL     1     -18.098  -9.745  -5.317  1.00  0.00     0.007 A 
HETATM   18  C   UNL     1     -16.889  -9.764  -6.009  1.00  0.00     0.001 A 
HETATM   19  C   UNL     1     -15.686  -9.796  -5.306  1.00  0.00     0.000 A 
HETATM   20  C   UNL     1     -15.681  -9.825  -3.916  1.00  0.00     0.001 A 
HETATM   21  C   UNL     1     -16.888  -9.806  -3.222  1.00  0.00     0.007 A 
ENDBRANCH  15  16
ENDBRANCH  13  15
ENDBRANCH   6  13
ENDBRANCH   5   6
ENDBRANCH   4   5
ENDBRANCH   2   3
ENDBRANCH   1   2
BRANCH   1  22
HETATM   22  C   UNL     1     -22.097  -7.644   0.009  1.00  0.00     0.000 C 
BRANCH  22  23
HETATM   23  C   UNL     1     -22.277  -6.676  -1.166  1.00  0.00     0.000 C 
BRANCH  23  24
HETATM   24  C   UNL     1     -21.367  -7.010  -2.344  1.00  0.00     0.000 C 
BRANCH  24  25
HETATM   25  C   UNL     1     -22.079  -6.788  -3.679  1.00  0.00     0.009 C 
BRANCH  25  26
HETATM   26  C   UNL     1     -21.155  -6.158  -4.700  1.00  0.00     0.103 C 
BRANCH  26  27
HETATM   27  C   UNL     1     -21.012  -7.029  -5.934  1.00  0.00     0.217 C 
HETATM   28  O   UNL     1     -21.126  -8.250  -5.927  1.00  0.00    -0.274 OA
HETATM   29  N   UNL     1     -20.732  -6.394  -7.108  1.00  0.00    -0.357 N 
HETATM   30  H   UNL     1     -20.715  -7.019  -7.906  1.00  0.00     0.162 HD
BRANCH  29  31
HETATM   31  C   UNL     1     -20.671  -4.967  -7.337  1.00  0.00     0.161 C 
BRANCH  31  32
HETATM   32  C   UNL     1     -21.023  -4.621  -8.760  1.00  0.00    -0.038 A 
HETATM   33  C   UNL     1     -20.022  -4.595  -9.739  1.00  0.00     0.012 A 
HETATM   34  C   UNL     1     -20.260  -4.300 -11.070  1.00  0.00     0.040 A 
HETATM   35  C   UNL     1     -21.586  -4.041 -11.422  1.00  0.00     0.099 A 
HETATM   36  C   UNL     1     -22.630  -4.054 -10.468  1.00  0.00     0.101 A 
HETATM   37  C   UNL     1     -22.335  -4.337  -9.136  1.00  0.00     0.048 A 
BRANCH  35  38
HETATM   38  O   UNL     1     -21.948  -3.757 -12.705  1.00  0.00    -0.358 OA
HETATM   39  H   UNL     1     -22.858  -3.715 -12.932  1.00  0.00     0.217 HD
ENDBRANCH  35  38
BRANCH  36  40
HETATM   40  O   UNL     1     -23.892  -3.778 -10.934  1.00  0.00    -0.353 OA
HETATM   41  C   UNL     1     -24.838  -3.266 -10.004  1.00  0.00     0.210 C 
ENDBRANCH  36  40
ENDBRANCH  31  32
ENDBRANCH  29  31
ENDBRANCH  26  27
ENDBRANCH  25  26
ENDBRANCH  24  25
ENDBRANCH  23  24
ENDBRANCH  22  23
ENDBRANCH   1  22
TORSDOF 22
ENDMDL
MODEL 5
REMARK VINA RESULT:      -7.8      2.563      5.957
REMARK  22 active torsions:
REMARK  status: ('A' for Active; 'I' for Inactive)
REMARK    1  A    between atoms: C_2  and  C_3 
REMARK    2  A    between atoms: C_3  and  C_4 
REMARK    3  A    between atoms: C_4  and  C_5 
REMARK    4  A    between atoms: C_5  and  C_6 
REMARK    5  A    between atoms: C_6  and  C_7 
REMARK    6  A    between atoms: C_7  and  C_8 
REMARK    7  A    between atoms: C_7  and  C_31 
REMARK    8  A    between atoms: C_8  and  C_9 
REMARK    9  A    between atoms: C_10  and  C_11 
REMARK   10  A    between atoms: C_11  and  C_12 
REMARK   11  A    between atoms: C_12  and  C_13 
REMARK   12  A    between atoms: C_13  and  C_14 
REMARK   13  A    between atoms: C_14  and  C_15 
REMARK   14  A    between atoms: C_15  and  C_16 
REMARK   15  A    between atoms: C_16  and  C_17 
REMARK   16  A    between atoms: C_17  and  C_18 
REMARK       I    between atoms: C_18  and  N_20 
REMARK   17  A    between atoms: N_20  and  C_21 
REMARK   18  A    between atoms: C_21  and  C_22 
REMARK   19  A    between atoms: C_25  and  O_26 
REMARK   20  A    between atoms: C_27  and  O_28 
REMARK   21  A    between atoms: C_31  and  C_33 
REMARK   22  A    between atoms: C_33  and  C_34 
ROOT
HETATM    1  C   UNL     1     -21.937 -10.133  -1.398  1.00  0.00     0.004 C 
ENDROOT
BRANCH   1   2
HETATM    2  C   UNL     1     -22.893 -10.756  -2.419  1.00  0.00     0.027 C 
BRANCH   2   3
HETATM    3  C   UNL     1     -22.122 -11.243  -3.606  1.00  0.00    -0.031 C 
HETATM    4  C   UNL     1     -20.822 -11.555  -3.519  1.00  0.00    -0.030 C 
BRANCH   4   5
HETATM    5  C   UNL     1     -19.949 -11.835  -4.704  1.00  0.00     0.039 C 
BRANCH   5   6
HETATM    6  C   UNL     1     -18.623 -11.047  -4.629  1.00  0.00     0.059 C 
BRANCH   6   7
HETATM    7  C   UNL     1     -18.749  -9.710  -3.858  1.00  0.00     0.012 C 
BRANCH   7   8
HETATM    8  C   UNL     1     -17.794  -9.516  -2.680  1.00  0.00     0.001 C 
BRANCH   8   9
HETATM    9  C   UNL     1     -16.321  -9.551  -3.082  1.00  0.00     0.000 C 
BRANCH   9  10
HETATM   10  C   UNL     1     -15.583 -10.618  -2.275  1.00  0.00    -0.000 C 
BRANCH  10  11
HETATM   11  C   UNL     1     -16.257 -11.983  -2.389  1.00  0.00    -0.005 C 
HETATM   12  C   UNL     1     -15.459 -13.040  -1.643  1.00  0.00     0.005 C 
ENDBRANCH  10  11
ENDBRANCH   9  10
ENDBRANCH   8   9
ENDBRANCH   7   8
ENDBRANCH   6   7
BRANCH   6  13
HETATM   13  C   UNL     1     -18.065 -10.763  -6.039  1.00  0.00     0.135 C 
HETATM   14  O   UNL     1     -18.057  -9.624  -6.519  1.00  0.00    -0.297 OA
BRANCH  13  15
HETATM   15  C   UNL     1     -17.446 -11.909  -6.813  1.00  0.00     0.117 C 
BRANCH  15  16
HETATM   16  C   UNL     1     -16.149 -12.388  -6.223  1.00  0.00    -0.051 A 
HETATM   17  C   UNL     1     -15.115 -11.482  -5.942  1.00  0.00     0.007 A 
HETATM   18  C   UNL     1     -13.938 -11.928  -5.346  1.00  0.00     0.001 A 
HETATM   19  C   UNL     1     -13.787 -13.275  -5.027  1.00  0.00     0.000 A 
HETATM   20  C   UNL     1     -14.798 -14.187  -5.312  1.00  0.00     0.001 A 
HETATM   21  C   UNL     1     -15.976 -13.744  -5.908  1.00  0.00     0.007 A 
ENDBRANCH  15  16
ENDBRANCH  13  15
ENDBRANCH   6  13
ENDBRANCH   5   6
ENDBRANCH   4   5
ENDBRANCH   2   3
ENDBRANCH   1   2
BRANCH   1  22
HETATM   22  C   UNL     1     -22.547  -8.917  -0.710  1.00  0.00     0.000 C 
BRANCH  22  23
HETATM   23  C   UNL     1     -21.648  -7.677  -0.773  1.00  0.00     0.000 C 
BRANCH  23  24
HETATM   24  C   UNL     1     -21.960  -6.789  -1.973  1.00  0.00     0.000 C 
BRANCH  24  25
HETATM   25  C   UNL     1     -21.212  -7.256  -3.222  1.00  0.00     0.009 C 
BRANCH  25  26
HETATM   26  C   UNL     1     -21.708  -6.545  -4.464  1.00  0.00     0.103 C 
BRANCH  26  27
HETATM   27  C   UNL     1     -21.302  -7.280  -5.727  1.00  0.00     0.217 C 
HETATM   28  O   UNL     1     -21.256  -8.501  -5.824  1.00  0.00    -0.274 OA
HETATM   29  N   UNL     1     -20.965  -6.514  -6.804  1.00  0.00    -0.357 N 
HETATM   30  H   UNL     1     -20.768  -7.058  -7.636  1.00  0.00     0.162 HD
BRANCH  29  31
HETATM   31  C   UNL     1     -21.062  -5.075  -6.919  1.00  0.00     0.161 C 
BRANCH  31  32
HETATM   32  C   UNL     1     -21.222  -4.645  -8.353  1.00  0.00    -0.038 A 
HETATM   33  C   UNL     1     -20.152  -4.785  -9.246  1.00  0.00     0.012 A 
HETATM   34  C   UNL     1     -20.217  -4.428 -10.582  1.00  0.00     0.040 A 
HETATM   35  C   UNL     1     -21.439  -3.924 -11.031  1.00  0.00     0.099 A 
HETATM   36  C   UNL     1     -22.547  -3.764 -10.167  1.00  0.00     0.101 A 
HETATM   37  C   UNL     1     -22.423  -4.119  -8.825  1.00  0.00     0.048 A 
BRANCH  35  38
HETATM   38  O   UNL     1     -21.633  -3.557 -12.330  1.00  0.00    -0.358 OA
HETATM   39  H   UNL     1     -21.357  -4.129 -13.021  1.00  0.00     0.217 HD
ENDBRANCH  35  38
BRANCH  36  40
HETATM   40  O   UNL     1     -23.693  -3.253 -10.725  1.00  0.00    -0.353 OA
HETATM   41  C   UNL     1     -24.866  -3.243  -9.922  1.00  0.00     0.210 C 
ENDBRANCH  36  40
ENDBRANCH  31  32
ENDBRANCH  29  31
ENDBRANCH  26  27
ENDBRANCH  25  26
ENDBRANCH  24  25
ENDBRANCH  23  24
ENDBRANCH  22  23
ENDBRANCH   1  22
TORSDOF 22
ENDMDL
MODEL 6
REMARK VINA RESULT:      -7.7      1.326      2.916
REMARK  22 active torsions:
REMARK  status: ('A' for Active; 'I' for Inactive)
REMARK    1  A    between atoms: C_2  and  C_3 
REMARK    2  A    between atoms: C_3  and  C_4 
REMARK    3  A    between atoms: C_4  and  C_5 
REMARK    4  A    between atoms: C_5  and  C_6 
REMARK    5  A    between atoms: C_6  and  C_7 
REMARK    6  A    between atoms: C_7  and  C_8 
REMARK    7  A    between atoms: C_7  and  C_31 
REMARK    8  A    between atoms: C_8  and  C_9 
REMARK    9  A    between atoms: C_10  and  C_11 
REMARK   10  A    between atoms: C_11  and  C_12 
REMARK   11  A    between atoms: C_12  and  C_13 
REMARK   12  A    between atoms: C_13  and  C_14 
REMARK   13  A    between atoms: C_14  and  C_15 
REMARK   14  A    between atoms: C_15  and  C_16 
REMARK   15  A    between atoms: C_16  and  C_17 
REMARK   16  A    between atoms: C_17  and  C_18 
REMARK       I    between atoms: C_18  and  N_20 
REMARK   17  A    between atoms: N_20  and  C_21 
REMARK   18  A    between atoms: C_21  and  C_22 
REMARK   19  A    between atoms: C_25  and  O_26 
REMARK   20  A    between atoms: C_27  and  O_28 
REMARK   21  A    between atoms: C_31  and  C_33 
REMARK   22  A    between atoms: C_33  and  C_34 
ROOT
HETATM    1  C   UNL     1     -21.482  -8.788   0.224  1.00  0.00     0.004 C 
ENDROOT
BRANCH   1   2
HETATM    2  C   UNL     1     -22.923  -8.702   0.733  1.00  0.00     0.027 C 
BRANCH   2   3
HETATM    3  C   UNL     1     -23.787  -9.661  -0.024  1.00  0.00    -0.031 C 
HETATM    4  C   UNL     1     -23.544 -10.978  -0.023  1.00  0.00    -0.030 C 
BRANCH   4   5
HETATM    5  C   UNL     1     -24.231 -11.956  -0.925  1.00  0.00     0.039 C 
BRANCH   5   6
HETATM    6  C   UNL     1     -23.629 -13.371  -0.791  1.00  0.00     0.059 C 
BRANCH   6   7
HETATM    7  C   UNL     1     -23.085 -13.672   0.628  1.00  0.00     0.012 C 
BRANCH   7   8
HETATM    8  C   UNL     1     -23.818 -14.757   1.417  1.00  0.00     0.001 C 
BRANCH   8   9
HETATM    9  C   UNL     1     -23.748 -14.558   2.930  1.00  0.00     0.000 C 
BRANCH   9  10
HETATM   10  C   UNL     1     -22.327 -14.814   3.427  1.00  0.00    -0.000 C 
BRANCH  10  11
HETATM   11  C   UNL     1     -22.173 -16.216   4.008  1.00  0.00    -0.005 C 
HETATM   12  C   UNL     1     -21.023 -16.952   3.339  1.00  0.00     0.005 C 
ENDBRANCH  10  11
ENDBRANCH   9  10
ENDBRANCH   8   9
ENDBRANCH   7   8
ENDBRANCH   6   7
BRANCH   6  13
HETATM   13  C   UNL     1     -22.501 -13.596  -1.819  1.00  0.00     0.135 C 
HETATM   14  O   UNL     1     -21.821 -14.628  -1.825  1.00  0.00    -0.297 OA
BRANCH  13  15
HETATM   15  C   UNL     1     -22.281 -12.546  -2.889  1.00  0.00     0.117 C 
BRANCH  15  16
HETATM   16  C   UNL     1     -21.056 -11.708  -2.652  1.00  0.00    -0.051 A 
HETATM   17  C   UNL     1     -20.250 -11.926  -1.524  1.00  0.00     0.007 A 
HETATM   18  C   UNL     1     -19.088 -11.181  -1.342  1.00  0.00     0.001 A 
HETATM   19  C   UNL     1     -18.723 -10.219  -2.281  1.00  0.00     0.000 A 
HETATM   20  C   UNL     1     -19.520  -9.983  -3.397  1.00  0.00     0.001 A 
HETATM   21  C   UNL     1     -20.683 -10.727  -3.582  1.00  0.00     0.007 A 
ENDBRANCH  15  16
ENDBRANCH  13  15
ENDBRANCH   6  13
ENDBRANCH   5   6
ENDBRANCH   4   5
ENDBRANCH   2   3
ENDBRANCH   1   2
BRANCH   1  22
HETATM   22  C   UNL     1     -21.217  -7.811  -0.916  1.00  0.00     0.000 C 
BRANCH  22  23
HETATM   23  C   UNL     1     -22.280  -6.712  -1.025  1.00  0.00     0.000 C 
BRANCH  23  24
HETATM   24  C   UNL     1     -22.305  -6.057  -2.403  1.00  0.00     0.000 C 
BRANCH  24  25
HETATM   25  C   UNL     1     -21.507  -6.871  -3.422  1.00  0.00     0.009 C 
BRANCH  25  26
HETATM   26  C   UNL     1     -21.187  -6.053  -4.656  1.00  0.00     0.103 C 
BRANCH  26  27
HETATM   27  C   UNL     1     -21.068  -6.928  -5.889  1.00  0.00     0.217 C 
HETATM   28  O   UNL     1     -21.193  -8.148  -5.879  1.00  0.00    -0.274 OA
HETATM   29  N   UNL     1     -20.797  -6.298  -7.068  1.00  0.00    -0.357 N 
HETATM   30  H   UNL     1     -20.796  -6.924  -7.865  1.00  0.00     0.162 HD
BRANCH  29  31
HETATM   31  C   UNL     1     -20.726  -4.872  -7.301  1.00  0.00     0.161 C 
BRANCH  31  32
HETATM   32  C   UNL     1     -21.046  -4.530  -8.732  1.00  0.00    -0.038 A 
HETATM   33  C   UNL     1     -20.076  -4.709  -9.726  1.00  0.00     0.012 A 
HETATM   34  C   UNL     1     -20.291  -4.432 -11.065  1.00  0.00     0.040 A 
HETATM   35  C   UNL     1     -21.563  -3.971 -11.408  1.00  0.00     0.099 A 
HETATM   36  C   UNL     1     -22.575  -3.773 -10.440  1.00  0.00     0.101 A 
HETATM   37  C   UNL     1     -22.301  -4.047  -9.100  1.00  0.00     0.048 A 
BRANCH  35  38
HETATM   38  O   UNL     1     -21.902  -3.683 -12.697  1.00  0.00    -0.358 OA
HETATM   39  H   UNL     1     -22.628  -3.114 -12.870  1.00  0.00     0.217 HD
ENDBRANCH  35  38
BRANCH  36  40
HETATM   40  O   UNL     1     -23.783  -3.311 -10.898  1.00  0.00    -0.353 OA
HETATM   41  C   UNL     1     -24.874  -3.309  -9.987  1.00  0.00     0.210 C 
ENDBRANCH  36  40
ENDBRANCH  31  32
ENDBRANCH  29  31
ENDBRANCH  26  27
ENDBRANCH  25  26
ENDBRANCH  24  25
ENDBRANCH  23  24
ENDBRANCH  22  23
ENDBRANCH   1  22
TORSDOF 22
ENDMDL
MODEL 7
REMARK VINA RESULT:      -7.6      1.167      4.390
REMARK  22 active torsions:
REMARK  status: ('A' for Active; 'I' for Inactive)
REMARK    1  A    between atoms: C_2  and  C_3 
REMARK    2  A    between atoms: C_3  and  C_4 
REMARK    3  A    between atoms: C_4  and  C_5 
REMARK    4  A    between atoms: C_5  and  C_6 
REMARK    5  A    between atoms: C_6  and  C_7 
REMARK    6  A    between atoms: C_7  and  C_8 
REMARK    7  A    between atoms: C_7  and  C_31 
REMARK    8  A    between atoms: C_8  and  C_9 
REMARK    9  A    between atoms: C_10  and  C_11 
REMARK   10  A    between atoms: C_11  and  C_12 
REMARK   11  A    between atoms: C_12  and  C_13 
REMARK   12  A    between atoms: C_13  and  C_14 
REMARK   13  A    between atoms: C_14  and  C_15 
REMARK   14  A    between atoms: C_15  and  C_16 
REMARK   15  A    between atoms: C_16  and  C_17 
REMARK   16  A    between atoms: C_17  and  C_18 
REMARK       I    between atoms: C_18  and  N_20 
REMARK   17  A    between atoms: N_20  and  C_21 
REMARK   18  A    between atoms: C_21  and  C_22 
REMARK   19  A    between atoms: C_25  and  O_26 
REMARK   20  A    between atoms: C_27  and  O_28 
REMARK   21  A    between atoms: C_31  and  C_33 
REMARK   22  A    between atoms: C_33  and  C_34 
ROOT
HETATM    1  C   UNL     1     -22.536  -7.715  -0.665  1.00  0.00     0.004 C 
ENDROOT
BRANCH   1   2
HETATM    2  C   UNL     1     -21.948  -7.795   0.747  1.00  0.00     0.027 C 
BRANCH   2   3
HETATM    3  C   UNL     1     -21.089  -9.014   0.871  1.00  0.00    -0.031 C 
HETATM    4  C   UNL     1     -21.141 -10.006  -0.029  1.00  0.00    -0.030 C 
BRANCH   4   5
HETATM    5  C   UNL     1     -20.476 -11.335   0.153  1.00  0.00     0.039 C 
BRANCH   5   6
HETATM    6  C   UNL     1     -21.164 -12.432  -0.688  1.00  0.00     0.059 C 
BRANCH   6   7
HETATM    7  C   UNL     1     -20.538 -12.607  -2.094  1.00  0.00     0.012 C 
BRANCH   7   8
HETATM    8  C   UNL     1     -19.325 -11.732  -2.408  1.00  0.00     0.001 C 
BRANCH   8   9
HETATM    9  C   UNL     1     -19.546 -10.790  -3.590  1.00  0.00     0.000 C 
BRANCH   9  10
HETATM   10  C   UNL     1     -18.264 -10.017  -3.892  1.00  0.00    -0.000 C 
BRANCH  10  11
HETATM   11  C   UNL     1     -17.494  -9.677  -2.618  1.00  0.00    -0.005 C 
HETATM   12  C   UNL     1     -16.030  -9.408  -2.931  1.00  0.00     0.005 C 
ENDBRANCH  10  11
ENDBRANCH   9  10
ENDBRANCH   8   9
ENDBRANCH   7   8
ENDBRANCH   6   7
BRANCH   6  13
HETATM   13  C   UNL     1     -22.673 -12.152  -0.841  1.00  0.00     0.135 C 
HETATM   14  O   UNL     1     -23.172 -11.844  -1.930  1.00  0.00    -0.297 OA
BRANCH  13  15
HETATM   15  C   UNL     1     -23.566 -12.333   0.369  1.00  0.00     0.117 C 
BRANCH  15  16
HETATM   16  C   UNL     1     -23.360 -13.650   1.064  1.00  0.00    -0.051 A 
HETATM   17  C   UNL     1     -23.798 -14.844   0.473  1.00  0.00     0.007 A 
HETATM   18  C   UNL     1     -23.554 -16.064   1.100  1.00  0.00     0.001 A 
HETATM   19  C   UNL     1     -22.871 -16.098   2.314  1.00  0.00     0.000 A 
HETATM   20  C   UNL     1     -22.443 -14.920   2.917  1.00  0.00     0.001 A 
HETATM   21  C   UNL     1     -22.686 -13.699   2.293  1.00  0.00     0.007 A 
ENDBRANCH  15  16
ENDBRANCH  13  15
ENDBRANCH   6  13
ENDBRANCH   5   6
ENDBRANCH   4   5
ENDBRANCH   2   3
ENDBRANCH   1   2
BRANCH   1  22
HETATM   22  C   UNL     1     -22.209  -6.392  -1.348  1.00  0.00     0.000 C 
BRANCH  22  23
HETATM   23  C   UNL     1     -21.228  -6.544  -2.516  1.00  0.00     0.000 C 
BRANCH  23  24
HETATM   24  C   UNL     1     -21.395  -7.870  -3.252  1.00  0.00     0.000 C 
BRANCH  24  25
HETATM   25  C   UNL     1     -21.957  -7.661  -4.658  1.00  0.00     0.009 C 
BRANCH  25  26
HETATM   26  C   UNL     1     -21.440  -6.379  -5.277  1.00  0.00     0.103 C 
BRANCH  26  27
HETATM   27  C   UNL     1     -20.203  -6.627  -6.119  1.00  0.00     0.217 C 
HETATM   28  O   UNL     1     -19.566  -7.675  -6.109  1.00  0.00    -0.274 OA
HETATM   29  N   UNL     1     -19.789  -5.606  -6.923  1.00  0.00    -0.357 N 
HETATM   30  H   UNL     1     -19.001  -5.853  -7.510  1.00  0.00     0.162 HD
BRANCH  29  31
HETATM   31  C   UNL     1     -20.464  -4.348  -7.155  1.00  0.00     0.161 C 
BRANCH  31  32
HETATM   32  C   UNL     1     -20.862  -4.192  -8.599  1.00  0.00    -0.038 A 
HETATM   33  C   UNL     1     -19.944  -4.500  -9.611  1.00  0.00     0.012 A 
HETATM   34  C   UNL     1     -20.231  -4.398 -10.962  1.00  0.00     0.040 A 
HETATM   35  C   UNL     1     -21.522  -3.982 -11.293  1.00  0.00     0.099 A 
HETATM   36  C   UNL     1     -22.481  -3.659 -10.306  1.00  0.00     0.101 A 
HETATM   37  C   UNL     1     -22.136  -3.758  -8.959  1.00  0.00     0.048 A 
BRANCH  35  38
HETATM   38  O   UNL     1     -21.929  -3.862 -12.589  1.00  0.00    -0.358 OA
HETATM   39  H   UNL     1     -22.846  -3.860 -12.789  1.00  0.00     0.217 HD
ENDBRANCH  35  38
BRANCH  36  40
HETATM   40  O   UNL     1     -23.715  -3.256 -10.756  1.00  0.00    -0.353 OA
HETATM   41  C   UNL     1     -24.829  -3.477  -9.902  1.00  0.00     0.210 C 
ENDBRANCH  36  40
ENDBRANCH  31  32
ENDBRANCH  29  31
ENDBRANCH  26  27
ENDBRANCH  25  26
ENDBRANCH  24  25
ENDBRANCH  23  24
ENDBRANCH  22  23
ENDBRANCH   1  22
TORSDOF 22
ENDMDL
MODEL 8
REMARK VINA RESULT:      -7.5      1.838      3.643
REMARK  22 active torsions:
REMARK  status: ('A' for Active; 'I' for Inactive)
REMARK    1  A    between atoms: C_2  and  C_3 
REMARK    2  A    between atoms: C_3  and  C_4 
REMARK    3  A    between atoms: C_4  and  C_5 
REMARK    4  A    between atoms: C_5  and  C_6 
REMARK    5  A    between atoms: C_6  and  C_7 
REMARK    6  A    between atoms: C_7  and  C_8 
REMARK    7  A    between atoms: C_7  and  C_31 
REMARK    8  A    between atoms: C_8  and  C_9 
REMARK    9  A    between atoms: C_10  and  C_11 
REMARK   10  A    between atoms: C_11  and  C_12 
REMARK   11  A    between atoms: C_12  and  C_13 
REMARK   12  A    between atoms: C_13  and  C_14 
REMARK   13  A    between atoms: C_14  and  C_15 
REMARK   14  A    between atoms: C_15  and  C_16 
REMARK   15  A    between atoms: C_16  and  C_17 
REMARK   16  A    between atoms: C_17  and  C_18 
REMARK       I    between atoms: C_18  and  N_20 
REMARK   17  A    between atoms: N_20  and  C_21 
REMARK   18  A    between atoms: C_21  and  C_22 
REMARK   19  A    between atoms: C_25  and  O_26 
REMARK   20  A    between atoms: C_27  and  O_28 
REMARK   21  A    between atoms: C_31  and  C_33 
REMARK   22  A    between atoms: C_33  and  C_34 
ROOT
HETATM    1  C   UNL     1     -21.765 -12.051  -4.934  1.00  0.00     0.004 C 
ENDROOT
BRANCH   1   2
HETATM    2  C   UNL     1     -20.553 -12.954  -4.691  1.00  0.00     0.027 C 
BRANCH   2   3
HETATM    3  C   UNL     1     -20.772 -13.780  -3.463  1.00  0.00    -0.031 C 
HETATM    4  C   UNL     1     -21.974 -13.861  -2.876  1.00  0.00    -0.030 C 
BRANCH   4   5
HETATM    5  C   UNL     1     -22.209 -14.486  -1.535  1.00  0.00     0.039 C 
BRANCH   5   6
HETATM    6  C   UNL     1     -22.359 -13.419  -0.431  1.00  0.00     0.059 C 
BRANCH   6   7
HETATM    7  C   UNL     1     -22.764 -12.027  -0.977  1.00  0.00     0.012 C 
BRANCH   7   8
HETATM    8  C   UNL     1     -23.776 -11.243  -0.142  1.00  0.00     0.001 C 
BRANCH   8   9
HETATM    9  C   UNL     1     -23.520  -9.736  -0.135  1.00  0.00     0.000 C 
BRANCH   9  10
HETATM   10  C   UNL     1     -22.369  -9.397  -1.081  1.00  0.00    -0.000 C 
BRANCH  10  11
HETATM   11  C   UNL     1     -21.562  -8.201  -0.586  1.00  0.00    -0.005 C 
HETATM   12  C   UNL     1     -22.296  -6.900  -0.873  1.00  0.00     0.005 C 
ENDBRANCH  10  11
ENDBRANCH   9  10
ENDBRANCH   8   9
ENDBRANCH   7   8
ENDBRANCH   6   7
BRANCH   6  13
HETATM   13  C   UNL     1     -21.059 -13.278   0.388  1.00  0.00     0.135 C 
HETATM   14  O   UNL     1     -20.499 -14.256   0.896  1.00  0.00    -0.297 OA
BRANCH  13  15
HETATM   15  C   UNL     1     -20.425 -11.907   0.502  1.00  0.00     0.117 C 
BRANCH  15  16
HETATM   16  C   UNL     1     -19.142 -11.783  -0.273  1.00  0.00    -0.051 A 
HETATM   17  C   UNL     1     -19.142 -11.259  -1.574  1.00  0.00     0.007 A 
HETATM   18  C   UNL     1     -17.942 -11.099  -2.263  1.00  0.00     0.001 A 
HETATM   19  C   UNL     1     -16.740 -11.459  -1.658  1.00  0.00     0.000 A 
HETATM   20  C   UNL     1     -16.726 -11.992  -0.374  1.00  0.00     0.001 A 
HETATM   21  C   UNL     1     -17.925 -12.154   0.317  1.00  0.00     0.007 A 
ENDBRANCH  15  16
ENDBRANCH  13  15
ENDBRANCH   6  13
ENDBRANCH   5   6
ENDBRANCH   4   5
ENDBRANCH   2   3
ENDBRANCH   1   2
BRANCH   1  22
HETATM   22  C   UNL     1     -21.555 -10.647  -4.378  1.00  0.00     0.000 C 
BRANCH  22  23
HETATM   23  C   UNL     1     -20.506  -9.843  -5.155  1.00  0.00     0.000 C 
BRANCH  23  24
HETATM   24  C   UNL     1     -19.796  -8.812  -4.284  1.00  0.00     0.000 C 
BRANCH  24  25
HETATM   25  C   UNL     1     -20.613  -7.525  -4.163  1.00  0.00     0.009 C 
BRANCH  25  26
HETATM   26  C   UNL     1     -20.787  -6.852  -5.508  1.00  0.00     0.103 C 
BRANCH  26  27
HETATM   27  C   UNL     1     -22.028  -5.981  -5.539  1.00  0.00     0.217 C 
HETATM   28  O   UNL     1     -23.055  -6.229  -4.916  1.00  0.00    -0.274 OA
HETATM   29  N   UNL     1     -21.978  -4.862  -6.317  1.00  0.00    -0.357 N 
HETATM   30  H   UNL     1     -22.808  -4.286  -6.244  1.00  0.00     0.162 HD
BRANCH  29  31
HETATM   31  C   UNL     1     -20.830  -4.345  -7.031  1.00  0.00     0.161 C 
BRANCH  31  32
HETATM   32  C   UNL     1     -21.108  -4.219  -8.506  1.00  0.00    -0.038 A 
HETATM   33  C   UNL     1     -20.093  -4.488  -9.431  1.00  0.00     0.012 A 
HETATM   34  C   UNL     1     -20.266  -4.410 -10.802  1.00  0.00     0.040 A 
HETATM   35  C   UNL     1     -21.542  -4.060 -11.249  1.00  0.00     0.099 A 
HETATM   36  C   UNL     1     -22.598  -3.778 -10.352  1.00  0.00     0.101 A 
HETATM   37  C   UNL     1     -22.367  -3.851  -8.979  1.00  0.00     0.048 A 
BRANCH  35  38
HETATM   38  O   UNL     1     -21.841  -3.969 -12.576  1.00  0.00    -0.358 OA
HETATM   39  H   UNL     1     -21.522  -4.623 -13.169  1.00  0.00     0.217 HD
ENDBRANCH  35  38
BRANCH  36  40
HETATM   40  O   UNL     1     -23.806  -3.441 -10.911  1.00  0.00    -0.353 OA
HETATM   41  C   UNL     1     -24.918  -3.300 -10.036  1.00  0.00     0.210 C 
ENDBRANCH  36  40
ENDBRANCH  31  32
ENDBRANCH  29  31
ENDBRANCH  26  27
ENDBRANCH  25  26
ENDBRANCH  24  25
ENDBRANCH  23  24
ENDBRANCH  22  23
ENDBRANCH   1  22
TORSDOF 22
ENDMDL
MODEL 9
REMARK VINA RESULT:      -7.5      1.727      3.927
REMARK  22 active torsions:
REMARK  status: ('A' for Active; 'I' for Inactive)
REMARK    1  A    between atoms: C_2  and  C_3 
REMARK    2  A    between atoms: C_3  and  C_4 
REMARK    3  A    between atoms: C_4  and  C_5 
REMARK    4  A    between atoms: C_5  and  C_6 
REMARK    5  A    between atoms: C_6  and  C_7 
REMARK    6  A    between atoms: C_7  and  C_8 
REMARK    7  A    between atoms: C_7  and  C_31 
REMARK    8  A    between atoms: C_8  and  C_9 
REMARK    9  A    between atoms: C_10  and  C_11 
REMARK   10  A    between atoms: C_11  and  C_12 
REMARK   11  A    between atoms: C_12  and  C_13 
REMARK   12  A    between atoms: C_13  and  C_14 
REMARK   13  A    between atoms: C_14  and  C_15 
REMARK   14  A    between atoms: C_15  and  C_16 
REMARK   15  A    between atoms: C_16  and  C_17 
REMARK   16  A    between atoms: C_17  and  C_18 
REMARK       I    between atoms: C_18  and  N_20 
REMARK   17  A    between atoms: N_20  and  C_21 
REMARK   18  A    between atoms: C_21  and  C_22 
REMARK   19  A    between atoms: C_25  and  O_26 
REMARK   20  A    between atoms: C_27  and  O_28 
REMARK   21  A    between atoms: C_31  and  C_33 
REMARK   22  A    between atoms: C_33  and  C_34 
ROOT
HETATM    1  C   UNL     1     -21.821  -9.403   0.004  1.00  0.00     0.004 C 
ENDROOT
BRANCH   1   2
HETATM    2  C   UNL     1     -23.346  -9.532   0.035  1.00  0.00     0.027 C 
BRANCH   2   3
HETATM    3  C   UNL     1     -23.768 -10.760  -0.709  1.00  0.00    -0.031 C 
HETATM    4  C   UNL     1     -22.938 -11.799  -0.878  1.00  0.00    -0.030 C 
BRANCH   4   5
HETATM    5  C   UNL     1     -23.219 -12.953  -1.790  1.00  0.00     0.039 C 
BRANCH   5   6
HETATM    6  C   UNL     1     -21.917 -13.636  -2.257  1.00  0.00     0.059 C 
BRANCH   6   7
HETATM    7  C   UNL     1     -20.689 -13.274  -1.385  1.00  0.00     0.012 C 
BRANCH   7   8
HETATM    8  C   UNL     1     -19.382 -13.987  -1.727  1.00  0.00     0.001 C 
BRANCH   8   9
HETATM    9  C   UNL     1     -18.142 -13.124  -1.502  1.00  0.00     0.000 C 
BRANCH   9  10
HETATM   10  C   UNL     1     -17.548 -13.408  -0.124  1.00  0.00    -0.000 C 
BRANCH  10  11
HETATM   11  C   UNL     1     -17.067 -12.132   0.562  1.00  0.00    -0.005 C 
HETATM   12  C   UNL     1     -15.570 -11.949   0.368  1.00  0.00     0.005 C 
ENDBRANCH  10  11
ENDBRANCH   9  10
ENDBRANCH   8   9
ENDBRANCH   7   8
ENDBRANCH   6   7
BRANCH   6  13
HETATM   13  C   UNL     1     -21.605 -13.294  -3.729  1.00  0.00     0.135 C 
HETATM   14  O   UNL     1     -21.317 -14.169  -4.554  1.00  0.00    -0.297 OA
BRANCH  13  15
HETATM   15  C   UNL     1     -21.730 -11.852  -4.175  1.00  0.00     0.117 C 
BRANCH  15  16
HETATM   16  C   UNL     1     -20.405 -11.150  -4.281  1.00  0.00    -0.051 A 
HETATM   17  C   UNL     1     -19.632 -11.257  -5.447  1.00  0.00     0.007 A 
HETATM   18  C   UNL     1     -18.431 -10.560  -5.555  1.00  0.00     0.001 A 
HETATM   19  C   UNL     1     -17.998  -9.752  -4.505  1.00  0.00     0.000 A 
HETATM   20  C   UNL     1     -18.748  -9.648  -3.339  1.00  0.00     0.001 A 
HETATM   21  C   UNL     1     -19.949 -10.344  -3.227  1.00  0.00     0.007 A 
ENDBRANCH  15  16
ENDBRANCH  13  15
ENDBRANCH   6  13
ENDBRANCH   5   6
ENDBRANCH   4   5
ENDBRANCH   2   3
ENDBRANCH   1   2
BRANCH   1  22
HETATM   22  C   UNL     1     -21.359  -8.288  -0.927  1.00  0.00     0.000 C 
BRANCH  22  23
HETATM   23  C   UNL     1     -22.270  -7.056  -0.888  1.00  0.00     0.000 C 
BRANCH  23  24
HETATM   24  C   UNL     1     -22.167  -6.213  -2.155  1.00  0.00     0.000 C 
BRANCH  24  25
HETATM   25  C   UNL     1     -21.336  -6.916  -3.229  1.00  0.00     0.009 C 
BRANCH  25  26
HETATM   26  C   UNL     1     -21.286  -6.109  -4.509  1.00  0.00     0.103 C 
BRANCH  26  27
HETATM   27  C   UNL     1     -21.189  -7.004  -5.729  1.00  0.00     0.217 C 
HETATM   28  O   UNL     1     -21.321  -8.223  -5.697  1.00  0.00    -0.274 OA
HETATM   29  N   UNL     1     -20.931  -6.395  -6.922  1.00  0.00    -0.357 N 
HETATM   30  H   UNL     1     -20.944  -7.034  -7.708  1.00  0.00     0.162 HD
BRANCH  29  31
HETATM   31  C   UNL     1     -20.854  -4.974  -7.179  1.00  0.00     0.161 C 
BRANCH  31  32
HETATM   32  C   UNL     1     -21.117  -4.660  -8.628  1.00  0.00    -0.038 A 
HETATM   33  C   UNL     1     -20.052  -4.610  -9.535  1.00  0.00     0.012 A 
HETATM   34  C   UNL     1     -20.206  -4.342 -10.884  1.00  0.00     0.040 A 
HETATM   35  C   UNL     1     -21.512  -4.136 -11.332  1.00  0.00     0.099 A 
HETATM   36  C   UNL     1     -22.620  -4.175 -10.453  1.00  0.00     0.101 A 
HETATM   37  C   UNL     1     -22.409  -4.429  -9.099  1.00  0.00     0.048 A 
BRANCH  35  38
HETATM   38  O   UNL     1     -21.794  -3.884 -12.642  1.00  0.00    -0.358 OA
HETATM   39  H   UNL     1     -21.728  -3.007 -12.970  1.00  0.00     0.217 HD
ENDBRANCH  35  38
BRANCH  36  40
HETATM   40  O   UNL     1     -23.855  -3.952 -11.010  1.00  0.00    -0.353 OA
HETATM   41  C   UNL     1     -24.854  -3.373 -10.181  1.00  0.00     0.210 C 
ENDBRANCH  36  40
ENDBRANCH  31  32
ENDBRANCH  29  31
ENDBRANCH  26  27
ENDBRANCH  25  26
ENDBRANCH  24  25
ENDBRANCH  23  24
ENDBRANCH  22  23
ENDBRANCH   1  22
TORSDOF 22
ENDMDL
