REMARK  3 active torsions:
REMARK  status: ('A' for Active; 'I' for Inactive)
REMARK    1  A    between atoms: N_9  and  C_10 
REMARK    2  A    between atoms: C_10  and  C_11 
REMARK    3  A    between atoms: C_15  and  C_16 
ROOT
HETATM    1  C   UNL     1       1.426   0.600   0.733  1.00  0.00     0.050 C 
HETATM    2  C   UNL     1       2.863   0.284   0.454  1.00  0.00    -0.033 A 
HETATM    3  C   UNL     1       3.763   1.377   0.386  1.00  0.00     0.033 A 
HETATM    4  C   UNL     1       5.138   1.196   0.188  1.00  0.00     0.035 A 
HETATM    5 CL   UNL     1       6.179   2.562   0.097  1.00  0.00    -0.084 Cl
HETATM    6  C   UNL     1       5.666  -0.079   0.071  1.00  0.00     0.036 A 
HETATM    7  C   UNL     1       4.783  -1.153   0.112  1.00  0.00     0.018 A 
HETATM    8  C   UNL     1       3.390  -0.992   0.259  1.00  0.00     0.053 A 
HETATM    9  N   UNL     1       2.780  -2.267   0.142  1.00  0.00    -0.310 N 
HETATM   10  C   UNL     1       3.742  -3.273  -0.079  1.00  0.00     0.268 C 
HETATM   11  O   UNL     1       3.530  -4.451  -0.331  1.00  0.00    -0.269 OA
HETATM   12  C   UNL     1       5.121  -2.607  -0.000  1.00  0.00     0.227 A 
HETATM   13  N   UNL     1       6.000  -2.911  -1.106  1.00  0.00    -0.313 N 
HETATM   14  C   UNL     1       7.102  -3.616  -0.691  1.00  0.00     0.324 A 
HETATM   15  O   UNL     1       7.978  -4.032  -1.427  1.00  0.00    -0.247 OA
HETATM   16  N   UNL     1       7.063  -3.738   0.654  1.00  0.00    -0.276 N 
HETATM   17  C   UNL     1       5.937  -3.159   1.167  1.00  0.00     0.268 A 
HETATM   18  O   UNL     1       5.662  -3.101   2.354  1.00  0.00    -0.269 OA
HETATM   19  H   UNL     1       5.796  -2.766  -2.083  1.00  0.00     0.166 HD
HETATM   20  H   UNL     1       7.772  -4.199   1.203  1.00  0.00     0.173 HD
ENDROOT
BRANCH   9  21
HETATM   21  C   UNL     1       1.369  -2.578   0.018  1.00  0.00     0.171 C 
BRANCH  21  22
HETATM   22  C   UNL     1       0.713  -3.204   1.238  1.00  0.00    -0.039 A 
HETATM   23  C   UNL     1       1.316  -3.220   2.502  1.00  0.00     0.009 A 
HETATM   24  C   UNL     1       0.728  -3.908   3.567  1.00  0.00     0.001 A 
HETATM   25  C   UNL     1      -0.475  -4.590   3.390  1.00  0.00     0.016 A 
HETATM   26  C   UNL     1      -1.122  -4.571   2.148  1.00  0.00     0.048 A 
HETATM   27  C   UNL     1      -0.532  -3.853   1.089  1.00  0.00     0.025 A 
BRANCH  26  28
HETATM   28  C   UNL     1      -2.404  -5.340   1.935  1.00  0.00     0.417 C 
HETATM   29  F   UNL     1      -2.763  -6.114   2.998  1.00  0.00    -0.166 F 
HETATM   30  F   UNL     1      -3.470  -4.527   1.691  1.00  0.00    -0.166 F 
HETATM   31  F   UNL     1      -2.334  -6.187   0.870  1.00  0.00    -0.166 F 
ENDBRANCH  26  28
ENDBRANCH  21  22
ENDBRANCH   9  21
TORSDOF 3
