MODEL 1
REMARK VINA RESULT:      -8.8      0.000      0.000
REMARK  3 active torsions:
REMARK  status: ('A' for Active; 'I' for Inactive)
REMARK    1  A    between atoms: N_9  and  C_10 
REMARK    2  A    between atoms: C_10  and  C_11 
REMARK    3  A    between atoms: C_15  and  C_16 
ROOT
HETATM    1  C   UNL     1     -21.970  -6.975  -1.432  1.00  0.00     0.050 C 
HETATM    2  C   UNL     1     -21.194  -7.528  -2.588  1.00  0.00    -0.033 A 
HETATM    3  C   UNL     1     -21.305  -6.846  -3.825  1.00  0.00     0.033 A 
HETATM    4  C   UNL     1     -20.581  -7.240  -4.958  1.00  0.00     0.035 A 
HETATM    5 CL   UNL     1     -20.770  -6.384  -6.438  1.00  0.00    -0.084 Cl
HETATM    6  C   UNL     1     -19.707  -8.312  -4.892  1.00  0.00     0.036 A 
HETATM    7  C   UNL     1     -19.614  -9.000  -3.686  1.00  0.00     0.018 A 
HETATM    8  C   UNL     1     -20.371  -8.653  -2.548  1.00  0.00     0.053 A 
HETATM    9  N   UNL     1     -20.127  -9.620  -1.540  1.00  0.00    -0.310 N 
HETATM   10  C   UNL     1     -19.220 -10.602  -1.985  1.00  0.00     0.268 C 
HETATM   11  O   UNL     1     -18.894 -11.623  -1.397  1.00  0.00    -0.269 OA
HETATM   12  C   UNL     1     -18.749 -10.184  -3.384  1.00  0.00     0.227 A 
HETATM   13  N   UNL     1     -18.829 -11.226  -4.382  1.00  0.00    -0.313 N 
HETATM   14  C   UNL     1     -17.585 -11.575  -4.842  1.00  0.00     0.324 A 
HETATM   15  O   UNL     1     -17.367 -12.454  -5.656  1.00  0.00    -0.247 OA
HETATM   16  N   UNL     1     -16.664 -10.768  -4.270  1.00  0.00    -0.276 N 
HETATM   17  C   UNL     1     -17.250  -9.894  -3.400  1.00  0.00     0.268 A 
HETATM   18  O   UNL     1     -16.656  -9.036  -2.767  1.00  0.00    -0.269 OA
HETATM   19  H   UNL     1     -19.656 -11.748  -4.629  1.00  0.00     0.166 HD
HETATM   20  H   UNL     1     -15.675 -10.812  -4.461  1.00  0.00     0.173 HD
ENDROOT
BRANCH   9  21
HETATM   21  C   UNL     1     -20.828  -9.801  -0.283  1.00  0.00     0.171 C 
BRANCH  21  22
HETATM   22  C   UNL     1     -21.958 -10.817  -0.290  1.00  0.00    -0.039 A 
HETATM   23  C   UNL     1     -23.068 -10.715  -1.138  1.00  0.00     0.009 A 
HETATM   24  C   UNL     1     -24.138 -11.608  -1.028  1.00  0.00     0.001 A 
HETATM   25  C   UNL     1     -24.118 -12.621  -0.071  1.00  0.00     0.016 A 
HETATM   26  C   UNL     1     -23.012 -12.772   0.775  1.00  0.00     0.048 A 
HETATM   27  C   UNL     1     -21.929 -11.881   0.638  1.00  0.00     0.025 A 
BRANCH  26  28
HETATM   28  C   UNL     1     -22.998 -13.840   1.843  1.00  0.00     0.417 C 
HETATM   29  F   UNL     1     -21.884 -13.817   2.628  1.00  0.00    -0.166 F 
HETATM   30  F   UNL     1     -24.056 -13.743   2.697  1.00  0.00    -0.166 F 
HETATM   31  F   UNL     1     -23.057 -15.098   1.323  1.00  0.00    -0.166 F 
ENDBRANCH  26  28
ENDBRANCH  21  22
ENDBRANCH   9  21
TORSDOF 3
ENDMDL
MODEL 2
REMARK VINA RESULT:      -8.8      3.575      5.309
REMARK  3 active torsions:
REMARK  status: ('A' for Active; 'I' for Inactive)
REMARK    1  A    between atoms: N_9  and  C_10 
REMARK    2  A    between atoms: C_10  and  C_11 
REMARK    3  A    between atoms: C_15  and  C_16 
ROOT
HETATM    1  C   UNL     1     -16.255  -9.432  -2.702  1.00  0.00     0.050 C 
HETATM    2  C   UNL     1     -16.307 -10.319  -3.907  1.00  0.00    -0.033 A 
HETATM    3  C   UNL     1     -15.080 -10.867  -4.358  1.00  0.00     0.033 A 
HETATM    4  C   UNL     1     -15.016 -11.755  -5.440  1.00  0.00     0.035 A 
HETATM    5 CL   UNL     1     -13.496 -12.375  -5.953  1.00  0.00    -0.084 Cl
HETATM    6  C   UNL     1     -16.173 -12.143  -6.096  1.00  0.00     0.036 A 
HETATM    7  C   UNL     1     -17.376 -11.587  -5.673  1.00  0.00     0.018 A 
HETATM    8  C   UNL     1     -17.457 -10.653  -4.620  1.00  0.00     0.053 A 
HETATM    9  N   UNL     1     -18.800 -10.204  -4.527  1.00  0.00    -0.310 N 
HETATM   10  C   UNL     1     -19.612 -10.824  -5.498  1.00  0.00     0.268 C 
HETATM   11  O   UNL     1     -20.782 -10.570  -5.749  1.00  0.00    -0.269 OA
HETATM   12  C   UNL     1     -18.739 -11.849  -6.231  1.00  0.00     0.227 A 
HETATM   13  N   UNL     1     -18.797 -11.767  -7.673  1.00  0.00    -0.313 N 
HETATM   14  C   UNL     1     -19.347 -12.901  -8.218  1.00  0.00     0.324 A 
HETATM   15  O   UNL     1     -19.548 -13.073  -9.406  1.00  0.00    -0.247 OA
HETATM   16  N   UNL     1     -19.592 -13.788  -7.229  1.00  0.00    -0.276 N 
HETATM   17  C   UNL     1     -19.252 -13.271  -6.011  1.00  0.00     0.268 A 
HETATM   18  O   UNL     1     -19.344 -13.867  -4.950  1.00  0.00    -0.269 OA
HETATM   19  H   UNL     1     -18.602 -10.948  -8.229  1.00  0.00     0.166 HD
HETATM   20  H   UNL     1     -19.977 -14.708  -7.374  1.00  0.00     0.173 HD
ENDROOT
BRANCH   9  21
HETATM   21  C   UNL     1     -19.324  -9.102  -3.743  1.00  0.00     0.171 C 
BRANCH  21  22
HETATM   22  C   UNL     1     -19.871  -9.460  -2.371  1.00  0.00    -0.039 A 
HETATM   23  C   UNL     1     -19.619 -10.688  -1.747  1.00  0.00     0.009 A 
HETATM   24  C   UNL     1     -20.237 -11.018  -0.538  1.00  0.00     0.001 A 
HETATM   25  C   UNL     1     -21.116 -10.125   0.073  1.00  0.00     0.016 A 
HETATM   26  C   UNL     1     -21.369  -8.875  -0.506  1.00  0.00     0.048 A 
HETATM   27  C   UNL     1     -20.721  -8.544  -1.712  1.00  0.00     0.025 A 
BRANCH  26  28
HETATM   28  C   UNL     1     -22.351  -7.917   0.127  1.00  0.00     0.417 C 
HETATM   29  F   UNL     1     -22.597  -6.807  -0.626  1.00  0.00    -0.166 F 
HETATM   30  F   UNL     1     -23.567  -8.487   0.357  1.00  0.00    -0.166 F 
HETATM   31  F   UNL     1     -21.924  -7.455   1.335  1.00  0.00    -0.166 F 
ENDBRANCH  26  28
ENDBRANCH  21  22
ENDBRANCH   9  21
TORSDOF 3
ENDMDL
MODEL 3
REMARK VINA RESULT:      -8.5      4.544      5.879
REMARK  3 active torsions:
REMARK  status: ('A' for Active; 'I' for Inactive)
REMARK    1  A    between atoms: N_9  and  C_10 
REMARK    2  A    between atoms: C_10  and  C_11 
REMARK    3  A    between atoms: C_15  and  C_16 
ROOT
HETATM    1  C   UNL     1     -22.613 -11.247  -3.438  1.00  0.00     0.050 C 
HETATM    2  C   UNL     1     -21.438 -11.758  -4.213  1.00  0.00    -0.033 A 
HETATM    3  C   UNL     1     -21.691 -12.764  -5.179  1.00  0.00     0.033 A 
HETATM    4  C   UNL     1     -20.678 -13.275  -6.003  1.00  0.00     0.035 A 
HETATM    5 CL   UNL     1     -21.041 -14.508  -7.145  1.00  0.00    -0.084 Cl
HETATM    6  C   UNL     1     -19.386 -12.787  -5.906  1.00  0.00     0.036 A 
HETATM    7  C   UNL     1     -19.129 -11.818  -4.942  1.00  0.00     0.018 A 
HETATM    8  C   UNL     1     -20.121 -11.327  -4.068  1.00  0.00     0.053 A 
HETATM    9  N   UNL     1     -19.503 -10.447  -3.143  1.00  0.00    -0.310 N 
HETATM   10  C   UNL     1     -18.118 -10.344  -3.385  1.00  0.00     0.268 C 
HETATM   11  O   UNL     1     -17.293  -9.758  -2.699  1.00  0.00    -0.269 OA
HETATM   12  C   UNL     1     -17.818 -11.155  -4.652  1.00  0.00     0.227 A 
HETATM   13  N   UNL     1     -16.718 -12.084  -4.525  1.00  0.00    -0.313 N 
HETATM   14  C   UNL     1     -15.677 -11.743  -5.351  1.00  0.00     0.324 A 
HETATM   15  O   UNL     1     -14.614 -12.335  -5.409  1.00  0.00    -0.247 OA
HETATM   16  N   UNL     1     -16.040 -10.677  -6.097  1.00  0.00    -0.276 N 
HETATM   17  C   UNL     1     -17.300 -10.258  -5.774  1.00  0.00     0.268 A 
HETATM   18  O   UNL     1     -17.886  -9.333  -6.311  1.00  0.00    -0.269 OA
HETATM   19  H   UNL     1     -16.634 -12.812  -3.831  1.00  0.00     0.166 HD
HETATM   20  H   UNL     1     -15.455 -10.248  -6.797  1.00  0.00     0.173 HD
ENDROOT
BRANCH   9  21
HETATM   21  C   UNL     1     -20.070  -9.868  -1.940  1.00  0.00     0.171 C 
BRANCH  21  22
HETATM   22  C   UNL     1     -20.728  -8.507  -2.100  1.00  0.00    -0.039 A 
HETATM   23  C   UNL     1     -21.508  -7.917  -1.098  1.00  0.00     0.009 A 
HETATM   24  C   UNL     1     -22.188  -6.719  -1.332  1.00  0.00     0.001 A 
HETATM   25  C   UNL     1     -22.098  -6.086  -2.571  1.00  0.00     0.016 A 
HETATM   26  C   UNL     1     -21.303  -6.631  -3.588  1.00  0.00     0.048 A 
HETATM   27  C   UNL     1     -20.603  -7.826  -3.330  1.00  0.00     0.025 A 
BRANCH  26  28
HETATM   28  C   UNL     1     -21.232  -5.976  -4.946  1.00  0.00     0.417 C 
HETATM   29  F   UNL     1     -20.592  -6.728  -5.886  1.00  0.00    -0.166 F 
HETATM   30  F   UNL     1     -22.463  -5.704  -5.463  1.00  0.00    -0.166 F 
HETATM   31  F   UNL     1     -20.572  -4.784  -4.916  1.00  0.00    -0.166 F 
ENDBRANCH  26  28
ENDBRANCH  21  22
ENDBRANCH   9  21
TORSDOF 3
ENDMDL
MODEL 4
REMARK VINA RESULT:      -8.4      3.434      5.181
REMARK  3 active torsions:
REMARK  status: ('A' for Active; 'I' for Inactive)
REMARK    1  A    between atoms: N_9  and  C_10 
REMARK    2  A    between atoms: C_10  and  C_11 
REMARK    3  A    between atoms: C_15  and  C_16 
ROOT
HETATM    1  C   UNL     1     -22.353 -11.662  -4.079  1.00  0.00     0.050 C 
HETATM    2  C   UNL     1     -21.329 -12.206  -3.132  1.00  0.00    -0.033 A 
HETATM    3  C   UNL     1     -21.650 -13.411  -2.457  1.00  0.00     0.033 A 
HETATM    4  C   UNL     1     -20.747 -14.041  -1.592  1.00  0.00     0.035 A 
HETATM    5 CL   UNL     1     -21.199 -15.493  -0.787  1.00  0.00    -0.084 Cl
HETATM    6  C   UNL     1     -19.486 -13.506  -1.385  1.00  0.00     0.036 A 
HETATM    7  C   UNL     1     -19.176 -12.310  -2.026  1.00  0.00     0.018 A 
HETATM    8  C   UNL     1     -20.088 -11.632  -2.860  1.00  0.00     0.053 A 
HETATM    9  N   UNL     1     -19.502 -10.401  -3.251  1.00  0.00    -0.310 N 
HETATM   10  C   UNL     1     -18.217 -10.249  -2.693  1.00  0.00     0.268 C 
HETATM   11  O   UNL     1     -17.503  -9.258  -2.749  1.00  0.00    -0.269 OA
HETATM   12  C   UNL     1     -17.890 -11.548  -1.947  1.00  0.00     0.227 A 
HETATM   13  N   UNL     1     -17.413 -11.362  -0.596  1.00  0.00    -0.313 N 
HETATM   14  C   UNL     1     -16.116 -11.791  -0.459  1.00  0.00     0.324 A 
HETATM   15  O   UNL     1     -15.463 -11.710   0.565  1.00  0.00    -0.247 OA
HETATM   16  N   UNL     1     -15.710 -12.338  -1.626  1.00  0.00    -0.276 N 
HETATM   17  C   UNL     1     -16.693 -12.261  -2.572  1.00  0.00     0.268 A 
HETATM   18  O   UNL     1     -16.604 -12.700  -3.706  1.00  0.00    -0.269 OA
HETATM   19  H   UNL     1     -17.889 -10.859   0.138  1.00  0.00     0.166 HD
HETATM   20  H   UNL     1     -14.800 -12.745  -1.776  1.00  0.00     0.173 HD
ENDROOT
BRANCH   9  21
HETATM   21  C   UNL     1     -20.131  -9.284  -3.929  1.00  0.00     0.171 C 
BRANCH  21  22
HETATM   22  C   UNL     1     -20.942  -8.342  -3.055  1.00  0.00    -0.039 A 
HETATM   23  C   UNL     1     -21.208  -7.013  -3.410  1.00  0.00     0.009 A 
HETATM   24  C   UNL     1     -21.858  -6.151  -2.523  1.00  0.00     0.001 A 
HETATM   25  C   UNL     1     -22.258  -6.602  -1.265  1.00  0.00     0.016 A 
HETATM   26  C   UNL     1     -22.037  -7.932  -0.887  1.00  0.00     0.048 A 
HETATM   27  C   UNL     1     -21.402  -8.798  -1.800  1.00  0.00     0.025 A 
BRANCH  26  28
HETATM   28  C   UNL     1     -22.430  -8.418   0.487  1.00  0.00     0.417 C 
HETATM   29  F   UNL     1     -22.318  -9.768   0.644  1.00  0.00    -0.166 F 
HETATM   30  F   UNL     1     -21.673  -7.865   1.476  1.00  0.00    -0.166 F 
HETATM   31  F   UNL     1     -23.721  -8.117   0.798  1.00  0.00    -0.166 F 
ENDBRANCH  26  28
ENDBRANCH  21  22
ENDBRANCH   9  21
TORSDOF 3
ENDMDL
MODEL 5
REMARK VINA RESULT:      -8.1      5.125      7.403
REMARK  3 active torsions:
REMARK  status: ('A' for Active; 'I' for Inactive)
REMARK    1  A    between atoms: N_9  and  C_10 
REMARK    2  A    between atoms: C_10  and  C_11 
REMARK    3  A    between atoms: C_15  and  C_16 
ROOT
HETATM    1  C   UNL     1     -16.759  -9.558  -3.374  1.00  0.00     0.050 C 
HETATM    2  C   UNL     1     -17.186 -10.527  -2.315  1.00  0.00    -0.033 A 
HETATM    3  C   UNL     1     -16.169 -11.073  -1.492  1.00  0.00     0.033 A 
HETATM    4  C   UNL     1     -16.458 -11.944  -0.434  1.00  0.00     0.035 A 
HETATM    5 CL   UNL     1     -15.181 -12.589   0.521  1.00  0.00    -0.084 Cl
HETATM    6  C   UNL     1     -17.770 -12.285  -0.146  1.00  0.00     0.036 A 
HETATM    7  C   UNL     1     -18.768 -11.771  -0.967  1.00  0.00     0.018 A 
HETATM    8  C   UNL     1     -18.496 -10.934  -2.069  1.00  0.00     0.053 A 
HETATM    9  N   UNL     1     -19.714 -10.691  -2.754  1.00  0.00    -0.310 N 
HETATM   10  C   UNL     1     -20.791 -11.350  -2.127  1.00  0.00     0.268 C 
HETATM   11  O   UNL     1     -21.942 -11.429  -2.534  1.00  0.00    -0.269 OA
HETATM   12  C   UNL     1     -20.242 -12.005  -0.854  1.00  0.00     0.227 A 
HETATM   13  N   UNL     1     -20.594 -13.398  -0.695  1.00  0.00    -0.313 N 
HETATM   14  C   UNL     1     -21.396 -13.590   0.402  1.00  0.00     0.324 A 
HETATM   15  O   UNL     1     -21.867 -14.661   0.739  1.00  0.00    -0.247 OA
HETATM   16  N   UNL     1     -21.543 -12.413   1.049  1.00  0.00    -0.276 N 
HETATM   17  C   UNL     1     -20.884 -11.409   0.397  1.00  0.00     0.268 A 
HETATM   18  O   UNL     1     -20.829 -10.251   0.776  1.00  0.00    -0.269 OA
HETATM   19  H   UNL     1     -20.412 -14.135  -1.359  1.00  0.00     0.166 HD
HETATM   20  H   UNL     1     -22.072 -12.295   1.899  1.00  0.00     0.173 HD
ENDROOT
BRANCH   9  21
HETATM   21  C   UNL     1     -19.906 -10.066  -4.049  1.00  0.00     0.171 C 
BRANCH  21  22
HETATM   22  C   UNL     1     -20.296  -8.597  -4.031  1.00  0.00    -0.039 A 
HETATM   23  C   UNL     1     -20.893  -7.982  -2.923  1.00  0.00     0.009 A 
HETATM   24  C   UNL     1     -21.340  -6.660  -2.993  1.00  0.00     0.001 A 
HETATM   25  C   UNL     1     -21.195  -5.926  -4.170  1.00  0.00     0.016 A 
HETATM   26  C   UNL     1     -20.575  -6.498  -5.288  1.00  0.00     0.048 A 
HETATM   27  C   UNL     1     -20.107  -7.824  -5.197  1.00  0.00     0.025 A 
BRANCH  26  28
HETATM   28  C   UNL     1     -20.450  -5.726  -6.579  1.00  0.00     0.417 C 
HETATM   29  F   UNL     1     -20.677  -4.389  -6.444  1.00  0.00    -0.166 F 
HETATM   30  F   UNL     1     -19.213  -5.838  -7.141  1.00  0.00    -0.166 F 
HETATM   31  F   UNL     1     -21.327  -6.154  -7.531  1.00  0.00    -0.166 F 
ENDBRANCH  26  28
ENDBRANCH  21  22
ENDBRANCH   9  21
TORSDOF 3
ENDMDL
MODEL 6
REMARK VINA RESULT:      -8.0      5.287      6.761
REMARK  3 active torsions:
REMARK  status: ('A' for Active; 'I' for Inactive)
REMARK    1  A    between atoms: N_9  and  C_10 
REMARK    2  A    between atoms: C_10  and  C_11 
REMARK    3  A    between atoms: C_15  and  C_16 
ROOT
HETATM    1  C   UNL     1     -21.745 -11.565  -6.743  1.00  0.00     0.050 C 
HETATM    2  C   UNL     1     -20.322 -12.031  -6.743  1.00  0.00    -0.033 A 
HETATM    3  C   UNL     1     -19.942 -12.947  -7.756  1.00  0.00     0.033 A 
HETATM    4  C   UNL     1     -18.625 -13.405  -7.887  1.00  0.00     0.035 A 
HETATM    5 CL   UNL     1     -18.227 -14.530  -9.126  1.00  0.00    -0.084 Cl
HETATM    6  C   UNL     1     -17.638 -12.953  -7.028  1.00  0.00     0.036 A 
HETATM    7  C   UNL     1     -18.011 -12.073  -6.017  1.00  0.00     0.018 A 
HETATM    8  C   UNL     1     -19.340 -11.639  -5.834  1.00  0.00     0.053 A 
HETATM    9  N   UNL     1     -19.393 -10.853  -4.655  1.00  0.00    -0.310 N 
HETATM   10  C   UNL     1     -18.124 -10.757  -4.050  1.00  0.00     0.268 C 
HETATM   11  O   UNL     1     -17.860 -10.246  -2.970  1.00  0.00    -0.269 OA
HETATM   12  C   UNL     1     -17.126 -11.463  -4.975  1.00  0.00     0.227 A 
HETATM   13  N   UNL     1     -16.268 -12.421  -4.315  1.00  0.00    -0.313 N 
HETATM   14  C   UNL     1     -14.952 -12.032  -4.364  1.00  0.00     0.324 A 
HETATM   15  O   UNL     1     -14.030 -12.637  -3.850  1.00  0.00    -0.247 OA
HETATM   16  N   UNL     1     -14.857 -10.899  -5.096  1.00  0.00    -0.276 N 
HETATM   17  C   UNL     1     -16.088 -10.485  -5.521  1.00  0.00     0.268 A 
HETATM   18  O   UNL     1     -16.290  -9.506  -6.220  1.00  0.00    -0.269 OA
HETATM   19  H   UNL     1     -16.572 -13.206  -3.760  1.00  0.00     0.166 HD
HETATM   20  H   UNL     1     -13.991 -10.424  -5.296  1.00  0.00     0.173 HD
ENDROOT
BRANCH   9  21
HETATM   21  C   UNL     1     -20.566 -10.367  -3.953  1.00  0.00     0.171 C 
BRANCH  21  22
HETATM   22  C   UNL     1     -20.738  -8.857  -3.906  1.00  0.00    -0.039 A 
HETATM   23  C   UNL     1     -21.261  -8.186  -2.794  1.00  0.00     0.009 A 
HETATM   24  C   UNL     1     -21.509  -6.811  -2.839  1.00  0.00     0.001 A 
HETATM   25  C   UNL     1     -21.235  -6.081  -3.995  1.00  0.00     0.016 A 
HETATM   26  C   UNL     1     -20.684  -6.714  -5.116  1.00  0.00     0.048 A 
HETATM   27  C   UNL     1     -20.415  -8.095  -5.049  1.00  0.00     0.025 A 
BRANCH  26  28
HETATM   28  C   UNL     1     -20.422  -5.940  -6.386  1.00  0.00     0.417 C 
HETATM   29  F   UNL     1     -20.273  -4.599  -6.192  1.00  0.00    -0.166 F 
HETATM   30  F   UNL     1     -19.292  -6.350  -7.028  1.00  0.00    -0.166 F 
HETATM   31  F   UNL     1     -21.430  -6.070  -7.294  1.00  0.00    -0.166 F 
ENDBRANCH  26  28
ENDBRANCH  21  22
ENDBRANCH   9  21
TORSDOF 3
ENDMDL
MODEL 7
REMARK VINA RESULT:      -8.0      3.769      5.490
REMARK  3 active torsions:
REMARK  status: ('A' for Active; 'I' for Inactive)
REMARK    1  A    between atoms: N_9  and  C_10 
REMARK    2  A    between atoms: C_10  and  C_11 
REMARK    3  A    between atoms: C_15  and  C_16 
ROOT
HETATM    1  C   UNL     1     -21.663 -12.020  -6.768  1.00  0.00     0.050 C 
HETATM    2  C   UNL     1     -20.214 -12.381  -6.870  1.00  0.00    -0.033 A 
HETATM    3  C   UNL     1     -19.805 -13.091  -8.027  1.00  0.00     0.033 A 
HETATM    4  C   UNL     1     -18.465 -13.430  -8.256  1.00  0.00     0.035 A 
HETATM    5 CL   UNL     1     -18.032 -14.308  -9.671  1.00  0.00    -0.084 Cl
HETATM    6  C   UNL     1     -17.485 -13.057  -7.352  1.00  0.00     0.036 A 
HETATM    7  C   UNL     1     -17.885 -12.382  -6.204  1.00  0.00     0.018 A 
HETATM    8  C   UNL     1     -19.233 -12.075  -5.928  1.00  0.00     0.053 A 
HETATM    9  N   UNL     1     -19.302 -11.498  -4.634  1.00  0.00    -0.310 N 
HETATM   10  C   UNL     1     -18.024 -11.414  -4.046  1.00  0.00     0.268 C 
HETATM   11  O   UNL     1     -17.762 -11.069  -2.901  1.00  0.00    -0.269 OA
HETATM   12  C   UNL     1     -17.010 -11.890  -5.093  1.00  0.00     0.227 A 
HETATM   13  N   UNL     1     -16.073 -12.880  -4.615  1.00  0.00    -0.313 N 
HETATM   14  C   UNL     1     -14.787 -12.399  -4.624  1.00  0.00     0.324 A 
HETATM   15  O   UNL     1     -13.812 -13.015  -4.234  1.00  0.00    -0.247 OA
HETATM   16  N   UNL     1     -14.788 -11.159  -5.161  1.00  0.00    -0.276 N 
HETATM   17  C   UNL     1     -16.054 -10.767  -5.489  1.00  0.00     0.268 A 
HETATM   18  O   UNL     1     -16.341  -9.703  -6.014  1.00  0.00    -0.269 OA
HETATM   19  H   UNL     1     -16.308 -13.765  -4.192  1.00  0.00     0.166 HD
HETATM   20  H   UNL     1     -13.960 -10.599  -5.296  1.00  0.00     0.173 HD
ENDROOT
BRANCH   9  21
HETATM   21  C   UNL     1     -20.482 -11.214  -3.841  1.00  0.00     0.171 C 
BRANCH  21  22
HETATM   22  C   UNL     1     -20.828  -9.745  -3.659  1.00  0.00    -0.039 A 
HETATM   23  C   UNL     1     -20.599  -8.782  -4.649  1.00  0.00     0.009 A 
HETATM   24  C   UNL     1     -20.825  -7.426  -4.395  1.00  0.00     0.001 A 
HETATM   25  C   UNL     1     -21.288  -7.009  -3.148  1.00  0.00     0.016 A 
HETATM   26  C   UNL     1     -21.558  -7.947  -2.144  1.00  0.00     0.048 A 
HETATM   27  C   UNL     1     -21.349  -9.312  -2.420  1.00  0.00     0.025 A 
BRANCH  26  28
HETATM   28  C   UNL     1     -22.021  -7.501  -0.777  1.00  0.00     0.417 C 
HETATM   29  F   UNL     1     -23.153  -8.129  -0.350  1.00  0.00    -0.166 F 
HETATM   30  F   UNL     1     -21.087  -7.720   0.191  1.00  0.00    -0.166 F 
HETATM   31  F   UNL     1     -22.298  -6.168  -0.728  1.00  0.00    -0.166 F 
ENDBRANCH  26  28
ENDBRANCH  21  22
ENDBRANCH   9  21
TORSDOF 3
ENDMDL
MODEL 8
REMARK VINA RESULT:      -7.9      4.617      6.186
REMARK  3 active torsions:
REMARK  status: ('A' for Active; 'I' for Inactive)
REMARK    1  A    between atoms: N_9  and  C_10 
REMARK    2  A    between atoms: C_10  and  C_11 
REMARK    3  A    between atoms: C_15  and  C_16 
ROOT
HETATM    1  C   UNL     1     -17.053  -9.795  -2.611  1.00  0.00     0.050 C 
HETATM    2  C   UNL     1     -17.814 -10.620  -3.602  1.00  0.00    -0.033 A 
HETATM    3  C   UNL     1     -17.149 -10.960  -4.806  1.00  0.00     0.033 A 
HETATM    4  C   UNL     1     -17.742 -11.775  -5.779  1.00  0.00     0.035 A 
HETATM    5 CL   UNL     1     -16.892 -12.139  -7.229  1.00  0.00    -0.084 Cl
HETATM    6  C   UNL     1     -19.010 -12.295  -5.577  1.00  0.00     0.036 A 
HETATM    7  C   UNL     1     -19.676 -11.944  -4.408  1.00  0.00     0.018 A 
HETATM    8  C   UNL     1     -19.119 -11.084  -3.439  1.00  0.00     0.053 A 
HETATM    9  N   UNL     1     -20.099 -10.842  -2.443  1.00  0.00    -0.310 N 
HETATM   10  C   UNL     1     -21.297 -11.526  -2.731  1.00  0.00     0.268 C 
HETATM   11  O   UNL     1     -22.359 -11.434  -2.130  1.00  0.00    -0.269 OA
HETATM   12  C   UNL     1     -21.045 -12.375  -3.982  1.00  0.00     0.227 A 
HETATM   13  N   UNL     1     -22.043 -12.232  -5.018  1.00  0.00    -0.313 N 
HETATM   14  C   UNL     1     -22.724 -13.406  -5.223  1.00  0.00     0.324 A 
HETATM   15  O   UNL     1     -23.642 -13.547  -6.010  1.00  0.00    -0.247 OA
HETATM   16  N   UNL     1     -22.187 -14.367  -4.440  1.00  0.00    -0.276 N 
HETATM   17  C   UNL     1     -21.172 -13.866  -3.675  1.00  0.00     0.268 A 
HETATM   18  O   UNL     1     -20.497 -14.520  -2.897  1.00  0.00    -0.269 OA
HETATM   19  H   UNL     1     -22.326 -11.367  -5.453  1.00  0.00     0.166 HD
HETATM   20  H   UNL     1     -22.499 -15.325  -4.422  1.00  0.00     0.173 HD
ENDROOT
BRANCH   9  21
HETATM   21  C   UNL     1     -20.064  -9.869  -1.368  1.00  0.00     0.171 C 
BRANCH  21  22
HETATM   22  C   UNL     1     -20.747  -8.540  -1.647  1.00  0.00    -0.039 A 
HETATM   23  C   UNL     1     -21.604  -7.918  -0.731  1.00  0.00     0.009 A 
HETATM   24  C   UNL     1     -22.299  -6.756  -1.076  1.00  0.00     0.001 A 
HETATM   25  C   UNL     1     -22.149  -6.192  -2.343  1.00  0.00     0.016 A 
HETATM   26  C   UNL     1     -21.278  -6.770  -3.275  1.00  0.00     0.048 A 
HETATM   27  C   UNL     1     -20.563  -7.927  -2.906  1.00  0.00     0.025 A 
BRANCH  26  28
HETATM   28  C   UNL     1     -21.140  -6.191  -4.662  1.00  0.00     0.417 C 
HETATM   29  F   UNL     1     -20.553  -4.960  -4.688  1.00  0.00    -0.166 F 
HETATM   30  F   UNL     1     -20.391  -6.976  -5.487  1.00  0.00    -0.166 F 
HETATM   31  F   UNL     1     -22.341  -6.039  -5.287  1.00  0.00    -0.166 F 
ENDBRANCH  26  28
ENDBRANCH  21  22
ENDBRANCH   9  21
TORSDOF 3
ENDMDL
MODEL 9
REMARK VINA RESULT:      -7.8      3.444      4.824
REMARK  3 active torsions:
REMARK  status: ('A' for Active; 'I' for Inactive)
REMARK    1  A    between atoms: N_9  and  C_10 
REMARK    2  A    between atoms: C_10  and  C_11 
REMARK    3  A    between atoms: C_15  and  C_16 
ROOT
HETATM    1  C   UNL     1     -21.965 -11.368  -6.773  1.00  0.00     0.050 C 
HETATM    2  C   UNL     1     -20.614 -11.933  -6.457  1.00  0.00    -0.033 A 
HETATM    3  C   UNL     1     -20.282 -13.178  -7.046  1.00  0.00     0.033 A 
HETATM    4  C   UNL     1     -19.026 -13.773  -6.868  1.00  0.00     0.035 A 
HETATM    5 CL   UNL     1     -18.685 -15.294  -7.593  1.00  0.00    -0.084 Cl
HETATM    6  C   UNL     1     -18.052 -13.138  -6.113  1.00  0.00     0.036 A 
HETATM    7  C   UNL     1     -18.384 -11.928  -5.513  1.00  0.00     0.018 A 
HETATM    8  C   UNL     1     -19.657 -11.336  -5.637  1.00  0.00     0.053 A 
HETATM    9  N   UNL     1     -19.695 -10.183  -4.812  1.00  0.00    -0.310 N 
HETATM   10  C   UNL     1     -18.469  -9.996  -4.143  1.00  0.00     0.268 C 
HETATM   11  O   UNL     1     -18.220  -9.164  -3.282  1.00  0.00    -0.269 OA
HETATM   12  C   UNL     1     -17.504 -11.073  -4.655  1.00  0.00     0.227 A 
HETATM   13  N   UNL     1     -16.820 -11.810  -3.617  1.00  0.00    -0.313 N 
HETATM   14  C   UNL     1     -15.466 -11.586  -3.653  1.00  0.00     0.324 A 
HETATM   15  O   UNL     1     -14.664 -12.052  -2.865  1.00  0.00    -0.247 OA
HETATM   16  N   UNL     1     -15.180 -10.799  -4.713  1.00  0.00    -0.276 N 
HETATM   17  C   UNL     1     -16.317 -10.451  -5.387  1.00  0.00     0.268 A 
HETATM   18  O   UNL     1     -16.346  -9.769  -6.397  1.00  0.00    -0.269 OA
HETATM   19  H   UNL     1     -17.257 -12.317  -2.862  1.00  0.00     0.166 HD
HETATM   20  H   UNL     1     -14.250 -10.507  -4.969  1.00  0.00     0.173 HD
ENDROOT
BRANCH   9  21
HETATM   21  C   UNL     1     -20.844  -9.375  -4.453  1.00  0.00     0.171 C 
BRANCH  21  22
HETATM   22  C   UNL     1     -21.537  -9.740  -3.150  1.00  0.00    -0.039 A 
HETATM   23  C   UNL     1     -22.191 -10.963  -2.954  1.00  0.00     0.009 A 
HETATM   24  C   UNL     1     -22.913 -11.208  -1.783  1.00  0.00     0.001 A 
HETATM   25  C   UNL     1     -22.992 -10.238  -0.784  1.00  0.00     0.016 A 
HETATM   26  C   UNL     1     -22.325  -9.015  -0.933  1.00  0.00     0.048 A 
HETATM   27  C   UNL     1     -21.580  -8.790  -2.107  1.00  0.00     0.025 A 
BRANCH  26  28
HETATM   28  C   UNL     1     -22.437  -7.943   0.124  1.00  0.00     0.417 C 
HETATM   29  F   UNL     1     -23.624  -7.955   0.795  1.00  0.00    -0.166 F 
HETATM   30  F   UNL     1     -21.470  -8.043   1.079  1.00  0.00    -0.166 F 
HETATM   31  F   UNL     1     -22.319  -6.687  -0.392  1.00  0.00    -0.166 F 
ENDBRANCH  26  28
ENDBRANCH  21  22
ENDBRANCH   9  21
TORSDOF 3
ENDMDL
