REMARK  15 active torsions:
REMARK  status: ('A' for Active; 'I' for Inactive)
REMARK    1  A    between atoms: O_2  and  C_3 
REMARK    2  A    between atoms: C_5  and  C_6 
REMARK    3  A    between atoms: C_6  and  C_7 
REMARK    4  A    between atoms: C_7  and  O_9 
REMARK    5  A    between atoms: O_9  and  C_10 
REMARK    6  A    between atoms: C_10  and  C_11 
REMARK    7  A    between atoms: C_18  and  O_19 
REMARK    8  A    between atoms: O_19  and  C_20 
REMARK    9  A    between atoms: C_23  and  O_24 
REMARK   10  A    between atoms: O_24  and  C_25 
REMARK   11  A    between atoms: C_25  and  C_27 
REMARK   12  A    between atoms: C_27  and  C_28 
REMARK   13  A    between atoms: C_36  and  O_37 
REMARK   14  A    between atoms: C_44  and  O_45 
REMARK   15  A    between atoms: C_49  and  O_50 
ROOT
HETATM    1  C   UNL     1      -1.552   7.127  -0.675  1.00  0.00    -0.050 C 
HETATM    2  C   UNL     1      -1.887   8.181   0.318  1.00  0.00    -0.013 C 
HETATM    3  C   UNL     1      -1.848   8.168   2.219  1.00  0.00     0.052 C 
HETATM    4  C   UNL     1      -2.438   9.465   3.174  1.00  0.00     0.046 A 
HETATM    5  C   UNL     1      -1.713  10.737   3.605  1.00  0.00    -0.005 A 
HETATM    6  C   UNL     1      -0.633  11.105   2.629  1.00  0.00     0.018 C 
HETATM    7  C   UNL     1      -2.382  11.995   4.143  1.00  0.00     0.018 C 
HETATM    8  C   UNL     1      -1.865   9.569   4.622  1.00  0.00     0.110 A 
HETATM    9  C   UNL     1      -0.918   8.471   4.963  1.00  0.00     0.174 C 
HETATM   10  C   UNL     1      -1.683   7.073   4.716  1.00  0.00     0.050 C 
HETATM   11  C   UNL     1      -3.216   6.975   4.883  1.00  0.00     0.016 C 
HETATM   12  C   UNL     1      -1.273   6.693   3.319  1.00  0.00     0.086 C 
HETATM   13  C   UNL     1      -1.606   5.023   2.661  1.00  0.00     0.131 A 
HETATM   14  C   UNL     1      -2.979   4.879   2.175  1.00  0.00    -0.000 C 
HETATM   15  C   UNL     1      -3.000   5.864   1.293  1.00  0.00    -0.029 C 
HETATM   16  C   UNL     1      -4.278   6.598   0.989  1.00  0.00     0.051 C 
HETATM   17  C   UNL     1      -1.274   6.025   1.241  1.00  0.00     0.099 A 
HETATM   18  O   UNL     1      -0.328   6.863   1.282  1.00  0.00    -0.304 OA
HETATM   19  C   UNL     1      -0.792   4.716   1.229  1.00  0.00     0.134 A 
HETATM   20  C   UNL     1      -0.825   5.453  -0.343  1.00  0.00     0.141 A 
ENDROOT
BRANCH   1  21
HETATM   21  C   UNL     1      -1.743   6.947  -2.179  1.00  0.00     0.213 C 
BRANCH  21  22
HETATM   22  O   UNL     1      -2.473   7.902  -2.921  1.00  0.00    -0.317 OA
BRANCH  22  23
HETATM   23  C   UNL     1      -3.685   7.412  -3.315  1.00  0.00     0.263 C 
HETATM   24  O   UNL     1      -4.365   6.639  -2.652  1.00  0.00    -0.265 OA
BRANCH  23  25
HETATM   25  C   UNL     1      -4.025   7.719  -4.749  1.00  0.00     0.149 C 
BRANCH  25  26
HETATM   26  C   UNL     1      -3.621   9.074  -5.254  1.00  0.00    -0.046 A 
HETATM   27  C   UNL     1      -2.433   9.225  -5.984  1.00  0.00     0.047 A 
HETATM   28  C   UNL     1      -2.113  10.450  -6.572  1.00  0.00     0.101 A 
HETATM   29  C   UNL     1      -2.954  11.547  -6.351  1.00  0.00     0.099 A 
HETATM   30  C   UNL     1      -4.110  11.420  -5.580  1.00  0.00     0.040 A 
HETATM   31  C   UNL     1      -4.448  10.181  -5.040  1.00  0.00     0.010 A 
BRANCH  28  32
HETATM   32  O   UNL     1      -1.005  10.640  -7.357  1.00  0.00    -0.353 OA
HETATM   33  C   UNL     1      -0.609   9.500  -8.114  1.00  0.00     0.210 C 
ENDBRANCH  28  32
BRANCH  29  34
HETATM   34  O   UNL     1      -2.650  12.751  -6.928  1.00  0.00    -0.358 OA
HETATM   35  H   UNL     1      -3.348  13.388  -6.711  1.00  0.00     0.217 HD
ENDBRANCH  29  34
ENDBRANCH  25  26
ENDBRANCH  23  25
ENDBRANCH  22  23
ENDBRANCH  21  22
ENDBRANCH   1  21
BRANCH  19  36
HETATM   36  O   UNL     1       0.592   4.576   1.594  1.00  0.00    -0.381 OA
HETATM   37  H   UNL     1       0.854   5.446   1.986  1.00  0.00     0.211 HD
ENDBRANCH  19  36
BRANCH  12  38
HETATM   38  O   UNL     1       0.189   6.479   3.492  1.00  0.00    -0.387 OA
HETATM   39  H   UNL     1       0.317   5.814   4.191  1.00  0.00     0.210 HD
ENDBRANCH  12  38
BRANCH   8  40
HETATM   40  O   UNL     1      -2.862   9.741   5.733  1.00  0.00    -0.306 OA
BRANCH  40  41
HETATM   41  C   UNL     1      -2.404   9.782   7.035  1.00  0.00     0.255 C 
HETATM   42  C   UNL     1      -3.399   9.265   8.054  1.00  0.00     0.126 C 
HETATM   43  O   UNL     1      -1.268  10.085   7.376  1.00  0.00    -0.266 OA
ENDBRANCH  40  41
ENDBRANCH   8  40
BRANCH   9  44
HETATM   44  O   UNL     1       0.258   8.658   4.148  1.00  0.00    -0.312 OA
BRANCH  44  45
HETATM   45  C   UNL     1       1.195   9.581   4.430  1.00  0.00     0.263 C 
HETATM   46  O   UNL     1       1.194  10.298   5.435  1.00  0.00    -0.265 OA
BRANCH  45  47
HETATM   47  C   UNL     1       2.196   9.737   3.286  1.00  0.00     0.149 C 
BRANCH  47  48
HETATM   48  C   UNL     1       3.594   9.470   3.750  1.00  0.00    -0.049 A 
HETATM   49  C   UNL     1       4.127   8.183   3.633  1.00  0.00     0.007 A 
HETATM   50  C   UNL     1       5.345   7.881   4.233  1.00  0.00     0.001 A 
HETATM   51  C   UNL     1       6.039   8.863   4.939  1.00  0.00     0.000 A 
HETATM   52  C   UNL     1       5.535  10.156   5.014  1.00  0.00     0.001 A 
HETATM   53  C   UNL     1       4.318  10.466   4.416  1.00  0.00     0.007 A 
ENDBRANCH  47  48
ENDBRANCH  45  47
ENDBRANCH  44  45
ENDBRANCH   9  44
TORSDOF 15
