MODEL 1
REMARK VINA RESULT:      -9.3      0.000      0.000
REMARK  15 active torsions:
REMARK  status: ('A' for Active; 'I' for Inactive)
REMARK    1  A    between atoms: O_2  and  C_3 
REMARK    2  A    between atoms: C_5  and  C_6 
REMARK    3  A    between atoms: C_6  and  C_7 
REMARK    4  A    between atoms: C_7  and  O_9 
REMARK    5  A    between atoms: O_9  and  C_10 
REMARK    6  A    between atoms: C_10  and  C_11 
REMARK    7  A    between atoms: C_18  and  O_19 
REMARK    8  A    between atoms: O_19  and  C_20 
REMARK    9  A    between atoms: C_23  and  O_24 
REMARK   10  A    between atoms: O_24  and  C_25 
REMARK   11  A    between atoms: C_25  and  C_27 
REMARK   12  A    between atoms: C_27  and  C_28 
REMARK   13  A    between atoms: C_36  and  O_37 
REMARK   14  A    between atoms: C_44  and  O_45 
REMARK   15  A    between atoms: C_49  and  O_50 
ROOT
HETATM    1  C   UNL     1     -21.052  -8.748  -5.064  1.00  0.00    -0.050 C 
HETATM    2  C   UNL     1     -21.859  -9.808  -4.405  1.00  0.00    -0.013 C 
HETATM    3  C   UNL     1     -21.337 -11.358  -3.435  1.00  0.00     0.052 C 
HETATM    4  C   UNL     1     -22.454 -12.541  -2.893  1.00  0.00     0.046 A 
HETATM    5  C   UNL     1     -23.282 -12.553  -1.611  1.00  0.00    -0.005 A 
HETATM    6  C   UNL     1     -23.542 -11.159  -1.118  1.00  0.00     0.018 C 
HETATM    7  C   UNL     1     -24.497 -13.434  -1.353  1.00  0.00     0.018 C 
HETATM    8  C   UNL     1     -21.994 -13.423  -1.691  1.00  0.00     0.110 A 
HETATM    9  C   UNL     1     -20.609 -13.121  -1.233  1.00  0.00     0.174 C 
HETATM   10  C   UNL     1     -19.630 -13.277  -2.506  1.00  0.00     0.050 C 
HETATM   11  C   UNL     1     -19.968 -14.269  -3.641  1.00  0.00     0.016 C 
HETATM   12  C   UNL     1     -19.523 -11.874  -3.038  1.00  0.00     0.086 C 
HETATM   13  C   UNL     1     -18.270 -11.435  -4.291  1.00  0.00     0.131 A 
HETATM   14  C   UNL     1     -18.688 -11.795  -5.647  1.00  0.00    -0.000 C 
HETATM   15  C   UNL     1     -19.827 -11.125  -5.706  1.00  0.00    -0.029 C 
HETATM   16  C   UNL     1     -20.971 -11.625  -6.546  1.00  0.00     0.051 C 
HETATM   17  C   UNL     1     -19.457 -10.123  -4.340  1.00  0.00     0.099 A 
HETATM   18  O   UNL     1     -19.921  -9.668  -3.255  1.00  0.00    -0.304 OA
HETATM   19  C   UNL     1     -18.114  -9.780  -4.500  1.00  0.00     0.134 A 
HETATM   20  C   UNL     1     -19.210  -8.534  -5.012  1.00  0.00     0.141 A 
ENDROOT
BRANCH   1  21
HETATM   21  C   UNL     1     -21.341  -7.602  -6.031  1.00  0.00     0.213 C 
BRANCH  21  22
HETATM   22  O   UNL     1     -21.879  -6.388  -5.552  1.00  0.00    -0.317 OA
BRANCH  22  23
HETATM   23  C   UNL     1     -21.213  -5.309  -6.059  1.00  0.00     0.263 C 
HETATM   24  O   UNL     1     -20.077  -4.986  -5.736  1.00  0.00    -0.265 OA
BRANCH  23  25
HETATM   25  C   UNL     1     -22.078  -4.398  -6.889  1.00  0.00     0.149 C 
BRANCH  25  26
HETATM   26  C   UNL     1     -21.839  -4.422  -8.371  1.00  0.00    -0.046 A 
HETATM   27  C   UNL     1     -22.923  -4.529  -9.255  1.00  0.00     0.047 A 
HETATM   28  C   UNL     1     -22.728  -4.418 -10.633  1.00  0.00     0.101 A 
HETATM   29  C   UNL     1     -21.424  -4.283 -11.123  1.00  0.00     0.099 A 
HETATM   30  C   UNL     1     -20.334  -4.231 -10.254  1.00  0.00     0.040 A 
HETATM   31  C   UNL     1     -20.543  -4.291  -8.878  1.00  0.00     0.010 A 
BRANCH  28  32
HETATM   32  O   UNL     1     -23.755  -4.441 -11.541  1.00  0.00    -0.353 OA
HETATM   33  C   UNL     1     -24.407  -3.189 -11.735  1.00  0.00     0.210 C 
ENDBRANCH  28  32
BRANCH  29  34
HETATM   34  O   UNL     1     -21.225  -4.169 -12.473  1.00  0.00    -0.358 OA
HETATM   35  H   UNL     1     -21.991  -3.724 -12.867  1.00  0.00     0.217 HD
ENDBRANCH  29  34
ENDBRANCH  25  26
ENDBRANCH  23  25
ENDBRANCH  22  23
ENDBRANCH  21  22
ENDBRANCH   1  21
BRANCH  19  36
HETATM   36  O   UNL     1     -17.465  -9.300  -3.310  1.00  0.00    -0.381 OA
HETATM   37  H   UNL     1     -16.764  -9.967  -3.101  1.00  0.00     0.211 HD
ENDBRANCH  19  36
BRANCH  12  38
HETATM   38  O   UNL     1     -18.832 -11.188  -1.913  1.00  0.00    -0.387 OA
HETATM   39  H   UNL     1     -19.506 -10.743  -1.370  1.00  0.00     0.210 HD
ENDBRANCH  12  38
BRANCH   8  40
HETATM   40  O   UNL     1     -22.167 -14.908  -1.836  1.00  0.00    -0.306 OA
BRANCH  40  41
HETATM   41  C   UNL     1     -21.887 -15.718  -0.753  1.00  0.00     0.255 C 
HETATM   42  C   UNL     1     -20.817 -16.756  -1.021  1.00  0.00     0.126 C 
HETATM   43  O   UNL     1     -22.344 -15.575   0.373  1.00  0.00    -0.266 OA
ENDBRANCH  40  41
ENDBRANCH   8  40
BRANCH   9  44
HETATM   44  O   UNL     1     -20.631 -11.797  -0.659  1.00  0.00    -0.312 OA
BRANCH  44  45
HETATM   45  C   UNL     1     -20.849 -11.580   0.650  1.00  0.00     0.263 C 
HETATM   46  O   UNL     1     -21.534 -12.305   1.378  1.00  0.00    -0.265 OA
BRANCH  45  47
HETATM   47  C   UNL     1     -20.258 -10.247   1.107  1.00  0.00     0.149 C 
BRANCH  47  48
HETATM   48  C   UNL     1     -21.041  -9.093   0.561  1.00  0.00    -0.049 A 
HETATM   49  C   UNL     1     -22.223  -8.699   1.194  1.00  0.00     0.007 A 
HETATM   50  C   UNL     1     -23.053  -7.761   0.589  1.00  0.00     0.001 A 
HETATM   51  C   UNL     1     -22.699  -7.205  -0.640  1.00  0.00     0.000 A 
HETATM   52  C   UNL     1     -21.500  -7.558  -1.246  1.00  0.00     0.001 A 
HETATM   53  C   UNL     1     -20.664  -8.495  -0.647  1.00  0.00     0.007 A 
ENDBRANCH  47  48
ENDBRANCH  45  47
ENDBRANCH  44  45
ENDBRANCH   9  44
TORSDOF 15
ENDMDL
MODEL 2
REMARK VINA RESULT:      -8.9      2.308      4.879
REMARK  15 active torsions:
REMARK  status: ('A' for Active; 'I' for Inactive)
REMARK    1  A    between atoms: O_2  and  C_3 
REMARK    2  A    between atoms: C_5  and  C_6 
REMARK    3  A    between atoms: C_6  and  C_7 
REMARK    4  A    between atoms: C_7  and  O_9 
REMARK    5  A    between atoms: O_9  and  C_10 
REMARK    6  A    between atoms: C_10  and  C_11 
REMARK    7  A    between atoms: C_18  and  O_19 
REMARK    8  A    between atoms: O_19  and  C_20 
REMARK    9  A    between atoms: C_23  and  O_24 
REMARK   10  A    between atoms: O_24  and  C_25 
REMARK   11  A    between atoms: C_25  and  C_27 
REMARK   12  A    between atoms: C_27  and  C_28 
REMARK   13  A    between atoms: C_36  and  O_37 
REMARK   14  A    between atoms: C_44  and  O_45 
REMARK   15  A    between atoms: C_49  and  O_50 
ROOT
HETATM    1  C   UNL     1     -20.651  -8.492  -3.478  1.00  0.00    -0.050 C 
HETATM    2  C   UNL     1     -19.638  -9.105  -2.579  1.00  0.00    -0.013 C 
HETATM    3  C   UNL     1     -19.490 -10.867  -1.878  1.00  0.00     0.052 C 
HETATM    4  C   UNL     1     -18.309 -11.313  -0.716  1.00  0.00     0.046 A 
HETATM    5  C   UNL     1     -16.866 -11.755  -0.946  1.00  0.00    -0.005 A 
HETATM    6  C   UNL     1     -16.320 -11.185  -2.223  1.00  0.00     0.018 C 
HETATM    7  C   UNL     1     -15.776 -11.797   0.116  1.00  0.00     0.018 C 
HETATM    8  C   UNL     1     -17.951 -12.830  -0.648  1.00  0.00     0.110 A 
HETATM    9  C   UNL     1     -18.748 -13.669  -1.587  1.00  0.00     0.174 C 
HETATM   10  C   UNL     1     -20.307 -13.402  -1.275  1.00  0.00     0.050 C 
HETATM   11  C   UNL     1     -20.771 -13.021   0.149  1.00  0.00     0.016 C 
HETATM   12  C   UNL     1     -20.683 -12.331  -2.263  1.00  0.00     0.086 C 
HETATM   13  C   UNL     1     -22.430 -11.889  -2.553  1.00  0.00     0.131 A 
HETATM   14  C   UNL     1     -22.950 -10.973  -1.536  1.00  0.00    -0.000 C 
HETATM   15  C   UNL     1     -22.074  -9.990  -1.663  1.00  0.00    -0.029 C 
HETATM   16  C   UNL     1     -21.708  -9.129  -0.485  1.00  0.00     0.051 C 
HETATM   17  C   UNL     1     -21.493 -10.536  -3.203  1.00  0.00     0.099 A 
HETATM   18  O   UNL     1     -20.445 -10.772  -3.870  1.00  0.00    -0.304 OA
HETATM   19  C   UNL     1     -22.637 -10.918  -3.904  1.00  0.00     0.134 A 
HETATM   20  C   UNL     1     -22.059  -9.340  -4.338  1.00  0.00     0.141 A 
ENDROOT
BRANCH   1  21
HETATM   21  C   UNL     1     -20.992  -7.073  -3.927  1.00  0.00     0.213 C 
BRANCH  21  22
HETATM   22  O   UNL     1     -20.172  -6.410  -4.867  1.00  0.00    -0.317 OA
BRANCH  22  23
HETATM   23  C   UNL     1     -20.825  -6.210  -6.049  1.00  0.00     0.263 C 
HETATM   24  O   UNL     1     -21.242  -7.110  -6.768  1.00  0.00    -0.265 OA
BRANCH  23  25
HETATM   25  C   UNL     1     -20.794  -4.782  -6.524  1.00  0.00     0.149 C 
BRANCH  25  26
HETATM   26  C   UNL     1     -20.972  -4.566  -7.999  1.00  0.00    -0.046 A 
HETATM   27  C   UNL     1     -22.182  -4.055  -8.492  1.00  0.00     0.047 A 
HETATM   28  C   UNL     1     -22.314  -3.725  -9.842  1.00  0.00     0.101 A 
HETATM   29  C   UNL     1     -21.249  -3.991 -10.711  1.00  0.00     0.099 A 
HETATM   30  C   UNL     1     -20.061  -4.550 -10.239  1.00  0.00     0.040 A 
HETATM   31  C   UNL     1     -19.920  -4.828  -8.882  1.00  0.00     0.010 A 
BRANCH  28  32
HETATM   32  O   UNL     1     -23.444  -3.155 -10.369  1.00  0.00    -0.353 OA
HETATM   33  C   UNL     1     -24.659  -3.548  -9.737  1.00  0.00     0.210 C 
ENDBRANCH  28  32
BRANCH  29  34
HETATM   34  O   UNL     1     -21.369  -3.666 -12.036  1.00  0.00    -0.358 OA
HETATM   35  H   UNL     1     -21.501  -4.478 -12.548  1.00  0.00     0.217 HD
ENDBRANCH  29  34
ENDBRANCH  25  26
ENDBRANCH  23  25
ENDBRANCH  22  23
ENDBRANCH  21  22
ENDBRANCH   1  21
BRANCH  19  36
HETATM   36  O   UNL     1     -22.398 -11.774  -5.034  1.00  0.00    -0.381 OA
HETATM   37  H   UNL     1     -21.563 -12.263  -4.828  1.00  0.00     0.211 HD
ENDBRANCH  19  36
BRANCH  12  38
HETATM   38  O   UNL     1     -20.511 -13.051  -3.553  1.00  0.00    -0.387 OA
HETATM   39  H   UNL     1     -19.759 -13.662  -3.462  1.00  0.00     0.210 HD
ENDBRANCH  12  38
BRANCH   8  40
HETATM   40  O   UNL     1     -17.945 -13.463   0.715  1.00  0.00    -0.306 OA
BRANCH  40  41
HETATM   41  C   UNL     1     -17.525 -14.773   0.837  1.00  0.00     0.255 C 
HETATM   42  C   UNL     1     -18.519 -15.675   1.541  1.00  0.00     0.126 C 
HETATM   43  O   UNL     1     -16.511 -15.240   0.336  1.00  0.00    -0.266 OA
ENDBRANCH  40  41
ENDBRANCH   8  40
BRANCH   9  44
HETATM   44  O   UNL     1     -18.339 -13.312  -2.924  1.00  0.00    -0.312 OA
BRANCH  44  45
HETATM   45  C   UNL     1     -17.526 -14.087  -3.664  1.00  0.00     0.263 C 
HETATM   46  O   UNL     1     -16.682 -14.861  -3.202  1.00  0.00    -0.265 OA
BRANCH  45  47
HETATM   47  C   UNL     1     -17.674 -13.797  -5.157  1.00  0.00     0.149 C 
BRANCH  47  48
HETATM   48  C   UNL     1     -17.089 -12.464  -5.509  1.00  0.00    -0.049 A 
HETATM   49  C   UNL     1     -15.701 -12.311  -5.563  1.00  0.00     0.007 A 
HETATM   50  C   UNL     1     -15.150 -11.041  -5.698  1.00  0.00     0.001 A 
HETATM   51  C   UNL     1     -15.980  -9.925  -5.793  1.00  0.00     0.000 A 
HETATM   52  C   UNL     1     -17.361 -10.080  -5.790  1.00  0.00     0.001 A 
HETATM   53  C   UNL     1     -17.920 -11.347  -5.656  1.00  0.00     0.007 A 
ENDBRANCH  47  48
ENDBRANCH  45  47
ENDBRANCH  44  45
ENDBRANCH   9  44
TORSDOF 15
ENDMDL
MODEL 3
REMARK VINA RESULT:      -8.8      2.012      3.719
REMARK  15 active torsions:
REMARK  status: ('A' for Active; 'I' for Inactive)
REMARK    1  A    between atoms: O_2  and  C_3 
REMARK    2  A    between atoms: C_5  and  C_6 
REMARK    3  A    between atoms: C_6  and  C_7 
REMARK    4  A    between atoms: C_7  and  O_9 
REMARK    5  A    between atoms: O_9  and  C_10 
REMARK    6  A    between atoms: C_10  and  C_11 
REMARK    7  A    between atoms: C_18  and  O_19 
REMARK    8  A    between atoms: O_19  and  C_20 
REMARK    9  A    between atoms: C_23  and  O_24 
REMARK   10  A    between atoms: O_24  and  C_25 
REMARK   11  A    between atoms: C_25  and  C_27 
REMARK   12  A    between atoms: C_27  and  C_28 
REMARK   13  A    between atoms: C_36  and  O_37 
REMARK   14  A    between atoms: C_44  and  O_45 
REMARK   15  A    between atoms: C_49  and  O_50 
ROOT
HETATM    1  C   UNL     1     -21.182  -8.072  -5.105  1.00  0.00    -0.050 C 
HETATM    2  C   UNL     1     -21.191  -9.515  -5.459  1.00  0.00    -0.013 C 
HETATM    3  C   UNL     1     -20.816 -11.062  -4.419  1.00  0.00     0.052 C 
HETATM    4  C   UNL     1     -20.731 -12.639  -5.088  1.00  0.00     0.046 A 
HETATM    5  C   UNL     1     -21.866 -13.626  -5.348  1.00  0.00    -0.005 A 
HETATM    6  C   UNL     1     -23.169 -12.912  -5.564  1.00  0.00     0.018 C 
HETATM    7  C   UNL     1     -21.783 -14.848  -6.253  1.00  0.00     0.018 C 
HETATM    8  C   UNL     1     -20.963 -13.821  -4.095  1.00  0.00     0.110 A 
HETATM    9  C   UNL     1     -21.174 -13.378  -2.689  1.00  0.00     0.174 C 
HETATM   10  C   UNL     1     -19.906 -12.476  -2.266  1.00  0.00     0.050 C 
HETATM   11  C   UNL     1     -18.517 -12.729  -2.894  1.00  0.00     0.016 C 
HETATM   12  C   UNL     1     -20.369 -11.071  -2.544  1.00  0.00     0.086 C 
HETATM   13  C   UNL     1     -19.426  -9.631  -1.936  1.00  0.00     0.131 A 
HETATM   14  C   UNL     1     -18.289  -9.305  -2.798  1.00  0.00    -0.000 C 
HETATM   15  C   UNL     1     -18.928  -9.138  -3.944  1.00  0.00    -0.029 C 
HETATM   16  C   UNL     1     -18.254  -9.443  -5.253  1.00  0.00     0.051 C 
HETATM   17  C   UNL     1     -20.488  -8.993  -3.199  1.00  0.00     0.099 A 
HETATM   18  O   UNL     1     -21.686  -9.391  -3.260  1.00  0.00    -0.304 OA
HETATM   19  C   UNL     1     -20.276  -8.194  -2.075  1.00  0.00     0.134 A 
HETATM   20  C   UNL     1     -20.932  -7.323  -3.426  1.00  0.00     0.141 A 
ENDROOT
BRANCH   1  21
HETATM   21  C   UNL     1     -21.251  -6.759  -5.881  1.00  0.00     0.213 C 
BRANCH  21  22
HETATM   22  O   UNL     1     -20.621  -6.645  -7.140  1.00  0.00    -0.317 OA
BRANCH  22  23
HETATM   23  C   UNL     1     -20.077  -5.405  -7.319  1.00  0.00     0.263 C 
HETATM   24  O   UNL     1     -19.733  -4.665  -6.406  1.00  0.00    -0.265 OA
BRANCH  23  25
HETATM   25  C   UNL     1     -20.145  -4.914  -8.740  1.00  0.00     0.149 C 
BRANCH  25  26
HETATM   26  C   UNL     1     -21.480  -4.413  -9.209  1.00  0.00    -0.046 A 
HETATM   27  C   UNL     1     -21.753  -4.324 -10.582  1.00  0.00     0.047 A 
HETATM   28  C   UNL     1     -23.032  -3.989 -11.031  1.00  0.00     0.101 A 
HETATM   29  C   UNL     1     -24.014  -3.660 -10.089  1.00  0.00     0.099 A 
HETATM   30  C   UNL     1     -23.736  -3.692  -8.722  1.00  0.00     0.040 A 
HETATM   31  C   UNL     1     -22.472  -4.078  -8.283  1.00  0.00     0.010 A 
BRANCH  28  32
HETATM   32  O   UNL     1     -23.379  -3.957 -12.357  1.00  0.00    -0.353 OA
HETATM   33  C   UNL     1     -22.851  -2.851 -13.084  1.00  0.00     0.210 C 
ENDBRANCH  28  32
BRANCH  29  34
HETATM   34  O   UNL     1     -25.272  -3.334 -10.521  1.00  0.00    -0.358 OA
HETATM   35  H   UNL     1     -25.497  -3.890 -11.283  1.00  0.00     0.217 HD
ENDBRANCH  29  34
ENDBRANCH  25  26
ENDBRANCH  23  25
ENDBRANCH  22  23
ENDBRANCH  21  22
ENDBRANCH   1  21
BRANCH  19  36
HETATM   36  O   UNL     1     -21.312  -8.260  -1.080  1.00  0.00    -0.381 OA
HETATM   37  H   UNL     1     -21.121  -7.525  -0.446  1.00  0.00     0.211 HD
ENDBRANCH  19  36
BRANCH  12  38
HETATM   38  O   UNL     1     -21.477 -10.930  -1.561  1.00  0.00    -0.387 OA
HETATM   39  H   UNL     1     -22.151 -10.344  -1.947  1.00  0.00     0.210 HD
ENDBRANCH  12  38
BRANCH   8  40
HETATM   40  O   UNL     1     -19.961 -14.940  -4.129  1.00  0.00    -0.306 OA
BRANCH  40  41
HETATM   41  C   UNL     1     -20.191 -16.061  -3.356  1.00  0.00     0.255 C 
HETATM   42  C   UNL     1     -19.091 -16.355  -2.356  1.00  0.00     0.126 C 
HETATM   43  O   UNL     1     -21.223 -16.719  -3.356  1.00  0.00    -0.266 OA
ENDBRANCH  40  41
ENDBRANCH   8  40
BRANCH   9  44
HETATM   44  O   UNL     1     -22.438 -12.684  -2.648  1.00  0.00    -0.312 OA
BRANCH  44  45
HETATM   45  C   UNL     1     -23.415 -13.008  -1.782  1.00  0.00     0.263 C 
HETATM   46  O   UNL     1     -24.195 -12.200  -1.270  1.00  0.00    -0.265 OA
BRANCH  45  47
HETATM   47  C   UNL     1     -23.359 -14.485  -1.395  1.00  0.00     0.149 C 
BRANCH  47  48
HETATM   48  C   UNL     1     -23.236 -14.652   0.087  1.00  0.00    -0.049 A 
HETATM   49  C   UNL     1     -24.163 -15.442   0.773  1.00  0.00     0.007 A 
HETATM   50  C   UNL     1     -24.173 -15.448   2.164  1.00  0.00     0.001 A 
HETATM   51  C   UNL     1     -23.252 -14.678   2.873  1.00  0.00     0.000 A 
HETATM   52  C   UNL     1     -22.297 -13.931   2.193  1.00  0.00     0.001 A 
HETATM   53  C   UNL     1     -22.281 -13.921   0.802  1.00  0.00     0.007 A 
ENDBRANCH  47  48
ENDBRANCH  45  47
ENDBRANCH  44  45
ENDBRANCH   9  44
TORSDOF 15
ENDMDL
MODEL 4
REMARK VINA RESULT:      -8.6      1.708      2.913
REMARK  15 active torsions:
REMARK  status: ('A' for Active; 'I' for Inactive)
REMARK    1  A    between atoms: O_2  and  C_3 
REMARK    2  A    between atoms: C_5  and  C_6 
REMARK    3  A    between atoms: C_6  and  C_7 
REMARK    4  A    between atoms: C_7  and  O_9 
REMARK    5  A    between atoms: O_9  and  C_10 
REMARK    6  A    between atoms: C_10  and  C_11 
REMARK    7  A    between atoms: C_18  and  O_19 
REMARK    8  A    between atoms: O_19  and  C_20 
REMARK    9  A    between atoms: C_23  and  O_24 
REMARK   10  A    between atoms: O_24  and  C_25 
REMARK   11  A    between atoms: C_25  and  C_27 
REMARK   12  A    between atoms: C_27  and  C_28 
REMARK   13  A    between atoms: C_36  and  O_37 
REMARK   14  A    between atoms: C_44  and  O_45 
REMARK   15  A    between atoms: C_49  and  O_50 
ROOT
HETATM    1  C   UNL     1     -20.035  -8.824  -4.915  1.00  0.00    -0.050 C 
HETATM    2  C   UNL     1     -21.138  -9.490  -4.174  1.00  0.00    -0.013 C 
HETATM    3  C   UNL     1     -21.333 -11.279  -3.561  1.00  0.00     0.052 C 
HETATM    4  C   UNL     1     -22.780 -11.873  -2.858  1.00  0.00     0.046 A 
HETATM    5  C   UNL     1     -23.237 -11.790  -1.404  1.00  0.00    -0.005 A 
HETATM    6  C   UNL     1     -22.633 -10.602  -0.712  1.00  0.00     0.018 C 
HETATM    7  C   UNL     1     -24.661 -12.014  -0.912  1.00  0.00     0.018 C 
HETATM    8  C   UNL     1     -22.634 -13.123  -1.935  1.00  0.00     0.110 A 
HETATM    9  C   UNL     1     -21.239 -13.638  -1.855  1.00  0.00     0.174 C 
HETATM   10  C   UNL     1     -20.743 -13.939  -3.360  1.00  0.00     0.050 C 
HETATM   11  C   UNL     1     -21.754 -14.348  -4.454  1.00  0.00     0.016 C 
HETATM   12  C   UNL     1     -20.019 -12.677  -3.747  1.00  0.00     0.086 C 
HETATM   13  C   UNL     1     -18.980 -12.610  -5.246  1.00  0.00     0.131 A 
HETATM   14  C   UNL     1     -19.768 -12.395  -6.461  1.00  0.00    -0.000 C 
HETATM   15  C   UNL     1     -20.377 -11.269  -6.126  1.00  0.00    -0.029 C 
HETATM   16  C   UNL     1     -21.746 -10.947  -6.660  1.00  0.00     0.051 C 
HETATM   17  C   UNL     1     -19.291 -10.921  -4.819  1.00  0.00     0.099 A 
HETATM   18  O   UNL     1     -19.238 -10.570  -3.606  1.00  0.00    -0.304 OA
HETATM   19  C   UNL     1     -18.024 -11.235  -5.312  1.00  0.00     0.134 A 
HETATM   20  C   UNL     1     -18.381  -9.536  -5.359  1.00  0.00     0.141 A 
ENDROOT
BRANCH   1  21
HETATM   21  C   UNL     1     -19.856  -7.489  -5.634  1.00  0.00     0.213 C 
BRANCH  21  22
HETATM   22  O   UNL     1     -20.809  -7.061  -6.585  1.00  0.00    -0.317 OA
BRANCH  22  23
HETATM   23  C   UNL     1     -21.345  -5.851  -6.250  1.00  0.00     0.263 C 
HETATM   24  O   UNL     1     -22.336  -5.707  -5.545  1.00  0.00    -0.265 OA
BRANCH  23  25
HETATM   25  C   UNL     1     -20.753  -4.695  -7.011  1.00  0.00     0.149 C 
BRANCH  25  26
HETATM   26  C   UNL     1     -21.088  -4.618  -8.473  1.00  0.00    -0.046 A 
HETATM   27  C   UNL     1     -22.428  -4.589  -8.885  1.00  0.00     0.047 A 
HETATM   28  C   UNL     1     -22.753  -4.384 -10.227  1.00  0.00     0.101 A 
HETATM   29  C   UNL     1     -21.719  -4.292 -11.167  1.00  0.00     0.099 A 
HETATM   30  C   UNL     1     -20.383  -4.374 -10.774  1.00  0.00     0.040 A 
HETATM   31  C   UNL     1     -20.068  -4.528  -9.425  1.00  0.00     0.010 A 
BRANCH  28  32
HETATM   32  O   UNL     1     -24.042  -4.273 -10.679  1.00  0.00    -0.353 OA
HETATM   33  C   UNL     1     -24.868  -3.399  -9.916  1.00  0.00     0.210 C 
ENDBRANCH  28  32
BRANCH  29  34
HETATM   34  O   UNL     1     -22.029  -4.085 -12.485  1.00  0.00    -0.358 OA
HETATM   35  H   UNL     1     -22.314  -3.166 -12.600  1.00  0.00     0.217 HD
ENDBRANCH  29  34
ENDBRANCH  25  26
ENDBRANCH  23  25
ENDBRANCH  22  23
ENDBRANCH  21  22
ENDBRANCH   1  21
BRANCH  19  36
HETATM   36  O   UNL     1     -17.012 -11.421  -4.308  1.00  0.00    -0.381 OA
HETATM   37  H   UNL     1     -17.253 -12.257  -3.837  1.00  0.00     0.211 HD
ENDBRANCH  19  36
BRANCH  12  38
HETATM   38  O   UNL     1     -18.876 -12.693  -2.794  1.00  0.00    -0.387 OA
HETATM   39  H   UNL     1     -18.055 -12.785  -3.308  1.00  0.00     0.210 HD
ENDBRANCH  12  38
BRANCH   8  40
HETATM   40  O   UNL     1     -23.581 -14.262  -2.185  1.00  0.00    -0.306 OA
BRANCH  40  41
HETATM   41  C   UNL     1     -23.544 -15.353  -1.339  1.00  0.00     0.255 C 
HETATM   42  C   UNL     1     -24.827 -15.575  -0.564  1.00  0.00     0.126 C 
HETATM   43  O   UNL     1     -22.632 -16.166  -1.273  1.00  0.00    -0.266 OA
ENDBRANCH  40  41
ENDBRANCH   8  40
BRANCH   9  44
HETATM   44  O   UNL     1     -20.460 -12.643  -1.159  1.00  0.00    -0.312 OA
BRANCH  44  45
HETATM   45  C   UNL     1     -20.085 -12.785   0.125  1.00  0.00     0.263 C 
HETATM   46  O   UNL     1     -19.609 -11.884   0.821  1.00  0.00    -0.265 OA
BRANCH  45  47
HETATM   47  C   UNL     1     -20.191 -14.238   0.587  1.00  0.00     0.149 C 
BRANCH  47  48
HETATM   48  C   UNL     1     -21.277 -14.405   1.603  1.00  0.00    -0.049 A 
HETATM   49  C   UNL     1     -21.230 -15.481   2.494  1.00  0.00     0.007 A 
HETATM   50  C   UNL     1     -22.325 -15.754   3.308  1.00  0.00     0.001 A 
HETATM   51  C   UNL     1     -23.462 -14.949   3.244  1.00  0.00     0.000 A 
HETATM   52  C   UNL     1     -23.491 -13.850   2.395  1.00  0.00     0.001 A 
HETATM   53  C   UNL     1     -22.400 -13.570   1.578  1.00  0.00     0.007 A 
ENDBRANCH  47  48
ENDBRANCH  45  47
ENDBRANCH  44  45
ENDBRANCH   9  44
TORSDOF 15
ENDMDL
MODEL 5
REMARK VINA RESULT:      -8.5      2.692      5.919
REMARK  15 active torsions:
REMARK  status: ('A' for Active; 'I' for Inactive)
REMARK    1  A    between atoms: O_2  and  C_3 
REMARK    2  A    between atoms: C_5  and  C_6 
REMARK    3  A    between atoms: C_6  and  C_7 
REMARK    4  A    between atoms: C_7  and  O_9 
REMARK    5  A    between atoms: O_9  and  C_10 
REMARK    6  A    between atoms: C_10  and  C_11 
REMARK    7  A    between atoms: C_18  and  O_19 
REMARK    8  A    between atoms: O_19  and  C_20 
REMARK    9  A    between atoms: C_23  and  O_24 
REMARK   10  A    between atoms: O_24  and  C_25 
REMARK   11  A    between atoms: C_25  and  C_27 
REMARK   12  A    between atoms: C_27  and  C_28 
REMARK   13  A    between atoms: C_36  and  O_37 
REMARK   14  A    between atoms: C_44  and  O_45 
REMARK   15  A    between atoms: C_49  and  O_50 
ROOT
HETATM    1  C   UNL     1     -20.555  -9.444  -5.014  1.00  0.00    -0.050 C 
HETATM    2  C   UNL     1     -19.117  -9.818  -5.034  1.00  0.00    -0.013 C 
HETATM    3  C   UNL     1     -18.137 -11.082  -4.006  1.00  0.00     0.052 C 
HETATM    4  C   UNL     1     -16.431 -11.233  -4.091  1.00  0.00     0.046 A 
HETATM    5  C   UNL     1     -15.594 -12.044  -5.077  1.00  0.00    -0.005 A 
HETATM    6  C   UNL     1     -16.315 -12.225  -6.382  1.00  0.00     0.018 C 
HETATM    7  C   UNL     1     -14.102 -11.865  -5.324  1.00  0.00     0.018 C 
HETATM    8  C   UNL     1     -15.839 -12.608  -3.647  1.00  0.00     0.110 A 
HETATM    9  C   UNL     1     -16.871 -13.567  -3.163  1.00  0.00     0.174 C 
HETATM   10  C   UNL     1     -17.684 -12.847  -1.971  1.00  0.00     0.050 C 
HETATM   11  C   UNL     1     -16.998 -11.792  -1.075  1.00  0.00     0.016 C 
HETATM   12  C   UNL     1     -18.879 -12.258  -2.670  1.00  0.00     0.086 C 
HETATM   13  C   UNL     1     -20.297 -11.604  -1.724  1.00  0.00     0.131 A 
HETATM   14  C   UNL     1     -20.059 -10.247  -1.230  1.00  0.00    -0.000 C 
HETATM   15  C   UNL     1     -19.800  -9.642  -2.377  1.00  0.00    -0.029 C 
HETATM   16  C   UNL     1     -18.869  -8.461  -2.432  1.00  0.00     0.051 C 
HETATM   17  C   UNL     1     -20.464 -10.918  -3.346  1.00  0.00     0.099 A 
HETATM   18  O   UNL     1     -20.246 -11.650  -4.353  1.00  0.00    -0.304 OA
HETATM   19  C   UNL     1     -21.633 -11.297  -2.686  1.00  0.00     0.134 A 
HETATM   20  C   UNL     1     -21.915 -10.239  -4.034  1.00  0.00     0.141 A 
ENDROOT
BRANCH   1  21
HETATM   21  C   UNL     1     -21.399  -8.325  -5.620  1.00  0.00     0.213 C 
BRANCH  21  22
HETATM   22  O   UNL     1     -20.773  -7.220  -6.239  1.00  0.00    -0.317 OA
BRANCH  22  23
HETATM   23  C   UNL     1     -21.353  -6.041  -5.868  1.00  0.00     0.263 C 
HETATM   24  O   UNL     1     -22.348  -5.956  -5.160  1.00  0.00    -0.265 OA
BRANCH  23  25
HETATM   25  C   UNL     1     -20.804  -4.842  -6.593  1.00  0.00     0.149 C 
BRANCH  25  26
HETATM   26  C   UNL     1     -21.071  -4.775  -8.069  1.00  0.00    -0.046 A 
HETATM   27  C   UNL     1     -22.388  -4.844  -8.547  1.00  0.00     0.047 A 
HETATM   28  C   UNL     1     -22.661  -4.651  -9.903  1.00  0.00     0.101 A 
HETATM   29  C   UNL     1     -21.592  -4.470 -10.789  1.00  0.00     0.099 A 
HETATM   30  C   UNL     1     -20.275  -4.455 -10.330  1.00  0.00     0.040 A 
HETATM   31  C   UNL     1     -20.016  -4.598  -8.969  1.00  0.00     0.010 A 
BRANCH  28  32
HETATM   32  O   UNL     1     -23.931  -4.633 -10.418  1.00  0.00    -0.353 OA
HETATM   33  C   UNL     1     -24.568  -3.360 -10.389  1.00  0.00     0.210 C 
ENDBRANCH  28  32
BRANCH  29  34
HETATM   34  O   UNL     1     -21.852  -4.275 -12.119  1.00  0.00    -0.358 OA
HETATM   35  H   UNL     1     -22.774  -3.993 -12.221  1.00  0.00     0.217 HD
ENDBRANCH  29  34
ENDBRANCH  25  26
ENDBRANCH  23  25
ENDBRANCH  22  23
ENDBRANCH  21  22
ENDBRANCH   1  21
BRANCH  19  36
HETATM   36  O   UNL     1     -22.147 -12.589  -3.057  1.00  0.00    -0.381 OA
HETATM   37  H   UNL     1     -22.040 -12.647  -4.039  1.00  0.00     0.211 HD
ENDBRANCH  19  36
BRANCH  12  38
HETATM   38  O   UNL     1     -19.582 -13.485  -3.132  1.00  0.00    -0.387 OA
HETATM   39  H   UNL     1     -20.462 -13.505  -2.716  1.00  0.00     0.210 HD
ENDBRANCH  12  38
BRANCH   8  40
HETATM   40  O   UNL     1     -14.691 -12.569  -2.679  1.00  0.00    -0.306 OA
BRANCH  40  41
HETATM   41  C   UNL     1     -14.192 -13.761  -2.192  1.00  0.00     0.255 C 
HETATM   42  C   UNL     1     -13.353 -14.531  -3.191  1.00  0.00     0.126 C 
HETATM   43  O   UNL     1     -14.290 -14.149  -1.035  1.00  0.00    -0.266 OA
ENDBRANCH  40  41
ENDBRANCH   8  40
BRANCH   9  44
HETATM   44  O   UNL     1     -17.680 -13.928  -4.302  1.00  0.00    -0.312 OA
BRANCH  44  45
HETATM   45  C   UNL     1     -17.556 -15.110  -4.932  1.00  0.00     0.263 C 
HETATM   46  O   UNL     1     -16.500 -15.740  -5.041  1.00  0.00    -0.265 OA
BRANCH  45  47
HETATM   47  C   UNL     1     -18.856 -15.521  -5.623  1.00  0.00     0.149 C 
BRANCH  47  48
HETATM   48  C   UNL     1     -19.053 -14.764  -6.899  1.00  0.00    -0.049 A 
HETATM   49  C   UNL     1     -18.291 -15.095  -8.023  1.00  0.00     0.007 A 
HETATM   50  C   UNL     1     -18.328 -14.279  -9.149  1.00  0.00     0.001 A 
HETATM   51  C   UNL     1     -19.133 -13.140  -9.161  1.00  0.00     0.000 A 
HETATM   52  C   UNL     1     -19.930 -12.838  -8.063  1.00  0.00     0.001 A 
HETATM   53  C   UNL     1     -19.899 -13.649  -6.934  1.00  0.00     0.007 A 
ENDBRANCH  47  48
ENDBRANCH  45  47
ENDBRANCH  44  45
ENDBRANCH   9  44
TORSDOF 15
ENDMDL
MODEL 6
REMARK VINA RESULT:      -8.4      3.812      6.240
REMARK  15 active torsions:
REMARK  status: ('A' for Active; 'I' for Inactive)
REMARK    1  A    between atoms: O_2  and  C_3 
REMARK    2  A    between atoms: C_5  and  C_6 
REMARK    3  A    between atoms: C_6  and  C_7 
REMARK    4  A    between atoms: C_7  and  O_9 
REMARK    5  A    between atoms: O_9  and  C_10 
REMARK    6  A    between atoms: C_10  and  C_11 
REMARK    7  A    between atoms: C_18  and  O_19 
REMARK    8  A    between atoms: O_19  and  C_20 
REMARK    9  A    between atoms: C_23  and  O_24 
REMARK   10  A    between atoms: O_24  and  C_25 
REMARK   11  A    between atoms: C_25  and  C_27 
REMARK   12  A    between atoms: C_27  and  C_28 
REMARK   13  A    between atoms: C_36  and  O_37 
REMARK   14  A    between atoms: C_44  and  O_45 
REMARK   15  A    between atoms: C_49  and  O_50 
ROOT
HETATM    1  C   UNL     1     -15.704 -12.817  -2.480  1.00  0.00    -0.050 C 
HETATM    2  C   UNL     1     -17.112 -13.058  -2.889  1.00  0.00    -0.013 C 
HETATM    3  C   UNL     1     -18.685 -13.335  -1.856  1.00  0.00     0.052 C 
HETATM    4  C   UNL     1     -20.195 -13.759  -2.551  1.00  0.00     0.046 A 
HETATM    5  C   UNL     1     -21.267 -12.842  -3.133  1.00  0.00    -0.005 A 
HETATM    6  C   UNL     1     -20.670 -11.561  -3.641  1.00  0.00     0.018 C 
HETATM    7  C   UNL     1     -22.408 -13.282  -4.040  1.00  0.00     0.018 C 
HETATM    8  C   UNL     1     -21.461 -13.422  -1.702  1.00  0.00     0.110 A 
HETATM    9  C   UNL     1     -21.142 -12.822  -0.377  1.00  0.00     0.174 C 
HETATM   10  C   UNL     1     -20.152 -13.836   0.392  1.00  0.00     0.050 C 
HETATM   11  C   UNL     1     -20.224 -15.357   0.127  1.00  0.00     0.016 C 
HETATM   12  C   UNL     1     -18.784 -13.302   0.069  1.00  0.00     0.086 C 
HETATM   13  C   UNL     1     -17.305 -13.898   0.959  1.00  0.00     0.131 A 
HETATM   14  C   UNL     1     -16.810 -15.168   0.428  1.00  0.00    -0.000 C 
HETATM   15  C   UNL     1     -16.624 -14.818  -0.833  1.00  0.00    -0.029 C 
HETATM   16  C   UNL     1     -16.769 -15.826  -1.942  1.00  0.00     0.051 C 
HETATM   17  C   UNL     1     -16.685 -13.117  -0.503  1.00  0.00     0.099 A 
HETATM   18  O   UNL     1     -17.194 -12.023  -0.884  1.00  0.00    -0.304 OA
HETATM   19  C   UNL     1     -15.951 -12.953   0.672  1.00  0.00     0.134 A 
HETATM   20  C   UNL     1     -15.055 -12.558  -0.762  1.00  0.00     0.141 A 
ENDROOT
BRANCH   1  21
HETATM   21  C   UNL     1     -14.352 -12.795  -3.190  1.00  0.00     0.213 C 
BRANCH  21  22
HETATM   22  O   UNL     1     -14.109 -13.662  -4.279  1.00  0.00    -0.317 OA
BRANCH  22  23
HETATM   23  C   UNL     1     -13.896 -12.968  -5.435  1.00  0.00     0.263 C 
HETATM   24  O   UNL     1     -12.965 -12.192  -5.613  1.00  0.00    -0.265 OA
BRANCH  23  25
HETATM   25  C   UNL     1     -15.038 -13.055  -6.412  1.00  0.00     0.149 C 
BRANCH  25  26
HETATM   26  C   UNL     1     -16.072 -11.970  -6.328  1.00  0.00    -0.046 A 
HETATM   27  C   UNL     1     -17.377 -12.208  -6.781  1.00  0.00     0.047 A 
HETATM   28  C   UNL     1     -18.380 -11.256  -6.587  1.00  0.00     0.101 A 
HETATM   29  C   UNL     1     -18.042 -10.026  -6.009  1.00  0.00     0.099 A 
HETATM   30  C   UNL     1     -16.734  -9.759  -5.605  1.00  0.00     0.040 A 
HETATM   31  C   UNL     1     -15.751 -10.735  -5.756  1.00  0.00     0.010 A 
BRANCH  28  32
HETATM   32  O   UNL     1     -19.688 -11.460  -6.941  1.00  0.00    -0.353 OA
HETATM   33  C   UNL     1     -20.013 -12.807  -7.272  1.00  0.00     0.210 C 
ENDBRANCH  28  32
BRANCH  29  34
HETATM   34  O   UNL     1     -19.021  -9.089  -5.811  1.00  0.00    -0.358 OA
HETATM   35  H   UNL     1     -19.762  -9.503  -5.342  1.00  0.00     0.217 HD
ENDBRANCH  29  34
ENDBRANCH  25  26
ENDBRANCH  23  25
ENDBRANCH  22  23
ENDBRANCH  21  22
ENDBRANCH   1  21
BRANCH  19  36
HETATM   36  O   UNL     1     -16.188 -11.717   1.368  1.00  0.00    -0.381 OA
HETATM   37  H   UNL     1     -15.511 -11.682   2.089  1.00  0.00     0.211 HD
ENDBRANCH  19  36
BRANCH  12  38
HETATM   38  O   UNL     1     -18.821 -11.977   0.744  1.00  0.00    -0.387 OA
HETATM   39  H   UNL     1     -19.464 -11.416   0.275  1.00  0.00     0.210 HD
ENDBRANCH  12  38
BRANCH   8  40
HETATM   40  O   UNL     1     -22.472 -14.521  -1.530  1.00  0.00    -0.306 OA
BRANCH  40  41
HETATM   41  C   UNL     1     -23.654 -14.238  -0.875  1.00  0.00     0.255 C 
HETATM   42  C   UNL     1     -23.948 -15.162   0.290  1.00  0.00     0.126 C 
HETATM   43  O   UNL     1     -24.372 -13.272  -1.097  1.00  0.00    -0.266 OA
ENDBRANCH  40  41
ENDBRANCH   8  40
BRANCH   9  44
HETATM   44  O   UNL     1     -20.578 -11.517  -0.628  1.00  0.00    -0.312 OA
BRANCH  44  45
HETATM   45  C   UNL     1     -21.081 -10.395  -0.083  1.00  0.00     0.263 C 
HETATM   46  O   UNL     1     -20.736  -9.928   1.007  1.00  0.00    -0.265 OA
BRANCH  45  47
HETATM   47  C   UNL     1     -22.235  -9.832  -0.912  1.00  0.00     0.149 C 
BRANCH  47  48
HETATM   48  C   UNL     1     -21.868  -8.518  -1.528  1.00  0.00    -0.049 A 
HETATM   49  C   UNL     1     -22.285  -7.330  -0.921  1.00  0.00     0.007 A 
HETATM   50  C   UNL     1     -22.117  -6.118  -1.583  1.00  0.00     0.001 A 
HETATM   51  C   UNL     1     -21.523  -6.087  -2.844  1.00  0.00     0.000 A 
HETATM   52  C   UNL     1     -21.063  -7.261  -3.428  1.00  0.00     0.001 A 
HETATM   53  C   UNL     1     -21.227  -8.477  -2.772  1.00  0.00     0.007 A 
ENDBRANCH  47  48
ENDBRANCH  45  47
ENDBRANCH  44  45
ENDBRANCH   9  44
TORSDOF 15
ENDMDL
MODEL 7
REMARK VINA RESULT:      -8.3      4.443      7.980
REMARK  15 active torsions:
REMARK  status: ('A' for Active; 'I' for Inactive)
REMARK    1  A    between atoms: O_2  and  C_3 
REMARK    2  A    between atoms: C_5  and  C_6 
REMARK    3  A    between atoms: C_6  and  C_7 
REMARK    4  A    between atoms: C_7  and  O_9 
REMARK    5  A    between atoms: O_9  and  C_10 
REMARK    6  A    between atoms: C_10  and  C_11 
REMARK    7  A    between atoms: C_18  and  O_19 
REMARK    8  A    between atoms: O_19  and  C_20 
REMARK    9  A    between atoms: C_23  and  O_24 
REMARK   10  A    between atoms: O_24  and  C_25 
REMARK   11  A    between atoms: C_25  and  C_27 
REMARK   12  A    between atoms: C_27  and  C_28 
REMARK   13  A    between atoms: C_36  and  O_37 
REMARK   14  A    between atoms: C_44  and  O_45 
REMARK   15  A    between atoms: C_49  and  O_50 
ROOT
HETATM    1  C   UNL     1     -17.968 -14.180  -2.065  1.00  0.00    -0.050 C 
HETATM    2  C   UNL     1     -18.388 -13.003  -1.259  1.00  0.00    -0.013 C 
HETATM    3  C   UNL     1     -19.570 -11.569  -1.659  1.00  0.00     0.052 C 
HETATM    4  C   UNL     1     -19.784 -10.218  -0.624  1.00  0.00     0.046 A 
HETATM    5  C   UNL     1     -20.719 -10.075   0.574  1.00  0.00    -0.005 A 
HETATM    6  C   UNL     1     -21.011 -11.409   1.199  1.00  0.00     0.018 C 
HETATM    7  C   UNL     1     -20.614  -9.004   1.653  1.00  0.00     0.018 C 
HETATM    8  C   UNL     1     -21.123  -9.433  -0.784  1.00  0.00     0.110 A 
HETATM    9  C   UNL     1     -21.993  -9.965  -1.870  1.00  0.00     0.174 C 
HETATM   10  C   UNL     1     -21.128  -9.968  -3.231  1.00  0.00     0.050 C 
HETATM   11  C   UNL     1     -20.008  -8.926  -3.453  1.00  0.00     0.016 C 
HETATM   12  C   UNL     1     -20.576 -11.366  -3.291  1.00  0.00     0.086 C 
HETATM   13  C   UNL     1     -19.782 -12.001  -4.808  1.00  0.00     0.131 A 
HETATM   14  C   UNL     1     -18.390 -11.568  -4.931  1.00  0.00    -0.000 C 
HETATM   15  C   UNL     1     -17.916 -12.037  -3.789  1.00  0.00    -0.029 C 
HETATM   16  C   UNL     1     -16.778 -11.348  -3.087  1.00  0.00     0.051 C 
HETATM   17  C   UNL     1     -19.263 -13.095  -3.518  1.00  0.00     0.099 A 
HETATM   18  O   UNL     1     -20.103 -13.472  -2.651  1.00  0.00    -0.304 OA
HETATM   19  C   UNL     1     -19.535 -13.658  -4.765  1.00  0.00     0.134 A 
HETATM   20  C   UNL     1     -18.614 -14.699  -3.725  1.00  0.00     0.141 A 
ENDROOT
BRANCH   1  21
HETATM   21  C   UNL     1     -16.891 -15.255  -1.944  1.00  0.00     0.213 C 
BRANCH  21  22
HETATM   22  O   UNL     1     -15.877 -15.137  -0.967  1.00  0.00    -0.317 OA
BRANCH  22  23
HETATM   23  C   UNL     1     -14.912 -14.251  -1.351  1.00  0.00     0.263 C 
HETATM   24  O   UNL     1     -14.836 -13.097  -0.947  1.00  0.00    -0.265 OA
BRANCH  23  25
HETATM   25  C   UNL     1     -14.067 -14.735  -2.499  1.00  0.00     0.149 C 
BRANCH  25  26
HETATM   26  C   UNL     1     -14.213 -13.989  -3.794  1.00  0.00    -0.046 A 
HETATM   27  C   UNL     1     -15.151 -14.413  -4.746  1.00  0.00     0.047 A 
HETATM   28  C   UNL     1     -15.390 -13.654  -5.893  1.00  0.00     0.101 A 
HETATM   29  C   UNL     1     -14.619 -12.507  -6.118  1.00  0.00     0.099 A 
HETATM   30  C   UNL     1     -13.645 -12.107  -5.203  1.00  0.00     0.040 A 
HETATM   31  C   UNL     1     -13.449 -12.843  -4.036  1.00  0.00     0.010 A 
BRANCH  28  32
HETATM   32  O   UNL     1     -16.344 -13.978  -6.823  1.00  0.00    -0.353 OA
HETATM   33  C   UNL     1     -16.615 -15.371  -6.937  1.00  0.00     0.210 C 
ENDBRANCH  28  32
BRANCH  29  34
HETATM   34  O   UNL     1     -14.851 -11.754  -7.238  1.00  0.00    -0.358 OA
HETATM   35  H   UNL     1     -15.759 -11.910  -7.539  1.00  0.00     0.217 HD
ENDBRANCH  29  34
ENDBRANCH  25  26
ENDBRANCH  23  25
ENDBRANCH  22  23
ENDBRANCH  21  22
ENDBRANCH   1  21
BRANCH  19  36
HETATM   36  O   UNL     1     -20.840 -14.247  -4.893  1.00  0.00    -0.381 OA
HETATM   37  H   UNL     1     -20.686 -15.219  -4.993  1.00  0.00     0.211 HD
ENDBRANCH  19  36
BRANCH  12  38
HETATM   38  O   UNL     1     -21.821 -12.165  -3.448  1.00  0.00    -0.387 OA
HETATM   39  H   UNL     1     -22.432 -11.917  -2.732  1.00  0.00     0.210 HD
ENDBRANCH  12  38
BRANCH   8  40
HETATM   40  O   UNL     1     -21.021  -7.939  -0.904  1.00  0.00    -0.306 OA
BRANCH  40  41
HETATM   41  C   UNL     1     -22.183  -7.194  -0.926  1.00  0.00     0.255 C 
HETATM   42  C   UNL     1     -22.262  -6.210  -2.076  1.00  0.00     0.126 C 
HETATM   43  O   UNL     1     -23.142  -7.357  -0.182  1.00  0.00    -0.266 OA
ENDBRANCH  40  41
ENDBRANCH   8  40
BRANCH   9  44
HETATM   44  O   UNL     1     -22.444 -11.270  -1.450  1.00  0.00    -0.312 OA
BRANCH  44  45
HETATM   45  C   UNL     1     -23.628 -11.464  -0.840  1.00  0.00     0.263 C 
HETATM   46  O   UNL     1     -24.242 -10.601  -0.207  1.00  0.00    -0.265 OA
BRANCH  45  47
HETATM   47  C   UNL     1     -24.062 -12.928  -0.906  1.00  0.00     0.149 C 
BRANCH  47  48
HETATM   48  C   UNL     1     -23.361 -13.748   0.132  1.00  0.00    -0.049 A 
HETATM   49  C   UNL     1     -23.727 -13.622   1.475  1.00  0.00     0.007 A 
HETATM   50  C   UNL     1     -22.958 -14.230   2.462  1.00  0.00     0.001 A 
HETATM   51  C   UNL     1     -21.832 -14.974   2.111  1.00  0.00     0.000 A 
HETATM   52  C   UNL     1     -21.496 -15.142   0.773  1.00  0.00     0.001 A 
HETATM   53  C   UNL     1     -22.260 -14.538  -0.219  1.00  0.00     0.007 A 
ENDBRANCH  47  48
ENDBRANCH  45  47
ENDBRANCH  44  45
ENDBRANCH   9  44
TORSDOF 15
ENDMDL
MODEL 8
REMARK VINA RESULT:      -8.2      4.291      6.437
REMARK  15 active torsions:
REMARK  status: ('A' for Active; 'I' for Inactive)
REMARK    1  A    between atoms: O_2  and  C_3 
REMARK    2  A    between atoms: C_5  and  C_6 
REMARK    3  A    between atoms: C_6  and  C_7 
REMARK    4  A    between atoms: C_7  and  O_9 
REMARK    5  A    between atoms: O_9  and  C_10 
REMARK    6  A    between atoms: C_10  and  C_11 
REMARK    7  A    between atoms: C_18  and  O_19 
REMARK    8  A    between atoms: O_19  and  C_20 
REMARK    9  A    between atoms: C_23  and  O_24 
REMARK   10  A    between atoms: O_24  and  C_25 
REMARK   11  A    between atoms: C_25  and  C_27 
REMARK   12  A    between atoms: C_27  and  C_28 
REMARK   13  A    between atoms: C_36  and  O_37 
REMARK   14  A    between atoms: C_44  and  O_45 
REMARK   15  A    between atoms: C_49  and  O_50 
ROOT
HETATM    1  C   UNL     1     -17.856 -11.860  -5.974  1.00  0.00    -0.050 C 
HETATM    2  C   UNL     1     -17.630 -12.939  -4.977  1.00  0.00    -0.013 C 
HETATM    3  C   UNL     1     -17.475 -12.882  -3.083  1.00  0.00     0.052 C 
HETATM    4  C   UNL     1     -17.049 -14.249  -2.139  1.00  0.00     0.046 A 
HETATM    5  C   UNL     1     -17.955 -15.349  -1.593  1.00  0.00    -0.005 A 
HETATM    6  C   UNL     1     -19.177 -15.522  -2.448  1.00  0.00     0.018 C 
HETATM    7  C   UNL     1     -17.486 -16.702  -1.073  1.00  0.00     0.018 C 
HETATM    8  C   UNL     1     -17.483 -14.213  -0.640  1.00  0.00     0.110 A 
HETATM    9  C   UNL     1     -18.166 -12.947  -0.254  1.00  0.00     0.174 C 
HETATM   10  C   UNL     1     -17.179 -11.727  -0.625  1.00  0.00     0.050 C 
HETATM   11  C   UNL     1     -15.646 -11.923  -0.608  1.00  0.00     0.016 C 
HETATM   12  C   UNL     1     -17.647 -11.303  -1.991  1.00  0.00     0.086 C 
HETATM   13  C   UNL     1     -17.071  -9.741  -2.740  1.00  0.00     0.131 A 
HETATM   14  C   UNL     1     -15.752  -9.873  -3.359  1.00  0.00    -0.000 C 
HETATM   15  C   UNL     1     -16.006 -10.861  -4.201  1.00  0.00    -0.029 C 
HETATM   16  C   UNL     1     -14.927 -11.833  -4.596  1.00  0.00     0.051 C 
HETATM   17  C   UNL     1     -17.728 -10.688  -4.083  1.00  0.00     0.099 A 
HETATM   18  O   UNL     1     -18.806 -11.327  -3.921  1.00  0.00    -0.304 OA
HETATM   19  C   UNL     1     -17.952  -9.311  -4.100  1.00  0.00     0.134 A 
HETATM   20  C   UNL     1     -18.216 -10.071  -5.639  1.00  0.00     0.141 A 
ENDROOT
BRANCH   1  21
HETATM   21  C   UNL     1     -17.786 -11.749  -7.495  1.00  0.00     0.213 C 
BRANCH  21  22
HETATM   22  O   UNL     1     -18.950 -11.933  -8.274  1.00  0.00    -0.317 OA
BRANCH  22  23
HETATM   23  C   UNL     1     -19.496 -13.169  -8.077  1.00  0.00     0.263 C 
HETATM   24  O   UNL     1     -18.885 -14.222  -8.213  1.00  0.00    -0.265 OA
BRANCH  23  25
HETATM   25  C   UNL     1     -20.990 -13.150  -7.899  1.00  0.00     0.149 C 
BRANCH  25  26
HETATM   26  C   UNL     1     -21.504 -13.531  -6.541  1.00  0.00    -0.046 A 
HETATM   27  C   UNL     1     -21.595 -12.565  -5.528  1.00  0.00     0.047 A 
HETATM   28  C   UNL     1     -22.193 -12.874  -4.305  1.00  0.00     0.101 A 
HETATM   29  C   UNL     1     -22.625 -14.185  -4.075  1.00  0.00     0.099 A 
HETATM   30  C   UNL     1     -22.489 -15.167  -5.057  1.00  0.00     0.040 A 
HETATM   31  C   UNL     1     -21.938 -14.837  -6.293  1.00  0.00     0.010 A 
BRANCH  28  32
HETATM   32  O   UNL     1     -22.377 -11.954  -3.305  1.00  0.00    -0.353 OA
HETATM   33  C   UNL     1     -22.325 -10.595  -3.730  1.00  0.00     0.210 C 
ENDBRANCH  28  32
BRANCH  29  34
HETATM   34  O   UNL     1     -23.218 -14.495  -2.880  1.00  0.00    -0.358 OA
HETATM   35  H   UNL     1     -22.568 -14.384  -2.170  1.00  0.00     0.217 HD
ENDBRANCH  29  34
ENDBRANCH  25  26
ENDBRANCH  23  25
ENDBRANCH  22  23
ENDBRANCH  21  22
ENDBRANCH   1  21
BRANCH  19  36
HETATM   36  O   UNL     1     -19.240  -8.900  -3.611  1.00  0.00    -0.381 OA
HETATM   37  H   UNL     1     -19.625  -8.328  -4.321  1.00  0.00     0.211 HD
ENDBRANCH  19  36
BRANCH  12  38
HETATM   38  O   UNL     1     -19.017 -10.808  -1.688  1.00  0.00    -0.387 OA
HETATM   39  H   UNL     1     -19.217 -10.078  -2.300  1.00  0.00     0.210 HD
ENDBRANCH  12  38
BRANCH   8  40
HETATM   40  O   UNL     1     -16.431 -14.552   0.377  1.00  0.00    -0.306 OA
BRANCH  40  41
HETATM   41  C   UNL     1     -16.798 -14.647   1.705  1.00  0.00     0.255 C 
HETATM   42  C   UNL     1     -15.950 -13.808   2.639  1.00  0.00     0.126 C 
HETATM   43  O   UNL     1     -17.781 -15.242   2.126  1.00  0.00    -0.266 OA
ENDBRANCH  40  41
ENDBRANCH   8  40
BRANCH   9  44
HETATM   44  O   UNL     1     -19.432 -12.920  -0.946  1.00  0.00    -0.312 OA
BRANCH  44  45
HETATM   45  C   UNL     1     -20.604 -13.125  -0.319  1.00  0.00     0.263 C 
HETATM   46  O   UNL     1     -21.513 -13.844  -0.747  1.00  0.00    -0.265 OA
BRANCH  45  47
HETATM   47  C   UNL     1     -20.739 -12.250   0.926  1.00  0.00     0.149 C 
BRANCH  47  48
HETATM   48  C   UNL     1     -21.412 -10.951   0.605  1.00  0.00    -0.049 A 
HETATM   49  C   UNL     1     -20.825  -9.750   1.012  1.00  0.00     0.007 A 
HETATM   50  C   UNL     1     -21.532  -8.558   0.890  1.00  0.00     0.001 A 
HETATM   51  C   UNL     1     -22.818  -8.560   0.351  1.00  0.00     0.000 A 
HETATM   52  C   UNL     1     -23.383  -9.746  -0.100  1.00  0.00     0.001 A 
HETATM   53  C   UNL     1     -22.683 -10.942   0.018  1.00  0.00     0.007 A 
ENDBRANCH  47  48
ENDBRANCH  45  47
ENDBRANCH  44  45
ENDBRANCH   9  44
TORSDOF 15
ENDMDL
MODEL 9
REMARK VINA RESULT:      -8.0      3.706      6.164
REMARK  15 active torsions:
REMARK  status: ('A' for Active; 'I' for Inactive)
REMARK    1  A    between atoms: O_2  and  C_3 
REMARK    2  A    between atoms: C_5  and  C_6 
REMARK    3  A    between atoms: C_6  and  C_7 
REMARK    4  A    between atoms: C_7  and  O_9 
REMARK    5  A    between atoms: O_9  and  C_10 
REMARK    6  A    between atoms: C_10  and  C_11 
REMARK    7  A    between atoms: C_18  and  O_19 
REMARK    8  A    between atoms: O_19  and  C_20 
REMARK    9  A    between atoms: C_23  and  O_24 
REMARK   10  A    between atoms: O_24  and  C_25 
REMARK   11  A    between atoms: C_25  and  C_27 
REMARK   12  A    between atoms: C_27  and  C_28 
REMARK   13  A    between atoms: C_36  and  O_37 
REMARK   14  A    between atoms: C_44  and  O_45 
REMARK   15  A    between atoms: C_49  and  O_50 
ROOT
HETATM    1  C   UNL     1     -17.985 -12.217  -5.723  1.00  0.00    -0.050 C 
HETATM    2  C   UNL     1     -17.959 -13.317  -4.724  1.00  0.00    -0.013 C 
HETATM    3  C   UNL     1     -17.661 -13.296  -2.846  1.00  0.00     0.052 C 
HETATM    4  C   UNL     1     -17.517 -14.725  -1.908  1.00  0.00     0.046 A 
HETATM    5  C   UNL     1     -18.624 -15.567  -1.280  1.00  0.00    -0.005 A 
HETATM    6  C   UNL     1     -19.909 -15.435  -2.045  1.00  0.00     0.018 C 
HETATM    7  C   UNL     1     -18.466 -16.993  -0.767  1.00  0.00     0.018 C 
HETATM    8  C   UNL     1     -17.821 -14.580  -0.384  1.00  0.00     0.110 A 
HETATM    9  C   UNL     1     -18.143 -13.184   0.025  1.00  0.00     0.174 C 
HETATM   10  C   UNL     1     -16.916 -12.246  -0.437  1.00  0.00     0.050 C 
HETATM   11  C   UNL     1     -15.481 -12.813  -0.521  1.00  0.00     0.016 C 
HETATM   12  C   UNL     1     -17.362 -11.722  -1.775  1.00  0.00     0.086 C 
HETATM   13  C   UNL     1     -16.475 -10.351  -2.593  1.00  0.00     0.131 A 
HETATM   14  C   UNL     1     -15.276 -10.805  -3.298  1.00  0.00    -0.000 C 
HETATM   15  C   UNL     1     -15.824 -11.701  -4.101  1.00  0.00    -0.029 C 
HETATM   16  C   UNL     1     -15.048 -12.909  -4.551  1.00  0.00     0.051 C 
HETATM   17  C   UNL     1     -17.438 -11.110  -3.869  1.00  0.00     0.099 A 
HETATM   18  O   UNL     1     -18.626 -11.463  -3.621  1.00  0.00    -0.304 OA
HETATM   19  C   UNL     1     -17.318  -9.720  -3.897  1.00  0.00     0.134 A 
HETATM   20  C   UNL     1     -17.870 -10.394  -5.399  1.00  0.00     0.141 A 
ENDROOT
BRANCH   1  21
HETATM   21  C   UNL     1     -17.998 -12.130  -7.247  1.00  0.00     0.213 C 
BRANCH  21  22
HETATM   22  O   UNL     1     -19.221 -11.974  -7.938  1.00  0.00    -0.317 OA
BRANCH  22  23
HETATM   23  C   UNL     1     -20.146 -12.894  -7.536  1.00  0.00     0.263 C 
HETATM   24  O   UNL     1     -20.003 -14.106  -7.639  1.00  0.00    -0.265 OA
BRANCH  23  25
HETATM   25  C   UNL     1     -21.473 -12.292  -7.158  1.00  0.00     0.149 C 
BRANCH  25  26
HETATM   26  C   UNL     1     -21.573 -11.714  -5.776  1.00  0.00    -0.046 A 
HETATM   27  C   UNL     1     -21.330 -10.349  -5.568  1.00  0.00     0.047 A 
HETATM   28  C   UNL     1     -21.549  -9.773  -4.315  1.00  0.00     0.101 A 
HETATM   29  C   UNL     1     -21.933 -10.595  -3.250  1.00  0.00     0.099 A 
HETATM   30  C   UNL     1     -22.125 -11.965  -3.435  1.00  0.00     0.040 A 
HETATM   31  C   UNL     1     -21.954 -12.522  -4.700  1.00  0.00     0.010 A 
BRANCH  28  32
HETATM   32  O   UNL     1     -21.399  -8.432  -4.068  1.00  0.00    -0.353 OA
HETATM   33  C   UNL     1     -21.397  -7.609  -5.231  1.00  0.00     0.210 C 
ENDBRANCH  28  32
BRANCH  29  34
HETATM   34  O   UNL     1     -22.155 -10.037  -2.019  1.00  0.00    -0.358 OA
HETATM   35  H   UNL     1     -23.107  -9.895  -1.906  1.00  0.00     0.217 HD
ENDBRANCH  29  34
ENDBRANCH  25  26
ENDBRANCH  23  25
ENDBRANCH  22  23
ENDBRANCH  21  22
ENDBRANCH   1  21
BRANCH  19  36
HETATM   36  O   UNL     1     -18.428  -9.004  -3.329  1.00  0.00    -0.381 OA
HETATM   37  H   UNL     1     -18.104  -8.080  -3.184  1.00  0.00     0.211 HD
ENDBRANCH  19  36
BRANCH  12  38
HETATM   38  O   UNL     1     -18.544 -10.904  -1.389  1.00  0.00    -0.387 OA
HETATM   39  H   UNL     1     -18.363 -10.502  -0.522  1.00  0.00     0.210 HD
ENDBRANCH  12  38
BRANCH   8  40
HETATM   40  O   UNL     1     -16.815 -15.166   0.566  1.00  0.00    -0.306 OA
BRANCH  40  41
HETATM   41  C   UNL     1     -17.009 -15.002   1.923  1.00  0.00     0.255 C 
HETATM   42  C   UNL     1     -17.940 -16.026   2.539  1.00  0.00     0.126 C 
HETATM   43  O   UNL     1     -16.416 -14.197   2.630  1.00  0.00    -0.266 OA
ENDBRANCH  40  41
ENDBRANCH   8  40
BRANCH   9  44
HETATM   44  O   UNL     1     -19.410 -12.848  -0.580  1.00  0.00    -0.312 OA
BRANCH  44  45
HETATM   45  C   UNL     1     -20.431 -12.326   0.123  1.00  0.00     0.263 C 
HETATM   46  O   UNL     1     -20.320 -11.425   0.960  1.00  0.00    -0.265 OA
BRANCH  45  47
HETATM   47  C   UNL     1     -21.737 -13.077  -0.137  1.00  0.00     0.149 C 
BRANCH  47  48
HETATM   48  C   UNL     1     -22.139 -13.890   1.054  1.00  0.00    -0.049 A 
HETATM   49  C   UNL     1     -23.393 -13.688   1.637  1.00  0.00     0.007 A 
HETATM   50  C   UNL     1     -23.699 -14.296   2.850  1.00  0.00     0.001 A 
HETATM   51  C   UNL     1     -22.761 -15.115   3.477  1.00  0.00     0.000 A 
HETATM   52  C   UNL     1     -21.532 -15.357   2.874  1.00  0.00     0.001 A 
HETATM   53  C   UNL     1     -21.219 -14.754   1.661  1.00  0.00     0.007 A 
ENDBRANCH  47  48
ENDBRANCH  45  47
ENDBRANCH  44  45
ENDBRANCH   9  44
TORSDOF 15
ENDMDL
