REMARK  6 active torsions:
REMARK  status: ('A' for Active; 'I' for Inactive)
REMARK    1  A    between atoms: N_1  and  C_2 
REMARK    2  A    between atoms: C_2  and  C_3 
REMARK    3  A    between atoms: C_3  and  O_4 
REMARK    4  A    between atoms: O_4  and  B_5 
REMARK    5  A    between atoms: B_5  and  C_6 
REMARK    6  A    between atoms: B_5  and  C_12 
ROOT
HETATM    1  B   UNL     1       4.903  -2.358   1.813  1.00  0.00     0.402 B 
ENDROOT
BRANCH   1   2
HETATM    2  O   UNL     1       4.384  -1.325   0.883  1.00  0.00    -0.442 OA
BRANCH   2   3
HETATM    3  C   UNL     1       3.567  -0.413   1.587  1.00  0.00     0.173 C 
BRANCH   3   4
HETATM    4  C   UNL     1       3.138   0.730   0.662  1.00  0.00     0.290 C 
BRANCH   4   5
HETATM    5  N   UNL     1       4.292   1.516   0.229  1.00  0.00     0.080 N 
HETATM    6  H   UNL     1       3.947   2.317  -0.348  1.00  0.00     0.312 HD
HETATM    7  H   UNL     1       4.904   0.926  -0.380  1.00  0.00     0.312 HD
ENDBRANCH   4   5
ENDBRANCH   3   4
ENDBRANCH   2   3
ENDBRANCH   1   2
BRANCH   1   8
HETATM    8  C   UNL     1       3.931  -3.421   2.483  1.00  0.00    -0.060 A 
HETATM    9  C   UNL     1       2.698  -3.763   1.910  1.00  0.00    -0.002 A 
HETATM   10  C   UNL     1       1.863  -4.701   2.538  1.00  0.00    -0.000 A 
HETATM   11  C   UNL     1       2.251  -5.285   3.750  1.00  0.00     0.000 A 
HETATM   12  C   UNL     1       3.463  -4.930   4.338  1.00  0.00    -0.000 A 
HETATM   13  C   UNL     1       4.298  -4.012   3.707  1.00  0.00    -0.002 A 
ENDBRANCH   1   8
BRANCH   1  14
HETATM   14  C   UNL     1       6.464  -2.456   2.085  1.00  0.00    -0.060 A 
HETATM   15  C   UNL     1       7.289  -1.320   2.062  1.00  0.00    -0.002 A 
HETATM   16  C   UNL     1       8.660  -1.440   2.326  1.00  0.00    -0.000 A 
HETATM   17  C   UNL     1       9.221  -2.697   2.582  1.00  0.00     0.000 A 
HETATM   18  C   UNL     1       8.415  -3.834   2.577  1.00  0.00    -0.000 A 
HETATM   19  C   UNL     1       7.048  -3.716   2.336  1.00  0.00    -0.002 A 
ENDBRANCH   1  14
TORSDOF 6
