REMARK  3 active torsions:
REMARK  status: ('A' for Active; 'I' for Inactive)
REMARK    1  A    between atoms: C_2  and  C_3 
REMARK    2  A    between atoms: C_2  and  O_6 
REMARK    3  A    between atoms: C_3  and  O_5 
ROOT
HETATM    1  C   UNL     1       0.847   0.130   0.076  1.00  0.00     0.042 C 
HETATM    2  C   UNL     1       2.371   0.074   0.075  1.00  0.00     0.142 C 
ENDROOT
BRANCH   2   3
HETATM    3  C   UNL     1       2.958  -1.302  -0.293  1.00  0.00     0.142 C 
HETATM    4  C   UNL     1       2.583  -2.412   0.679  1.00  0.00     0.042 C 
BRANCH   3   5
HETATM    5  O   UNL     1       2.550  -1.657  -1.621  1.00  0.00    -0.393 OA
HETATM    6  H   UNL     1       1.637  -1.992  -1.578  1.00  0.00     0.210 HD
ENDBRANCH   3   5
ENDBRANCH   2   3
BRANCH   2   7
HETATM    7  O   UNL     1       2.829   1.034  -0.884  1.00  0.00    -0.393 OA
HETATM    8  H   UNL     1       2.794   0.582  -1.751  1.00  0.00     0.210 HD
ENDBRANCH   2   7
TORSDOF 3
