REMARK  11 active torsions:
REMARK  status: ('A' for Active; 'I' for Inactive)
REMARK    1  A    between atoms: C_1  and  C_2 
REMARK    2  A    between atoms: C_1  and  O_17 
REMARK    3  A    between atoms: C_2  and  C_3 
REMARK    4  A    between atoms: C_2  and  O_16 
REMARK    5  A    between atoms: C_3  and  O_4 
REMARK    6  A    between atoms: O_4  and  C_5 
REMARK    7  A    between atoms: C_6  and  O_15 
REMARK    8  A    between atoms: C_10  and  C_11 
REMARK    9  A    between atoms: C_11  and  C_12 
REMARK   10  A    between atoms: C_11  and  O_14 
REMARK   11  A    between atoms: C_12  and  O_13 
ROOT
HETATM    1  C   UNL     1       3.051   2.085   2.901  1.00  0.00     0.117 C 
HETATM    2  C   UNL     1       4.133   2.716   2.450  1.00  0.00     0.174 C 
HETATM    3  C   UNL     1       4.539   3.682   3.488  1.00  0.00     0.320 C 
HETATM    4  O   UNL     1       5.457   4.478   3.429  1.00  0.00    -0.257 OA
HETATM    5  O   UNL     1       3.708   3.538   4.561  1.00  0.00    -0.301 OA
HETATM    6  C   UNL     1       2.646   2.624   4.234  1.00  0.00     0.222 C 
ENDROOT
BRANCH   1   7
HETATM    7  O   UNL     1       2.453   1.026   2.245  1.00  0.00    -0.347 OA
BRANCH   7   8
HETATM    8  C   UNL     1       1.882   0.057   3.123  1.00  0.00     0.209 C 
BRANCH   8   9
HETATM    9  C   UNL     1       1.521  -1.248   2.407  1.00  0.00     0.165 C 
BRANCH   9  10
HETATM   10  C   UNL     1       0.531  -1.048   1.253  1.00  0.00     0.198 C 
BRANCH  10  11
HETATM   11  O   UNL     1       0.120  -2.295   0.695  1.00  0.00    -0.398 OA
HETATM   12  H   UNL     1       0.861  -2.923   0.766  1.00  0.00     0.209 HD
ENDBRANCH  10  11
ENDBRANCH   9  10
BRANCH   9  13
HETATM   13  O   UNL     1       0.981  -2.158   3.377  1.00  0.00    -0.391 OA
HETATM   14  H   UNL     1       0.087  -1.849   3.617  1.00  0.00     0.210 HD
ENDBRANCH   9  13
ENDBRANCH   8   9
ENDBRANCH   7   8
ENDBRANCH   1   7
BRANCH   2  15
HETATM   15  O   UNL     1       4.806   2.491   1.289  1.00  0.00    -0.353 OA
HETATM   16  H   UNL     1       4.311   1.813   0.799  1.00  0.00     0.218 HD
ENDBRANCH   2  15
BRANCH   6  17
HETATM   17  C   UNL     1       1.324   3.420   4.269  1.00  0.00     0.177 C 
BRANCH  17  18
HETATM   18  C   UNL     1       1.024   3.908   5.695  1.00  0.00     0.198 C 
BRANCH  18  19
HETATM   19  O   UNL     1      -0.219   4.607   5.713  1.00  0.00    -0.398 OA
HETATM   20  H   UNL     1      -0.211   5.203   4.939  1.00  0.00     0.209 HD
ENDBRANCH  18  19
ENDBRANCH  17  18
BRANCH  17  21
HETATM   21  O   UNL     1       1.380   4.581   3.419  1.00  0.00    -0.390 OA
HETATM   22  H   UNL     1       2.121   5.138   3.727  1.00  0.00     0.210 HD
ENDBRANCH  17  21
ENDBRANCH   6  17
TORSDOF 11
