REMARK  7 active torsions:
REMARK  status: ('A' for Active; 'I' for Inactive)
REMARK    1  A    between atoms: C_2  and  O_3 
REMARK    2  A    between atoms: O_3  and  C_4 
REMARK    3  A    between atoms: C_5  and  O_14 
REMARK    4  A    between atoms: C_9  and  C_10 
REMARK    5  A    between atoms: C_10  and  C_11 
REMARK    6  A    between atoms: C_10  and  O_13 
REMARK    7  A    between atoms: C_11  and  O_12 
ROOT
HETATM    1  C   UNL     1       4.324  -1.697   0.316  1.00  0.00     0.117 C 
HETATM    2  C   UNL     1       4.927  -2.676  -0.354  1.00  0.00     0.174 C 
HETATM    3  C   UNL     1       6.362  -2.592  -0.046  1.00  0.00     0.320 C 
HETATM    4  O   UNL     1       7.252  -3.289  -0.502  1.00  0.00    -0.257 OA
HETATM    5  O   UNL     1       6.554  -1.599   0.871  1.00  0.00    -0.301 OA
HETATM    6  C   UNL     1       5.320  -0.881   1.067  1.00  0.00     0.222 C 
ENDROOT
BRANCH   6   7
HETATM    7  C   UNL     1       5.549   0.563   0.574  1.00  0.00     0.177 C 
BRANCH   7   8
HETATM    8  C   UNL     1       6.598   1.271   1.448  1.00  0.00     0.198 C 
BRANCH   8   9
HETATM    9  O   UNL     1       6.771   2.615   1.004  1.00  0.00    -0.398 OA
HETATM   10  H   UNL     1       6.809   2.579   0.028  1.00  0.00     0.209 HD
ENDBRANCH   8   9
ENDBRANCH   7   8
BRANCH   7  11
HETATM   11  O   UNL     1       6.034   0.593  -0.783  1.00  0.00    -0.390 OA
HETATM   12  H   UNL     1       6.872   0.092  -0.809  1.00  0.00     0.210 HD
ENDBRANCH   7  11
ENDBRANCH   6   7
BRANCH   1  13
HETATM   13  O   UNL     1       2.953  -1.551   0.373  1.00  0.00    -0.350 OA
BRANCH  13  14
HETATM   14  C   UNL     1       2.472  -1.017   1.610  1.00  0.00     0.171 C 
HETATM   15  C   UNL     1       0.963  -1.158   1.691  1.00  0.00     0.034 C 
ENDBRANCH  13  14
ENDBRANCH   1  13
BRANCH   2  16
HETATM   16  O   UNL     1       4.346  -3.643  -1.123  1.00  0.00    -0.353 OA
HETATM   17  H   UNL     1       3.390  -3.455  -1.130  1.00  0.00     0.218 HD
ENDBRANCH   2  16
TORSDOF 7
