REMARK  1 active torsions:
REMARK  status: ('A' for Active; 'I' for Inactive)
REMARK    1  A    between atoms: C_5  and  C_8 
ROOT
HETATM    1  C   UNL     1      -3.223   0.137  -0.154  1.00  0.00     0.022 C 
HETATM    2  C   UNL     1      -3.953   1.247  -0.008  1.00  0.00    -0.006 C 
HETATM    3  C   UNL     1      -3.575   2.691   0.257  1.00  0.00     0.031 C 
HETATM    4  C   UNL     1      -3.857   3.442  -1.066  1.00  0.00     0.011 C 
HETATM    5  C   UNL     1      -5.405   3.497  -1.131  1.00  0.00     0.018 C 
HETATM    6  C   UNL     1      -5.838   2.779   0.172  1.00  0.00     0.029 C 
HETATM    7  C   UNL     1      -5.458   1.315  -0.068  1.00  0.00     0.165 C 
HETATM    8  O   UNL     1      -6.201   0.381  -0.303  1.00  0.00    -0.292 OA
HETATM    9  C   UNL     1      -4.726   3.175   1.189  1.00  0.00    -0.025 C 
HETATM   10  C   UNL     1      -4.650   4.678   1.520  1.00  0.00     0.016 C 
HETATM   11  C   UNL     1      -4.809   2.432   2.543  1.00  0.00     0.016 C 
HETATM   12  C   UNL     1      -7.274   3.023   0.574  1.00  0.00     0.025 C 
ENDROOT
BRANCH   1  13
HETATM   13  C   UNL     1      -1.758   0.108  -0.116  1.00  0.00    -0.036 A 
HETATM   14  C   UNL     1      -1.081  -0.150   1.080  1.00  0.00     0.012 A 
HETATM   15  C   UNL     1       0.317  -0.231   1.102  1.00  0.00     0.007 A 
HETATM   16  C   UNL     1       1.060  -0.048  -0.070  1.00  0.00    -0.062 A 
HETATM   17  C   UNL     1       2.559  -0.128  -0.053  1.00  0.00     0.048 C 
HETATM   18  C   UNL     1       0.382   0.232  -1.262  1.00  0.00     0.007 A 
HETATM   19  C   UNL     1      -1.017   0.307  -1.285  1.00  0.00     0.012 A 
ENDBRANCH   1  13
TORSDOF 1
