REMARK  2 active torsions:
REMARK  status: ('A' for Active; 'I' for Inactive)
REMARK    1  A    between atoms: C_2  and  C_5 
REMARK    2  A    between atoms: C_8  and  O_11 
ROOT
HETATM    1  C   UNL     1       3.082   0.973  -0.215  1.00  0.00    -0.007 C 
HETATM    2  C   UNL     1       4.558   0.671  -0.534  1.00  0.00     0.008 C 
HETATM    3  C   UNL     1       5.422   0.406   0.694  1.00  0.00     0.032 C 
HETATM    4  C   UNL     1       5.248   1.417   1.825  1.00  0.00     0.118 C 
HETATM    5  C   UNL     1       3.847   1.996   2.021  1.00  0.00     0.032 C 
HETATM    6  C   UNL     1       3.059   2.188   0.733  1.00  0.00     0.008 C 
ENDROOT
BRANCH   1   7
HETATM    7  C   UNL     1       2.170  -0.263   0.170  1.00  0.00    -0.048 C 
HETATM    8  C   UNL     1       2.583  -1.065   1.417  1.00  0.00     0.015 C 
HETATM    9  C   UNL     1       2.145  -1.268  -1.007  1.00  0.00     0.015 C 
HETATM   10  C   UNL     1       0.716   0.212   0.396  1.00  0.00     0.015 C 
ENDBRANCH   1   7
BRANCH   4  11
HETATM   11  O   UNL     1       5.665   0.809   3.050  1.00  0.00    -0.396 OA
HETATM   12  H   UNL     1       5.060   0.064   3.225  1.00  0.00     0.210 HD
ENDBRANCH   4  11
TORSDOF 2
