REMARK  1 active torsions:
REMARK  status: ('A' for Active; 'I' for Inactive)
REMARK    1  A    between atoms: C_2  and  O_4 
ROOT
HETATM    1  C   UNL     1       1.100  -0.008   0.111  1.00  0.00     0.125 C 
HETATM    2  C   UNL     1       2.597  -0.062   0.063  1.00  0.00     0.135 C 
HETATM    3  O   UNL     1       3.234  -0.843  -0.624  1.00  0.00    -0.650 OA
ENDROOT
BRANCH   2   4
HETATM    4  O   UNL     1       3.183   0.852   0.867  1.00  0.00    -0.777 OA
HETATM    5  H   UNL     1       2.549   1.409   1.357  1.00  0.00     0.167 HD
ENDBRANCH   2   4
TORSDOF 1
