REMARK  6 active torsions:
REMARK  status: ('A' for Active; 'I' for Inactive)
REMARK       I    between atoms: C_2  and  N_4 
REMARK    1  A    between atoms: N_4  and  CA_5 
REMARK    2  A    between atoms: CA_5  and  CB_6 
REMARK    3  A    between atoms: CA_5  and  C_14 
REMARK    4  A    between atoms: CB_6  and  CG_7 
REMARK    5  A    between atoms: CZ_10  and  OH_13 
REMARK    6  A    between atoms: C_14  and  OXT_16 
ROOT
ATOM      1  CA  TYR A   1       4.691  -0.758  -0.994  1.00  0.00     0.186 C 
ENDROOT
BRANCH   1   2
ATOM      2  N   TYR A   1       3.223  -0.719  -0.910  1.00  0.00    -0.347 N 
HETATM    3  C   UNK A   0       2.477   0.178  -1.624  1.00  0.00     0.214 C 
HETATM    4  C   UNK A   0       1.008   0.171  -1.316  1.00  0.00     0.117 C 
HETATM    5  O   UNK A   0       2.991   0.888  -2.484  1.00  0.00    -0.274 OA
ATOM      6  H   TYR A   1       2.758  -1.435  -0.363  1.00  0.00     0.163 HD
ENDBRANCH   1   2
BRANCH   1   7
ATOM      7  CB  TYR A   1       5.328  -1.212   0.332  1.00  0.00     0.074 C 
BRANCH   7   8
ATOM      8  CG  TYR A   1       5.020  -0.366   1.556  1.00  0.00    -0.056 A 
ATOM      9  CD1 TYR A   1       4.290   0.834   1.502  1.00  0.00     0.010 A 
ATOM     10  CE1 TYR A   1       3.934   1.515   2.670  1.00  0.00     0.037 A 
ATOM     11  CZ  TYR A   1       4.342   1.023   3.905  1.00  0.00     0.065 A 
ATOM     12  CE2 TYR A   1       5.122  -0.125   3.983  1.00  0.00     0.037 A 
ATOM     13  CD2 TYR A   1       5.453  -0.817   2.814  1.00  0.00     0.010 A 
BRANCH  11  14
ATOM     14  OH  TYR A   1       3.988   1.642   5.064  1.00  0.00    -0.361 OA
ATOM     15  HH  TYR A   1       3.379   2.370   4.852  1.00  0.00     0.217 HD
ENDBRANCH  11  14
ENDBRANCH   7   8
ENDBRANCH   1   7
BRANCH   1  16
ATOM     16  C   TYR A   1       5.093  -1.664  -2.165  1.00  0.00     0.163 C 
ATOM     17  O   TYR A   1       5.826  -2.638  -2.076  1.00  0.00    -0.648 OA
BRANCH  16  18
ATOM     18  OXT TYR A   1       4.583  -1.249  -3.354  1.00  0.00    -0.775 OA
ATOM     19  HXT TYR A   1       4.066  -0.411  -3.273  1.00  0.00     0.167 HD
ENDBRANCH  16  18
ENDBRANCH   1  16
TORSDOF 6
