REMARK  3 active torsions:
REMARK  status: ('A' for Active; 'I' for Inactive)
REMARK       I    between atoms: C_2  and  N_4 
REMARK    1  A    between atoms: N_4  and  C_5 
REMARK    2  A    between atoms: C_5  and  C_6 
REMARK    3  A    between atoms: C_6  and  O_7 
ROOT
HETATM    1  C   UNL     1       1.046   0.034   0.001  1.00  0.00     0.117 C 
HETATM    2  C   UNL     1       2.543  -0.008  -0.111  1.00  0.00     0.213 C 
HETATM    3  O   UNL     1       3.130  -0.800  -0.841  1.00  0.00    -0.274 OA
HETATM    4  N   UNL     1       3.185   0.916   0.679  1.00  0.00    -0.359 N 
HETATM    5  H   UNL     1       2.645   1.578   1.222  1.00  0.00     0.162 HD
ENDROOT
BRANCH   4   6
HETATM    6  C   UNL     1       4.637   0.995   0.732  1.00  0.00     0.148 C 
BRANCH   6   7
HETATM    7  C   UNL     1       5.197   1.946  -0.324  1.00  0.00     0.183 C 
BRANCH   7   8
HETATM    8  O   UNL     1       4.713   3.269  -0.095  1.00  0.00    -0.399 OA
HETATM    9  H   UNL     1       3.751   3.230  -0.233  1.00  0.00     0.209 HD
ENDBRANCH   7   8
ENDBRANCH   6   7
ENDBRANCH   4   6
TORSDOF 3
