REMARK  21 active torsions:
REMARK  status: ('A' for Active; 'I' for Inactive)
REMARK    1  A    between atoms: CB_2  and  CA_4 
REMARK    2  A    between atoms: CA_4  and  C_5 
REMARK    3  A    between atoms: CA_4  and  N_20 
REMARK       I    between atoms: C_5  and  N_7 
REMARK    4  A    between atoms: N_7  and  CA_8 
REMARK    5  A    between atoms: CA_8  and  CB_9 
REMARK    6  A    between atoms: CA_8  and  C_17 
REMARK    7  A    between atoms: CB_9  and  CG_10 
REMARK    8  A    between atoms: CZ_13  and  OH_16 
REMARK    9  A    between atoms: C_17  and  OXT_19 
REMARK       I    between atoms: N_20  and  C_21 
REMARK   10  A    between atoms: C_21  and  CA_23 
REMARK   11  A    between atoms: CA_23  and  CB_24 
REMARK   12  A    between atoms: CA_23  and  N_28 
REMARK   13  A    between atoms: CB_24  and  CG_25 
REMARK   14  A    between atoms: CG_25  and  OD2_27 
REMARK       I    between atoms: N_28  and  C_29 
REMARK   15  A    between atoms: C_29  and  CA_31 
REMARK   16  A    between atoms: CA_31  and  CB_32 
REMARK   17  A    between atoms: CA_31  and  N_37 
REMARK   18  A    between atoms: CB_32  and  CG_33 
REMARK   19  A    between atoms: CG_33  and  CD_34 
REMARK   20  A    between atoms: CD_34  and  CE_35 
REMARK   21  A    between atoms: CE_35  and  NZ_36 
REMARK       I    between atoms: N_37  and  C_47 
ROOT
ATOM      1  N   LYS A   1       4.354   1.203  -0.843  1.00  0.00    -0.346 N 
ATOM      2  C   LYS A   1       5.027   1.509  -2.010  1.00  0.00     0.241 C 
ATOM      3  O   LYS A   1       4.434   1.697  -3.072  1.00  0.00    -0.271 OA
ATOM      4  H   LYS A   1       4.931   0.814  -0.097  1.00  0.00     0.163 HD
ENDROOT
BRANCH   2   5
ATOM      5  CA  LYS A   1       6.573   1.616  -1.888  1.00  0.00     0.186 C 
BRANCH   5   6
ATOM      6  CB  LYS A   1       6.952   2.625  -0.802  1.00  0.00     0.144 C 
BRANCH   6   7
ATOM      7  CG  LYS A   1       8.437   2.743  -0.634  1.00  0.00     0.141 C 
ATOM      8  OD1 LYS A   1       9.191   3.131  -1.513  1.00  0.00    -0.650 OA
BRANCH   7   9
ATOM      9  OD2 LYS A   1       8.881   2.373   0.588  1.00  0.00    -0.776 OA
ATOM     10  HD2 LYS A   1       8.188   2.041   1.193  1.00  0.00     0.167 HD
ENDBRANCH   7   9
ENDBRANCH   6   7
ENDBRANCH   5   6
BRANCH   5  11
ATOM     11  N   LYS A   1       7.160   0.281  -1.726  1.00  0.00    -0.346 N 
ATOM     12  C   LYS A   1       7.131  -0.428  -0.554  1.00  0.00     0.241 C 
ATOM     13  O   LYS A   1       6.520  -0.005   0.430  1.00  0.00    -0.271 OA
ATOM     14  H   LYS A   1       7.722  -0.089  -2.495  1.00  0.00     0.163 HD
BRANCH  12  15
ATOM     15  CA  LYS A   1       7.909  -1.758  -0.561  1.00  0.00     0.176 C 
BRANCH  15  16
ATOM     16  CB  LYS A   1       8.129  -2.229   0.884  1.00  0.00     0.035 C 
BRANCH  16  17
ATOM     17  CG  LYS A   1       8.923  -3.530   1.015  1.00  0.00     0.004 C 
BRANCH  17  18
ATOM     18  CD  LYS A   1      10.332  -3.439   0.430  1.00  0.00     0.030 C 
BRANCH  18  19
ATOM     19  CE  LYS A   1      11.068  -4.769   0.564  1.00  0.00     0.267 C 
BRANCH  19  20
ATOM     20  NZ  LYS A   1      12.403  -4.662  -0.009  1.00  0.00     0.078 N 
ATOM     21  HZ1 LYS A   1      12.348  -4.286  -0.954  1.00  0.00     0.312 HD
ATOM     22  HZ2 LYS A   1      12.810  -5.591  -0.094  1.00  0.00     0.312 HD
ENDBRANCH  19  20
ENDBRANCH  18  19
ENDBRANCH  17  18
ENDBRANCH  16  17
ENDBRANCH  15  16
BRANCH  15  23
ATOM     23  N   LYS A   1       7.192  -2.775  -1.326  1.00  0.00    -0.348 N 
HETATM   24  C   UNK A   0       7.428  -2.988  -2.661  1.00  0.00     0.214 C 
HETATM   25  O   UNK A   0       8.177  -2.278  -3.323  1.00  0.00    -0.274 OA
HETATM   26  C   UNK A   0       6.719  -4.187  -3.238  1.00  0.00     0.117 C 
ATOM     27  H   LYS A   1       6.480  -3.319  -0.854  1.00  0.00     0.163 HD
ENDBRANCH  15  23
ENDBRANCH  12  15
ENDBRANCH   5  11
ENDBRANCH   2   5
BRANCH   1  28
ATOM     28  CA  LYS A   1       2.905   0.954  -0.777  1.00  0.00     0.180 C 
BRANCH  28  29
ATOM     29  CB  LYS A   1       2.484   0.278   0.561  1.00  0.00     0.009 C 
ATOM     30  CG1 LYS A   1       0.972  -0.004   0.620  1.00  0.00     0.012 C 
ATOM     31  CG2 LYS A   1       3.202  -1.051   0.812  1.00  0.00     0.012 C 
ENDBRANCH  28  29
BRANCH  28  32
ATOM     32  C   LYS A   1       2.167   2.313  -0.922  1.00  0.00     0.241 C 
ATOM     33  O   LYS A   1       1.562   2.859  -0.004  1.00  0.00    -0.271 OA
ATOM     34  N   LYS A   1       2.181   2.876  -2.178  1.00  0.00    -0.345 N 
ATOM     35  H   LYS A   1       2.855   2.496  -2.852  1.00  0.00     0.163 HD
BRANCH  34  36
ATOM     36  CA  LYS A   1       1.580   4.190  -2.459  1.00  0.00     0.186 C 
BRANCH  36  37
ATOM     37  CB  LYS A   1       2.539   5.127  -3.229  1.00  0.00     0.074 C 
BRANCH  37  38
ATOM     38  CG  LYS A   1       3.783   5.590  -2.485  1.00  0.00    -0.056 A 
ATOM     39  CD1 LYS A   1       4.040   5.273  -1.143  1.00  0.00     0.010 A 
ATOM     40  CE1 LYS A   1       5.165   5.765  -0.479  1.00  0.00     0.037 A 
ATOM     41  CZ  LYS A   1       6.053   6.582  -1.159  1.00  0.00     0.065 A 
ATOM     42  CE2 LYS A   1       5.829   6.915  -2.488  1.00  0.00     0.037 A 
ATOM     43  CD2 LYS A   1       4.698   6.422  -3.150  1.00  0.00     0.010 A 
BRANCH  41  44
ATOM     44  OH  LYS A   1       7.165   7.075  -0.547  1.00  0.00    -0.361 OA
ATOM     45  HH  LYS A   1       7.181   6.768   0.374  1.00  0.00     0.217 HD
ENDBRANCH  41  44
ENDBRANCH  37  38
ENDBRANCH  36  37
BRANCH  36  46
ATOM     46  C   LYS A   1       0.252   4.002  -3.194  1.00  0.00     0.163 C 
ATOM     47  O   LYS A   1      -0.282   4.847  -3.891  1.00  0.00    -0.648 OA
BRANCH  46  48
ATOM     48  OXT LYS A   1      -0.358   2.827  -2.900  1.00  0.00    -0.775 OA
ATOM     49  HXT LYS A   1       0.165   2.342  -2.232  1.00  0.00     0.167 HD
ENDBRANCH  46  48
ENDBRANCH  36  46
ENDBRANCH  34  36
ENDBRANCH  28  32
ENDBRANCH   1  28
TORSDOF 21
