REMARK  12 active torsions:
REMARK  status: ('A' for Active; 'I' for Inactive)
REMARK    1  A    between atoms: CG_2  and  CB_4 
REMARK    2  A    between atoms: CB_4  and  CA_5 
REMARK    3  A    between atoms: CA_5  and  C_6 
REMARK    4  A    between atoms: CA_5  and  N_9 
REMARK    5  A    between atoms: C_6  and  OXT_8 
REMARK       I    between atoms: N_9  and  C_10 
REMARK    6  A    between atoms: C_10  and  CA_12 
REMARK    7  A    between atoms: CA_12  and  CB_13 
REMARK    8  A    between atoms: CA_12  and  N_21 
REMARK    9  A    between atoms: CB_13  and  CG_14 
REMARK   10  A    between atoms: CZ_17  and  OH_20 
REMARK       I    between atoms: N_21  and  C_26 
REMARK   11  A    between atoms: C_26  and  C_28 
REMARK       I    between atoms: N_32  and  C_33 
REMARK   12  A    between atoms: C_33  and  C_35 
REMARK       I    between atoms: N_39  and  C_40 
ROOT
ATOM      1  CA  TYR A   1       6.950   4.294   0.762  1.00  0.00     0.180 C 
ENDROOT
BRANCH   1   2
ATOM      2  C   TYR A   1       6.532   2.825   0.519  1.00  0.00     0.241 C 
ATOM      3  N   TYR A   1       5.183   2.583   0.367  1.00  0.00    -0.345 N 
ATOM      4  H   TYR A   1       4.579   3.349   0.088  1.00  0.00     0.163 HD
ATOM      5  O   TYR A   1       7.346   1.904   0.445  1.00  0.00    -0.271 OA
BRANCH   3   6
ATOM      6  CA  TYR A   1       4.665   1.213   0.179  1.00  0.00     0.182 C 
BRANCH   6   7
ATOM      7  CB  TYR A   1       3.248   1.100   0.782  1.00  0.00     0.040 C 
BRANCH   7   8
ATOM      8  CG  TYR A   1       2.613  -0.311   0.771  1.00  0.00    -0.020 A 
ATOM      9  CD1 TYR A   1       3.441  -1.345   1.533  1.00  0.00     0.009 A 
ATOM     10  CD2 TYR A   1       1.199  -0.267   1.365  1.00  0.00     0.009 A 
ENDBRANCH   7   8
ENDBRANCH   6   7
BRANCH   6  11
ATOM     11  C   TYR A   1       4.725   0.874  -1.320  1.00  0.00     0.163 C 
ATOM     12  O   TYR A   1       3.750   0.620  -2.016  1.00  0.00    -0.648 OA
BRANCH  11  13
ATOM     13  OXT TYR A   1       5.979   0.891  -1.833  1.00  0.00    -0.775 OA
ATOM     14  HXT TYR A   1       6.703   1.076  -1.183  1.00  0.00     0.167 HD
ENDBRANCH  11  13
ENDBRANCH   6  11
ENDBRANCH   3   6
ENDBRANCH   1   2
BRANCH   1  15
ATOM     15  CB  TYR A   1       6.297   4.845   2.041  1.00  0.00     0.073 C 
BRANCH  15  16
ATOM     16  CG  TYR A   1       6.612   4.078   3.309  1.00  0.00    -0.056 A 
ATOM     17  CD1 TYR A   1       7.707   4.439   4.107  1.00  0.00     0.010 A 
ATOM     18  CE1 TYR A   1       7.961   3.773   5.309  1.00  0.00     0.037 A 
ATOM     19  CZ  TYR A   1       7.127   2.733   5.707  1.00  0.00     0.065 A 
ATOM     20  CE2 TYR A   1       6.062   2.334   4.913  1.00  0.00     0.037 A 
ATOM     21  CD2 TYR A   1       5.802   3.008   3.720  1.00  0.00     0.010 A 
BRANCH  19  22
ATOM     22  OH  TYR A   1       7.312   2.084   6.891  1.00  0.00    -0.361 OA
ATOM     23  HH  TYR A   1       8.008   2.541   7.390  1.00  0.00     0.217 HD
ENDBRANCH  19  22
ENDBRANCH  15  16
ENDBRANCH   1  15
BRANCH   1  24
ATOM     24  N   TYR A   1       8.414   4.404   0.793  1.00  0.00    -0.346 N 
HETATM   25  C   UNK A   0       9.097   5.562   0.451  1.00  0.00     0.241 C 
HETATM   26  O   UNK A   0       8.518   6.576   0.082  1.00  0.00    -0.271 OA
ATOM     27  H   TYR A   1       8.913   3.519   0.846  1.00  0.00     0.163 HD
BRANCH  25  28
HETATM   28  C   UNK A   0      10.636   5.475   0.671  1.00  0.00     0.179 C 
HETATM   29  C   UNK A   0      10.973   6.568   1.710  1.00  0.00     0.037 C 
HETATM   30  C   UNK A   0      12.492   6.569   1.767  1.00  0.00     0.022 C 
HETATM   31  C   UNK A   0      12.903   6.187   0.358  1.00  0.00     0.127 C 
HETATM   32  N   UNK A   0      11.684   5.763  -0.326  1.00  0.00    -0.337 N 
HETATM   33  C   UNK A   0      11.866   5.296  -1.609  1.00  0.00     0.243 C 
HETATM   34  O   UNK A   0      12.986   5.347  -2.137  1.00  0.00    -0.271 OA
BRANCH  33  35
HETATM   35  C   UNK A   0      10.690   4.884  -2.496  1.00  0.00     0.179 C 
HETATM   36  C   UNK A   0       9.877   6.134  -2.848  1.00  0.00     0.037 C 
HETATM   37  C   UNK A   0       8.483   5.628  -3.190  1.00  0.00     0.022 C 
HETATM   38  C   UNK A   0       8.441   4.184  -2.715  1.00  0.00     0.127 C 
HETATM   39  N   UNK A   0       9.699   3.926  -2.032  1.00  0.00    -0.339 N 
HETATM   40  C   UNK A   0       9.974   2.603  -1.714  1.00  0.00     0.216 C 
HETATM   41  O   UNK A   0       9.120   1.723  -1.828  1.00  0.00    -0.274 OA
HETATM   42  C   UNK A   0      11.301   2.274  -1.080  1.00  0.00     0.117 C 
ENDBRANCH  33  35
ENDBRANCH  25  28
ENDBRANCH   1  24
TORSDOF 12
