REMARK  16 active torsions:
REMARK  status: ('A' for Active; 'I' for Inactive)
REMARK       I    between atoms: C_2  and  N_4 
REMARK    1  A    between atoms: N_4  and  C_5 
REMARK    2  A    between atoms: C_5  and  C_6 
REMARK    3  A    between atoms: C_6  and  C_7 
REMARK       I    between atoms: C_7  and  N_10 
REMARK    4  A    between atoms: N_10  and  CA_11 
REMARK    5  A    between atoms: CA_11  and  CB_12 
REMARK    6  A    between atoms: CA_11  and  C_19 
REMARK    7  A    between atoms: CB_12  and  CG_13 
REMARK       I    between atoms: C_19  and  N_23 
REMARK    8  A    between atoms: N_23  and  CA_24 
REMARK    9  A    between atoms: CA_24  and  CB_25 
REMARK   10  A    between atoms: CA_24  and  C_27 
REMARK   11  A    between atoms: CB_25  and  OG_26 
REMARK       I    between atoms: C_27  and  N_31 
REMARK   12  A    between atoms: N_31  and  CA_32 
REMARK   13  A    between atoms: CA_32  and  CB_33 
REMARK   14  A    between atoms: CA_32  and  C_40 
REMARK   15  A    between atoms: CB_33  and  CG_34 
REMARK   16  A    between atoms: C_40  and  OXT_42 
ROOT
ATOM      1  C   HIS A   1       9.218  -4.099  -4.004  1.00  0.00     0.241 C 
ATOM      2  O   HIS A   1       8.588  -5.139  -4.284  1.00  0.00    -0.271 OA
ATOM      3  N   SER A   2      10.440  -3.780  -4.653  1.00  0.00    -0.344 N 
ATOM      4  H   SER A   2      10.997  -3.160  -4.066  1.00  0.00     0.163 HD
ENDROOT
BRANCH   3   5
ATOM      5  CA  SER A   2      11.207  -4.749  -5.482  1.00  0.00     0.200 C 
BRANCH   5   6
ATOM      6  CB  SER A   2      10.485  -5.015  -6.828  1.00  0.00     0.199 C 
BRANCH   6   7
ATOM      7  OG  SER A   2       9.125  -5.440  -6.746  1.00  0.00    -0.398 OA
ATOM      8  H   SER A   2       8.867  -5.535  -5.803  1.00  0.00     0.209 HD
ENDBRANCH   6   7
ENDBRANCH   5   6
BRANCH   5   9
ATOM      9  C   SER A   2      12.814  -4.537  -5.839  1.00  0.00     0.243 C 
ATOM     10  O   SER A   2      13.394  -5.305  -6.609  1.00  0.00    -0.271 OA
ATOM     11  N   HIS A   3      13.587  -3.664  -5.092  1.00  0.00    -0.344 N 
ATOM     12  H   HIS A   3      13.040  -2.931  -4.642  1.00  0.00     0.163 HD
BRANCH  11  13
ATOM     13  CA  HIS A   3      15.107  -3.482  -4.932  1.00  0.00     0.188 C 
BRANCH  13  14
ATOM     14  CB  HIS A   3      15.542  -2.465  -3.761  1.00  0.00     0.094 C 
BRANCH  14  15
ATOM     15  CG  HIS A   3      15.815  -2.807  -2.275  1.00  0.00     0.028 A 
ATOM     16  CD2 HIS A   3      16.034  -3.922  -1.475  1.00  0.00     0.114 A 
ATOM     17  NE2 HIS A   3      15.896  -3.611  -0.132  1.00  0.00    -0.360 N 
ATOM     18  CE1 HIS A   3      15.845  -2.305  -0.086  1.00  0.00     0.180 A 
ATOM     19  HE2 HIS A   3      15.845  -4.261   0.652  1.00  0.00     0.166 HD
ATOM     20  ND1 HIS A   3      15.941  -1.779  -1.347  1.00  0.00    -0.354 N 
ATOM     21  HD1 HIS A   3      15.928  -0.791  -1.549  1.00  0.00     0.166 HD
ENDBRANCH  14  15
ENDBRANCH  13  14
BRANCH  13  22
ATOM     22  C   HIS A   3      16.040  -4.712  -4.872  1.00  0.00     0.163 C 
ATOM     23  O   HIS A   3      17.159  -4.684  -4.372  1.00  0.00    -0.648 OA
BRANCH  22  24
ATOM     24  OXT HIS A   3      15.610  -5.818  -5.508  1.00  0.00    -0.775 OA
ATOM     25  HXT HIS A   3      14.778  -5.696  -6.026  1.00  0.00     0.167 HD
ENDBRANCH  22  24
ENDBRANCH  13  22
ENDBRANCH  11  13
ENDBRANCH   5   9
ENDBRANCH   3   5
BRANCH   1  26
ATOM     26  CA  HIS A   1       8.647  -3.017  -3.018  1.00  0.00     0.182 C 
BRANCH  26  27
ATOM     27  N   HIS A   1       9.682  -2.079  -2.620  1.00  0.00    -0.347 N 
HETATM   28  C   UNK A   0      10.401  -2.298  -1.477  1.00  0.00     0.219 C 
HETATM   29  O   UNK A   0      10.204  -3.250  -0.732  1.00  0.00    -0.274 OA
ATOM     30  H   HIS A   1       9.683  -1.145  -3.017  1.00  0.00     0.163 HD
BRANCH  28  31
HETATM   31  C   UNK A   0      11.507  -1.304  -1.318  1.00  0.00     0.122 C 
BRANCH  31  32
HETATM   32  C   UNK A   0      12.671  -1.983  -0.620  1.00  0.00     0.132 C 
BRANCH  32  33
HETATM   33  N   UNK A   0      13.048  -3.319  -1.081  1.00  0.00    -0.361 N 
HETATM   34  C   UNK A   0      12.862  -3.776  -2.354  1.00  0.00     0.213 C 
HETATM   35  C   UNK A   0      13.400  -5.171  -2.652  1.00  0.00     0.117 C 
HETATM   36  O   UNK A   0      12.363  -3.052  -3.197  1.00  0.00    -0.274 OA
HETATM   37  H   UNK A   0      13.736  -3.816  -0.518  1.00  0.00     0.162 HD
ENDBRANCH  32  33
ENDBRANCH  31  32
ENDBRANCH  28  31
ENDBRANCH  26  27
BRANCH  26  38
ATOM     38  CB  HIS A   1       7.477  -2.220  -3.607  1.00  0.00     0.093 C 
BRANCH  38  39
ATOM     39  CG  HIS A   1       6.966  -1.147  -2.673  1.00  0.00     0.028 A 
ATOM     40  CD2 HIS A   1       6.961  -1.012  -1.295  1.00  0.00     0.114 A 
ATOM     41  NE2 HIS A   1       6.490   0.216  -0.928  1.00  0.00    -0.360 N 
ATOM     42  CE1 HIS A   1       6.147   0.806  -2.041  1.00  0.00     0.180 A 
ATOM     43  HE2 HIS A   1       6.421   0.593   0.017  1.00  0.00     0.166 HD
ATOM     44  ND1 HIS A   1       6.389   0.012  -3.131  1.00  0.00    -0.354 N 
ATOM     45  HD1 HIS A   1       6.227   0.269  -4.088  1.00  0.00     0.166 HD
ENDBRANCH  38  39
ENDBRANCH  26  38
ENDBRANCH   1  26
TORSDOF 16
