REMARK  15 active torsions:
REMARK  status: ('A' for Active; 'I' for Inactive)
REMARK    1  A    between atoms: CA_2  and  C_3 
REMARK    2  A    between atoms: CA_2  and  N_6 
REMARK    3  A    between atoms: C_3  and  OXT_5 
REMARK       I    between atoms: N_6  and  C_9 
REMARK    4  A    between atoms: C_9  and  C_11 
REMARK    5  A    between atoms: C_11  and  C_12 
REMARK    6  A    between atoms: C_12  and  C_13 
REMARK    7  A    between atoms: C_13  and  C_14 
REMARK    8  A    between atoms: C_14  and  C_15 
REMARK    9  A    between atoms: C_15  and  N_16 
REMARK       I    between atoms: N_16  and  C_17 
REMARK   10  A    between atoms: C_17  and  C_19 
REMARK   11  A    between atoms: C_19  and  C_20 
REMARK   12  A    between atoms: C_19  and  N_28 
REMARK   13  A    between atoms: C_20  and  C_21 
REMARK   14  A    between atoms: C_21  and  C_22 
REMARK   15  A    between atoms: C_22  and  N_23 
REMARK       I    between atoms: C_25  and  N_26 
REMARK       I    between atoms: C_25  and  N_27 
REMARK       I    between atoms: N_28  and  C_29 
ROOT
HETATM    1  N   UNK A   0      10.540   5.917   1.787  1.00  0.00    -0.359 N 
HETATM    2  C   UNK A   0      11.231   7.114   1.844  1.00  0.00     0.240 C 
HETATM    3  O   UNK A   0      10.658   8.199   1.896  1.00  0.00    -0.271 OA
HETATM    4  H   UNK A   0      11.059   5.049   1.843  1.00  0.00     0.162 HD
ENDROOT
BRANCH   2   5
HETATM    5  C   UNK A   0      12.764   6.959   1.970  1.00  0.00     0.176 C 
BRANCH   5   6
HETATM    6  C   UNK A   0      13.461   8.198   1.374  1.00  0.00     0.036 C 
BRANCH   6   7
HETATM    7  C   UNK A   0      14.992   8.121   1.403  1.00  0.00     0.022 C 
BRANCH   7   8
HETATM    8  C   UNK A   0      15.641   9.358   0.783  1.00  0.00     0.121 C 
BRANCH   8   9
HETATM    9  N   UNK A   0      17.089   9.227   0.921  1.00  0.00    -0.372 N 
HETATM   10  C   UNK A   0      17.835  10.154   0.454  1.00  0.00     0.121 C 
HETATM   11  N   UNK A   0      17.495  11.292  -0.188  1.00  0.00    -0.279 NA
HETATM   12  N   UNK A   0      19.177  10.070   0.570  1.00  0.00    -0.279 NA
HETATM   13  H   UNK A   0      16.517  11.537  -0.105  1.00  0.00     0.126 HD
HETATM   14  H   UNK A   0      18.088  12.073   0.068  1.00  0.00     0.126 HD
HETATM   15  H   UNK A   0      19.442   9.129   0.847  1.00  0.00     0.126 HD
HETATM   16  H   UNK A   0      19.667  10.355  -0.267  1.00  0.00     0.126 HD
ATOM     17  HN  UNK A   0      17.497   8.413   1.381  1.00  0.00     0.161 HD
ENDBRANCH   8   9
ENDBRANCH   7   8
ENDBRANCH   6   7
ENDBRANCH   5   6
BRANCH   5  18
HETATM   18  N   UNK A   0      13.058   6.801   3.394  1.00  0.00    -0.348 N 
HETATM   19  C   UNK A   0      14.144   6.084   3.835  1.00  0.00     0.214 C 
HETATM   20  O   UNK A   0      14.870   5.430   3.093  1.00  0.00    -0.274 OA
HETATM   21  C   UNK A   0      14.395   6.169   5.317  1.00  0.00     0.117 C 
HETATM   22  H   UNK A   0      12.539   7.378   4.045  1.00  0.00     0.163 HD
ENDBRANCH   5  18
ENDBRANCH   2   5
BRANCH   1  23
HETATM   23  C   UNK A   0       9.101   5.860   1.608  1.00  0.00     0.122 C 
BRANCH  23  24
HETATM   24  C   UNK A   0       8.346   5.782   2.936  1.00  0.00     0.020 C 
BRANCH  24  25
HETATM   25  C   UNK A   0       6.819   5.725   2.767  1.00  0.00     0.002 C 
BRANCH  25  26
HETATM   26  C   UNK A   0       6.350   4.496   1.981  1.00  0.00     0.009 C 
BRANCH  26  27
HETATM   27  C   UNK A   0       4.830   4.432   1.811  1.00  0.00     0.103 C 
BRANCH  27  28
HETATM   28  C   UNK A   0       4.424   3.227   0.980  1.00  0.00     0.218 C 
ATOM     29  N   ALA A   1       3.070   3.073   0.806  1.00  0.00    -0.347 N 
ATOM     30  H   ALA A   1       2.467   3.875   0.957  1.00  0.00     0.163 HD
HETATM   31  O   UNK A   0       5.215   2.454   0.442  1.00  0.00    -0.274 OA
BRANCH  29  32
ATOM     32  CA  ALA A   1       2.525   1.925   0.089  1.00  0.00     0.178 C 
ATOM     33  CB  ALA A   1       1.134   1.586   0.606  1.00  0.00     0.043 C 
BRANCH  32  34
ATOM     34  C   ALA A   1       2.512   2.233  -1.401  1.00  0.00     0.163 C 
ATOM     35  O   ALA A   1       1.500   2.264  -2.087  1.00  0.00    -0.648 OA
BRANCH  34  36
ATOM     36  OXT ALA A   1       3.740   2.479  -1.925  1.00  0.00    -0.775 OA
ATOM     37  HXT ALA A   1       4.452   2.387  -1.250  1.00  0.00     0.167 HD
ENDBRANCH  34  36
ENDBRANCH  32  34
ENDBRANCH  29  32
ENDBRANCH  27  28
ENDBRANCH  26  27
ENDBRANCH  25  26
ENDBRANCH  24  25
ENDBRANCH  23  24
ENDBRANCH   1  23
TORSDOF 15
