REMARK  11 active torsions:
REMARK  status: ('A' for Active; 'I' for Inactive)
REMARK       I    between atoms: C_2  and  N_4 
REMARK    1  A    between atoms: N_4  and  C_5 
REMARK    2  A    between atoms: C_6  and  O_21 
REMARK    3  A    between atoms: C_8  and  C_17 
REMARK    4  A    between atoms: C_8  and  O_20 
REMARK    5  A    between atoms: C_10  and  C_11 
REMARK    6  A    between atoms: C_11  and  C_12 
REMARK    7  A    between atoms: C_11  and  O_16 
REMARK    8  A    between atoms: C_12  and  C_13 
REMARK    9  A    between atoms: C_12  and  O_15 
REMARK   10  A    between atoms: C_13  and  O_14 
REMARK   11  A    between atoms: C_17  and  O_19 
ROOT
HETATM    1  C   UNL     1       4.676  -0.837   0.685  1.00  0.00     0.145 C 
HETATM    2  C   UNL     1       5.394   0.129  -0.293  1.00  0.00     0.149 C 
HETATM    3  C   UNL     1       5.077  -0.250  -1.738  1.00  0.00     0.114 C 
HETATM    4  C   UNL     1       5.351  -1.739  -1.977  1.00  0.00     0.253 C 
HETATM    5  O   UNL     1       4.752  -2.588  -0.990  1.00  0.00    -0.336 OA
HETATM    6  C   UNL     1       5.172  -2.269   0.348  1.00  0.00     0.182 C 
ENDROOT
BRANCH   6   7
HETATM    7  C   UNL     1       4.660  -3.334   1.352  1.00  0.00     0.180 C 
BRANCH   7   8
HETATM    8  C   UNL     1       5.169  -4.762   1.039  1.00  0.00     0.173 C 
BRANCH   8   9
HETATM    9  C   UNL     1       4.663  -5.767   2.083  1.00  0.00     0.198 C 
BRANCH   9  10
HETATM   10  O   UNL     1       5.139  -7.074   1.755  1.00  0.00    -0.398 OA
HETATM   11  H   UNL     1       4.994  -7.165   0.790  1.00  0.00     0.209 HD
ENDBRANCH   9  10
ENDBRANCH   8   9
BRANCH   8  12
HETATM   12  O   UNL     1       4.761  -5.253  -0.246  1.00  0.00    -0.391 OA
HETATM   13  H   UNL     1       4.024  -4.706  -0.575  1.00  0.00     0.210 HD
ENDBRANCH   8  12
ENDBRANCH   7   8
BRANCH   7  14
HETATM   14  O   UNL     1       5.037  -2.948   2.678  1.00  0.00    -0.390 OA
HETATM   15  H   UNL     1       5.966  -3.200   2.833  1.00  0.00     0.210 HD
ENDBRANCH   7  14
ENDBRANCH   6   7
BRANCH   1  16
HETATM   16  N   UNL     1       3.218  -0.758   0.573  1.00  0.00    -0.352 N 
HETATM   17  C   UNL     1       2.481   0.365   0.859  1.00  0.00     0.214 C 
HETATM   18  C   UNL     1       0.996   0.147   0.732  1.00  0.00     0.117 C 
HETATM   19  O   UNL     1       2.980   1.432   1.195  1.00  0.00    -0.274 OA
HETATM   20  H   UNL     1       2.702  -1.610   0.391  1.00  0.00     0.163 HD
ENDBRANCH   1  16
BRANCH   2  21
HETATM   21  O   UNL     1       6.822   0.030  -0.137  1.00  0.00    -0.393 OA
HETATM   22  H   UNL     1       7.027   0.288   0.786  1.00  0.00     0.210 HD
ENDBRANCH   2  21
BRANCH   4  23
HETATM   23  C   UNL     1       4.787  -2.149  -3.367  1.00  0.00     0.205 C 
HETATM   24  O   UNL     1       3.778  -1.699  -3.892  1.00  0.00    -0.646 OA
BRANCH  23  25
HETATM   25  O   UNL     1       5.546  -3.123  -3.943  1.00  0.00    -0.772 OA
HETATM   26  H   UNL     1       6.312  -3.289  -3.342  1.00  0.00     0.167 HD
ENDBRANCH  23  25
ENDBRANCH   4  23
BRANCH   4  27
HETATM   27  O   UNL     1       6.760  -2.016  -2.026  1.00  0.00    -0.357 OA
HETATM   28  H   UNL     1       7.202  -1.246  -1.607  1.00  0.00     0.213 HD
ENDBRANCH   4  27
TORSDOF 11
