REMARK WARNING: 32 MAX_TORS EXCEEDED!!!
REMARK  42 active torsions:
REMARK  status: ('A' for Active; 'I' for Inactive)
REMARK    1  A    between atoms: C_2  and  C_3 
REMARK    2  A    between atoms: C_2  and  N_14 
REMARK       I    between atoms: C_3  and  N_5 
REMARK    3  A    between atoms: N_5  and  C_6 
REMARK    4  A    between atoms: C_6  and  C_7 
REMARK    5  A    between atoms: C_6  and  C_11 
REMARK    6  A    between atoms: C_7  and  C_8 
REMARK    7  A    between atoms: C_8  and  O_10 
REMARK       I    between atoms: C_11  and  N_13 
REMARK       I    between atoms: N_14  and  C_15 
REMARK    8  A    between atoms: C_15  and  C_17 
REMARK    9  A    between atoms: C_17  and  C_18 
REMARK   10  A    between atoms: C_17  and  N_26 
REMARK   11  A    between atoms: C_18  and  C_19 
REMARK   12  A    between atoms: C_19  and  C_20 
REMARK   13  A    between atoms: C_20  and  N_21 
REMARK       I    between atoms: N_21  and  C_23 
REMARK       I    between atoms: C_23  and  N_24 
REMARK       I    between atoms: N_26  and  C_27 
REMARK   14  A    between atoms: C_27  and  C_29 
REMARK   15  A    between atoms: C_29  and  C_30 
REMARK   16  A    between atoms: C_29  and  N_38 
REMARK   17  A    between atoms: C_30  and  C_31 
REMARK   18  A    between atoms: C_31  and  C_32 
REMARK   19  A    between atoms: C_32  and  N_33 
REMARK       I    between atoms: C_35  and  N_36 
REMARK       I    between atoms: C_35  and  N_37 
REMARK       I    between atoms: N_38  and  C_39 
REMARK   20  A    between atoms: C_39  and  C_41 
REMARK   21  A    between atoms: C_41  and  C_42 
REMARK   22  A    between atoms: C_41  and  N_47 
REMARK   23  A    between atoms: C_42  and  C_43 
REMARK   24  A    between atoms: C_43  and  C_44 
REMARK       I    between atoms: C_44  and  N_46 
REMARK       I    between atoms: N_47  and  C_48 
REMARK   25  A    between atoms: C_48  and  C_50 
REMARK   26  A    between atoms: C_50  and  C_51 
REMARK   27  A    between atoms: C_50  and  N_55 
REMARK   28  A    between atoms: C_51  and  C_52 
REMARK   29  A    between atoms: C_52  and  S_53 
REMARK       I    between atoms: N_55  and  C_56 
REMARK   30  A    between atoms: C_56  and  C_58 
REMARK   31  A    between atoms: C_58  and  C_59 
REMARK   32  A    between atoms: C_58  and  N_64 
REMARK   33  A    between atoms: C_59  and  C_60 
REMARK   34  A    between atoms: C_60  and  C_61 
REMARK   35  A    between atoms: C_61  and  O_63 
REMARK   36  A    between atoms: N_64  and  C_65 
REMARK   37  A    between atoms: C_65  and  C_67 
REMARK   38  A    between atoms: C_67  and  C_68 
REMARK   39  A    between atoms: C_67  and  N_73 
REMARK   40  A    between atoms: C_68  and  C_69 
REMARK   41  A    between atoms: C_69  and  C_70 
REMARK   42  A    between atoms: C_70  and  O_72 
REMARK       I    between atoms: N_73  and  C_74 
ROOT
HETATM    1  C   UNL     1       8.700   1.349   4.125  1.00  0.00     0.176 C 
ENDROOT
BRANCH   1   2
HETATM    2  C   UNL     1       9.475   0.182   3.432  1.00  0.00     0.241 C 
HETATM    3  N   UNL     1       9.938   0.520   2.171  1.00  0.00    -0.346 N 
HETATM    4  H   UNL     1       9.978   1.507   1.968  1.00  0.00     0.163 HD
HETATM    5  O   UNL     1       9.694  -0.908   3.959  1.00  0.00    -0.271 OA
BRANCH   3   6
HETATM    6  C   UNL     1      10.897  -0.334   1.471  1.00  0.00     0.176 C 
BRANCH   6   7
HETATM    7  C   UNL     1      10.203  -1.640   1.001  1.00  0.00     0.241 C 
HETATM    8  N   UNL     1      11.032  -2.557   0.383  1.00  0.00    -0.346 N 
HETATM    9  H   UNL     1      12.038  -2.469   0.486  1.00  0.00     0.163 HD
HETATM   10  O   UNL     1       9.008  -1.878   1.172  1.00  0.00    -0.271 OA
BRANCH   8  11
HETATM   11  C   UNL     1      10.514  -3.827  -0.135  1.00  0.00     0.172 C 
HETATM   12  C   UNL     1      11.226  -4.209  -1.428  1.00  0.00     0.042 C 
BRANCH  11  13
HETATM   13  C   UNL     1      10.638  -4.969   0.896  1.00  0.00     0.240 C 
HETATM   14  O   UNL     1      10.605  -6.157   0.582  1.00  0.00    -0.271 OA
HETATM   15  N   UNL     1      10.688  -4.563   2.212  1.00  0.00    -0.346 N 
HETATM   16  H   UNL     1      10.564  -3.577   2.407  1.00  0.00     0.163 HD
BRANCH  15  17
HETATM   17  C   UNL     1      10.890  -5.499   3.307  1.00  0.00     0.186 C 
BRANCH  17  18
HETATM   18  C   UNL     1      12.215  -6.263   3.217  1.00  0.00     0.144 C 
BRANCH  18  19
HETATM   19  C   UNL     1      13.394  -5.325   3.250  1.00  0.00     0.141 C 
HETATM   20  O   UNL     1      13.890  -4.817   2.254  1.00  0.00    -0.650 OA
BRANCH  19  21
HETATM   21  O   UNL     1      13.846  -5.055   4.495  1.00  0.00    -0.776 OA
HETATM   22  H   UNL     1      13.258  -5.394   5.211  1.00  0.00     0.167 HD
ENDBRANCH  19  21
ENDBRANCH  18  19
ENDBRANCH  17  18
BRANCH  17  23
HETATM   23  C   UNL     1      10.787  -4.811   4.683  1.00  0.00     0.238 C 
HETATM   24  O   UNL     1      11.443  -5.194   5.654  1.00  0.00    -0.271 OA
HETATM   25  N   UNL     1       9.842  -3.839   4.823  1.00  0.00    -0.368 N 
HETATM   26  H   UNL     1       9.409  -3.350   4.045  1.00  0.00     0.159 HD
HETATM   27  H   UNL     1       9.797  -3.337   5.701  1.00  0.00     0.159 HD
ENDBRANCH  17  23
ENDBRANCH  15  17
ENDBRANCH  11  13
ENDBRANCH   8  11
ENDBRANCH   6   7
BRANCH   6  28
HETATM   28  C   UNL     1      11.462   0.386   0.237  1.00  0.00     0.036 C 
BRANCH  28  29
HETATM   29  C   UNL     1      12.257   1.659   0.555  1.00  0.00     0.023 C 
BRANCH  29  30
HETATM   30  C   UNL     1      12.722   2.347  -0.731  1.00  0.00     0.138 C 
BRANCH  30  31
HETATM   31  N   UNL     1      13.652   1.461  -1.417  1.00  0.00    -0.227 N 
HETATM   32  C   UNL     1      14.124   1.824  -2.551  1.00  0.00     0.665 C 
HETATM   33  N   UNL     1      13.875   2.950  -3.252  1.00  0.00    -0.235 N 
HETATM   34  N   UNL     1      15.028   1.034  -3.162  1.00  0.00    -0.235 N 
HETATM   35  H   UNL     1      13.078   3.493  -2.952  1.00  0.00     0.174 HD
HETATM   36  H   UNL     1      13.953   2.889  -4.256  1.00  0.00     0.174 HD
HETATM   37  H   UNL     1      15.074   0.112  -2.740  1.00  0.00     0.174 HD
HETATM   38  H   UNL     1      15.062   1.026  -4.168  1.00  0.00     0.174 HD
ATOM     39  HN  UNL     1      13.922   0.569  -1.003  1.00  0.00     0.177 HD
ENDBRANCH  30  31
ENDBRANCH  29  30
ENDBRANCH  28  29
ENDBRANCH   6  28
ENDBRANCH   3   6
ENDBRANCH   1   2
BRANCH   1  40
HETATM   40  C   UNL     1       7.209   0.955   4.250  1.00  0.00     0.036 C 
BRANCH  40  41
HETATM   41  C   UNL     1       6.883  -0.243   5.171  1.00  0.00     0.022 C 
BRANCH  41  42
HETATM   42  C   UNL     1       7.332  -0.002   6.606  1.00  0.00     0.121 C 
BRANCH  42  43
HETATM   43  N   UNL     1       7.020  -1.117   7.495  1.00  0.00    -0.372 N 
HETATM   44  C   UNL     1       7.503  -0.989   8.680  1.00  0.00     0.121 C 
HETATM   45  N   UNL     1       8.179   0.045   9.236  1.00  0.00    -0.279 NA
HETATM   46  N   UNL     1       7.416  -1.998   9.570  1.00  0.00    -0.279 NA
HETATM   47  H   UNL     1       8.103   0.937   8.766  1.00  0.00     0.126 HD
HETATM   48  H   UNL     1       8.027   0.145  10.231  1.00  0.00     0.126 HD
HETATM   49  H   UNL     1       7.143  -2.849   9.087  1.00  0.00     0.126 HD
HETATM   50  H   UNL     1       8.290  -2.144  10.063  1.00  0.00     0.126 HD
ATOM     51  HN  UNL     1       6.469  -1.924   7.203  1.00  0.00     0.161 HD
ENDBRANCH  42  43
ENDBRANCH  41  42
ENDBRANCH  40  41
ENDBRANCH   1  40
BRANCH   1  52
HETATM   52  N   UNL     1       9.268   1.768   5.416  1.00  0.00    -0.346 N 
HETATM   53  C   UNL     1      10.621   1.702   5.680  1.00  0.00     0.241 C 
HETATM   54  O   UNL     1      11.421   1.360   4.810  1.00  0.00    -0.271 OA
HETATM   55  H   UNL     1       8.695   2.329   6.034  1.00  0.00     0.163 HD
BRANCH  53  56
HETATM   56  C   UNL     1      11.028   2.021   7.138  1.00  0.00     0.177 C 
BRANCH  56  57
HETATM   57  C   UNL     1      12.535   1.796   7.348  1.00  0.00     0.044 C 
BRANCH  57  58
HETATM   58  C   UNL     1      13.428   2.679   6.466  1.00  0.00     0.105 C 
BRANCH  58  59
HETATM   59  C   UNL     1      14.896   2.370   6.620  1.00  0.00     0.215 C 
HETATM   60  O   UNL     1      15.721   3.219   6.934  1.00  0.00    -0.274 OA
HETATM   61  N   UNL     1      15.266   1.091   6.332  1.00  0.00    -0.370 N 
HETATM   62  H   UNL     1      14.638   0.418   5.910  1.00  0.00     0.159 HD
HETATM   63  H   UNL     1      16.255   0.880   6.334  1.00  0.00     0.159 HD
ENDBRANCH  58  59
ENDBRANCH  57  58
ENDBRANCH  56  57
BRANCH  56  64
HETATM   64  N   UNL     1      10.624   3.382   7.484  1.00  0.00    -0.346 N 
HETATM   65  C   UNL     1      10.349   3.790   8.776  1.00  0.00     0.241 C 
HETATM   66  O   UNL     1      10.233   2.977   9.695  1.00  0.00    -0.271 OA
HETATM   67  H   UNL     1      10.852   4.075   6.784  1.00  0.00     0.163 HD
BRANCH  65  68
HETATM   68  C   UNL     1      10.036   5.311   8.990  1.00  0.00     0.177 C 
BRANCH  68  69
HETATM   69  C   UNL     1      10.061   6.102   7.678  1.00  0.00     0.045 C 
BRANCH  69  70
HETATM   70  C   UNL     1       9.724   7.580   7.791  1.00  0.00     0.076 C 
BRANCH  70  71
HETATM   71  S   UNL     1       9.758   8.268   6.102  1.00  0.00    -0.173 SA
HETATM   72  C   UNL     1       9.266   9.954   6.503  1.00  0.00     0.089 C 
ENDBRANCH  70  71
ENDBRANCH  69  70
ENDBRANCH  68  69
BRANCH  68  73
HETATM   73  N   UNL     1       8.711   5.359   9.608  1.00  0.00    -0.346 N 
HETATM   74  C   UNL     1       8.314   6.330  10.509  1.00  0.00     0.241 C 
HETATM   75  O   UNL     1       9.033   7.279  10.810  1.00  0.00    -0.271 OA
HETATM   76  H   UNL     1       8.112   4.554   9.487  1.00  0.00     0.163 HD
BRANCH  74  77
HETATM   77  C   UNL     1       6.887   6.146  11.067  1.00  0.00     0.174 C 
BRANCH  77  78
HETATM   78  C   UNL     1       5.874   6.093   9.909  1.00  0.00     0.045 C 
BRANCH  78  79
HETATM   79  C   UNL     1       4.426   5.936  10.365  1.00  0.00     0.112 C 
BRANCH  79  80
HETATM   80  C   UNL     1       3.471   5.828   9.209  1.00  0.00     0.139 C 
HETATM   81  O   UNL     1       3.776   5.917   8.031  1.00  0.00    -0.650 OA
BRANCH  80  82
HETATM   82  O   UNL     1       2.199   5.638   9.629  1.00  0.00    -0.776 OA
HETATM   83  H   UNL     1       2.142   5.536  10.600  1.00  0.00     0.167 HD
ENDBRANCH  80  82
ENDBRANCH  79  80
ENDBRANCH  78  79
ENDBRANCH  77  78
BRANCH  77  84
HETATM   84  N   UNL     1       6.833   4.904  11.862  1.00  0.00    -0.379 N 
HETATM   85  H   UNL     1       7.418   4.130  11.554  1.00  0.00     0.160 HD
BRANCH  84  86
HETATM   86  C   UNL     1       6.079   4.640  13.007  1.00  0.00     0.019 C 
HETATM   87  C   UNL     1       5.267   5.566  13.545  1.00  0.00     0.040 C 
BRANCH  86  88
HETATM   88  C   UNL     1       6.228   3.231  13.653  1.00  0.00     0.133 C 
BRANCH  88  89
HETATM   89  C   UNL     1       5.333   2.958  14.886  1.00  0.00     0.042 C 
BRANCH  89  90
HETATM   90  C   UNL     1       5.507   1.582  15.519  1.00  0.00     0.112 C 
BRANCH  90  91
HETATM   91  C   UNL     1       6.887   1.404  16.086  1.00  0.00     0.139 C 
HETATM   92  O   UNL     1       7.812   0.910  15.461  1.00  0.00    -0.650 OA
BRANCH  91  93
HETATM   93  O   UNL     1       7.025   1.883  17.339  1.00  0.00    -0.776 OA
HETATM   94  H   UNL     1       6.210   2.257  17.722  1.00  0.00     0.167 HD
ENDBRANCH  91  93
ENDBRANCH  90  91
ENDBRANCH  89  90
ENDBRANCH  88  89
BRANCH  88  95
HETATM   95  N   UNL     1       6.103   2.190  12.634  1.00  0.00    -0.351 N 
HETATM   96  C   UNL     1       4.933   1.904  11.971  1.00  0.00     0.214 C 
HETATM   97  O   UNL     1       3.896   2.549  12.092  1.00  0.00    -0.274 OA
HETATM   98  C   UNL     1       5.021   0.712  11.052  1.00  0.00     0.117 C 
HETATM   99  H   UNL     1       6.889   1.560  12.551  1.00  0.00     0.163 HD
ENDBRANCH  88  95
ENDBRANCH  86  88
ENDBRANCH  84  86
ENDBRANCH  77  84
ENDBRANCH  74  77
ENDBRANCH  68  73
ENDBRANCH  65  68
ENDBRANCH  56  64
ENDBRANCH  53  56
ENDBRANCH   1  52
TORSDOF 42
