REMARK  24 active torsions:
REMARK  status: ('A' for Active; 'I' for Inactive)
REMARK    1  A    between atoms: CB_2  and  CA_4 
REMARK    2  A    between atoms: CA_4  and  C_5 
REMARK    3  A    between atoms: CA_4  and  N_14 
REMARK       I    between atoms: C_5  and  N_7 
REMARK    4  A    between atoms: N_7  and  CA_8 
REMARK    5  A    between atoms: CA_8  and  CB_9 
REMARK    6  A    between atoms: CA_8  and  C_12 
REMARK       I    between atoms: C_12  and  N_25 
REMARK       I    between atoms: N_14  and  C_15 
REMARK    7  A    between atoms: C_15  and  CA_17 
REMARK    8  A    between atoms: CA_17  and  CB_18 
REMARK    9  A    between atoms: CA_17  and  N_20 
REMARK   10  A    between atoms: CB_18  and  OG_19 
REMARK       I    between atoms: N_20  and  C_61 
REMARK   11  A    between atoms: N_25  and  CA_26 
REMARK   12  A    between atoms: CA_26  and  CB_27 
REMARK   13  A    between atoms: CA_26  and  C_30 
REMARK       I    between atoms: C_30  and  N_33 
REMARK   14  A    between atoms: N_33  and  CA_34 
REMARK   15  A    between atoms: CA_34  and  CB_35 
REMARK   16  A    between atoms: CA_34  and  C_43 
REMARK   17  A    between atoms: CB_35  and  CG_36 
REMARK   18  A    between atoms: CG_36  and  CD_37 
REMARK   19  A    between atoms: CD_37  and  NE_38 
REMARK       I    between atoms: CZ_40  and  NH1_41 
REMARK       I    between atoms: CZ_40  and  NH2_42 
REMARK       I    between atoms: C_43  and  N_50 
REMARK   20  A    between atoms: N_50  and  CA_51 
REMARK   21  A    between atoms: CA_51  and  CB_52 
REMARK   22  A    between atoms: CA_51  and  C_55 
REMARK   23  A    between atoms: CB_52  and  OG1_54 
REMARK   24  A    between atoms: C_55  and  OXT_57 
ROOT
ATOM      1  CA  VAL A   2      -3.235   4.916   0.868  1.00  0.00     0.180 C 
ENDROOT
BRANCH   1   2
ATOM      2  N   VAL A   2      -1.744   4.945   0.914  1.00  0.00    -0.346 N 
ATOM      3  C   SER A   1      -0.945   5.413  -0.119  1.00  0.00     0.241 C 
ATOM      4  O   SER A   1      -1.422   6.012  -1.081  1.00  0.00    -0.271 OA
ATOM      5  H   VAL A   2      -1.290   4.323   1.575  1.00  0.00     0.163 HD
BRANCH   3   6
ATOM      6  CA  SER A   1       0.582   5.143   0.050  1.00  0.00     0.180 C 
BRANCH   6   7
ATOM      7  N   SER A   1       0.895   5.262   1.508  1.00  0.00    -0.346 N 
ATOM      8  C   SER A   1       2.175   5.350   2.004  1.00  0.00     0.241 C 
ATOM      9  O   SER A   1       3.165   5.335   1.278  1.00  0.00    -0.271 OA
ATOM     10  H   SER A   1       0.181   5.589   2.143  1.00  0.00     0.163 HD
BRANCH   8  11
ATOM     11  CA  SER A   1       2.304   5.410   3.572  1.00  0.00     0.180 C 
BRANCH  11  12
ATOM     12  CB  SER A   1       1.638   4.171   4.247  1.00  0.00     0.009 C 
ATOM     13  CG1 SER A   1       2.220   2.842   3.763  1.00  0.00     0.012 C 
ATOM     14  CG2 SER A   1       1.757   4.175   5.781  1.00  0.00     0.012 C 
ENDBRANCH  11  12
BRANCH  11  15
ATOM     15  N   SER A   1       1.911   6.721   4.153  1.00  0.00    -0.346 N 
ATOM     16  C   SER A   1       0.770   6.927   4.911  1.00  0.00     0.243 C 
ATOM     17  O   SER A   1      -0.170   6.128   4.841  1.00  0.00    -0.271 OA
ATOM     18  H   SER A   1       2.184   7.546   3.614  1.00  0.00     0.163 HD
BRANCH  16  19
ATOM     19  CA  SER A   1       0.604   8.328   5.609  1.00  0.00     0.200 C 
BRANCH  19  20
ATOM     20  CB  SER A   1      -0.855   8.519   6.147  1.00  0.00     0.199 C 
BRANCH  20  21
ATOM     21  OG  SER A   1      -1.264   9.874   5.915  1.00  0.00    -0.398 OA
ATOM     22  H   SER A   1      -1.289  10.319   6.778  1.00  0.00     0.209 HD
ENDBRANCH  20  21
ENDBRANCH  19  20
BRANCH  19  23
ATOM     23  N   SER A   1       1.608   8.776   6.542  1.00  0.00    -0.346 N 
HETATM   24  C   UNK A   0       1.525   8.326   7.832  1.00  0.00     0.214 C 
HETATM   25  O   UNK A   0       0.909   7.320   8.160  1.00  0.00    -0.274 OA
HETATM   26  C   UNK A   0       2.206   9.214   8.819  1.00  0.00     0.117 C 
ATOM     27  H   SER A   1       1.924   9.727   6.392  1.00  0.00     0.163 HD
ENDBRANCH  19  23
ENDBRANCH  16  19
ENDBRANCH  11  15
ENDBRANCH   8  11
ENDBRANCH   6   7
BRANCH   6  28
ATOM     28  CB  SER A   1       1.049   3.787  -0.563  1.00  0.00     0.009 C 
ATOM     29  CG1 SER A   1       0.396   2.574   0.096  1.00  0.00     0.012 C 
ATOM     30  CG2 SER A   1       0.842   3.693  -2.082  1.00  0.00     0.012 C 
ENDBRANCH   6  28
ENDBRANCH   3   6
ENDBRANCH   1   2
BRANCH   1  31
ATOM     31  CB  VAL A   2      -3.816   3.790   1.757  1.00  0.00     0.009 C 
ATOM     32  CG1 VAL A   2      -3.463   2.406   1.214  1.00  0.00     0.012 C 
ATOM     33  CG2 VAL A   2      -3.393   3.906   3.228  1.00  0.00     0.012 C 
ENDBRANCH   1  31
BRANCH   1  34
ATOM     34  C   VAL A   2      -3.901   6.268   1.274  1.00  0.00     0.241 C 
ATOM     35  O   VAL A   2      -5.100   6.425   1.457  1.00  0.00    -0.271 OA
ATOM     36  N   ARG A   3      -2.996   7.285   1.357  1.00  0.00    -0.346 N 
ATOM     37  H   ARG A   3      -2.058   6.918   1.380  1.00  0.00     0.163 HD
BRANCH  36  38
ATOM     38  CA  ARG A   3      -3.237   8.605   1.948  1.00  0.00     0.176 C 
BRANCH  38  39
ATOM     39  CB  ARG A   3      -2.407   8.720   3.198  1.00  0.00     0.036 C 
BRANCH  39  40
ATOM     40  CG  ARG A   3      -0.921   8.485   2.892  1.00  0.00     0.022 C 
BRANCH  40  41
ATOM     41  CD  ARG A   3      -0.006   9.656   2.559  1.00  0.00     0.121 C 
BRANCH  41  42
ATOM     42  NE  ARG A   3       1.409   9.200   2.651  1.00  0.00    -0.372 N 
ATOM     43  CZ  ARG A   3       2.303  10.114   2.652  1.00  0.00     0.121 C 
ATOM     44  NH1 ARG A   3       2.164  11.449   2.578  1.00  0.00    -0.279 NA
ATOM     45  NH2 ARG A   3       3.614   9.788   2.721  1.00  0.00    -0.279 NA
ATOM     46 HH11 ARG A   3       1.233  11.770   2.322  1.00  0.00     0.126 HD
ATOM     47 HH12 ARG A   3       2.859  11.892   1.978  1.00  0.00     0.126 HD
ATOM     48 HH21 ARG A   3       3.811   8.827   2.964  1.00  0.00     0.126 HD
ATOM     49 HH22 ARG A   3       4.173  10.444   3.252  1.00  0.00     0.126 HD
ATOM     50  HE  ARG A   3       1.652   8.211   2.710  1.00  0.00     0.161 HD
ENDBRANCH  41  42
ENDBRANCH  40  41
ENDBRANCH  39  40
ENDBRANCH  38  39
BRANCH  38  51
ATOM     51  C   ARG A   3      -2.698   9.717   1.066  1.00  0.00     0.241 C 
ATOM     52  O   ARG A   3      -2.800  10.910   1.327  1.00  0.00    -0.271 OA
ATOM     53  N   THR A   4      -1.925   9.236   0.023  1.00  0.00    -0.343 N 
ATOM     54  H   THR A   4      -1.810   8.232  -0.064  1.00  0.00     0.163 HD
BRANCH  53  55
ATOM     55  CA  THR A   4      -1.185  10.144  -0.841  1.00  0.00     0.210 C 
BRANCH  55  56
ATOM     56  CB  THR A   4       0.015   9.489  -1.558  1.00  0.00     0.147 C 
ATOM     57  CG2 THR A   4       1.171   9.087  -0.644  1.00  0.00     0.042 C 
BRANCH  56  58
ATOM     58  OG1 THR A   4      -0.363   8.334  -2.309  1.00  0.00    -0.393 OA
ATOM     59  HG1 THR A   4      -1.017   7.788  -1.837  1.00  0.00     0.210 HD
ENDBRANCH  56  58
ENDBRANCH  55  56
BRANCH  55  60
ATOM     60  C   THR A   4      -2.185  10.680  -1.866  1.00  0.00     0.166 C 
ATOM     61  O   THR A   4      -1.913  11.532  -2.695  1.00  0.00    -0.648 OA
BRANCH  60  62
ATOM     62  OXT THR A   4      -3.422  10.125  -1.797  1.00  0.00    -0.775 OA
ATOM     63  HXT THR A   4      -3.474   9.470  -1.074  1.00  0.00     0.167 HD
ENDBRANCH  60  62
ENDBRANCH  55  60
ENDBRANCH  53  55
ENDBRANCH  38  51
ENDBRANCH  36  38
ENDBRANCH   1  34
TORSDOF 24
