REMARK  6 active torsions:
REMARK  status: ('A' for Active; 'I' for Inactive)
REMARK    1  A    between atoms: C6_4  and  N6_22 
REMARK    2  A    between atoms: N9_9  and  C1*_13 
REMARK    3  A    between atoms: C2*_14  and  O2*_21 
REMARK    4  A    between atoms: C3*_15  and  O3*_20 
REMARK    5  A    between atoms: C4*_16  and  C5*_18 
REMARK    6  A    between atoms: C5*_18  and  O5*_19 
ROOT
ATOM      1  C2    A A   1      -1.953   0.859  -0.649  1.00  0.00     0.183 A 
ATOM      2  N1    A A   1      -2.123  -0.479  -0.542  1.00  0.00    -0.337 N 
ATOM      3  H1    A A   1      -3.046  -0.902  -0.643  1.00  0.00     0.168 HD
ATOM      4  C6    A A   1      -1.032  -1.238  -0.297  1.00  0.00     0.131 A 
ATOM      5  C5    A A   1       0.219  -0.606  -0.231  1.00  0.00     0.122 A 
ATOM      6  C4    A A   1       0.239   0.774  -0.332  1.00  0.00     0.142 A 
ATOM      7  N3    A A   1      -0.820   1.584  -0.531  1.00  0.00    -0.336 N 
ATOM      8  H3    A A   1      -0.772   2.601  -0.585  1.00  0.00     0.168 HD
ATOM      9  N9    A A   1       1.548   1.113  -0.134  1.00  0.00    -0.297 N 
ATOM     10  C8    A A   1       2.258  -0.054   0.012  1.00  0.00     0.188 A 
ATOM     11  N7    A A   1       1.489  -1.113  -0.049  1.00  0.00    -0.346 N 
ATOM     12  H7    A A   1       1.767  -2.092   0.022  1.00  0.00     0.167 HD
ENDROOT
BRANCH   9  13
ATOM     13  C1*   A A   1       2.121   2.410   0.144  1.00  0.00     0.262 C 
ATOM     14  C2*   A A   1       1.616   3.058   1.428  1.00  0.00     0.198 C 
ATOM     15  C3*   A A   1       1.668   4.554   1.124  1.00  0.00     0.182 C 
ATOM     16  C4*   A A   1       2.162   4.641  -0.333  1.00  0.00     0.179 C 
ATOM     17  O4*   A A   1       1.907   3.350  -0.921  1.00  0.00    -0.353 OA
BRANCH  14  18
ATOM     18  O2*   A A   1       2.473   2.709   2.521  1.00  0.00    -0.388 OA
ATOM     19  H2*   A A   1       2.770   3.566   2.897  1.00  0.00     0.210 HD
ENDBRANCH  14  18
BRANCH  15  20
ATOM     20  O3*   A A   1       2.462   5.207   2.117  1.00  0.00    -0.390 OA
ATOM     21  H3*   A A   1       3.066   5.841   1.671  1.00  0.00     0.210 HD
ENDBRANCH  15  20
BRANCH  16  22
ATOM     22  C5*   A A   1       3.648   5.003  -0.466  1.00  0.00     0.198 C 
BRANCH  22  23
ATOM     23  O5*   A A   1       3.912   6.259   0.157  1.00  0.00    -0.398 OA
ATOM     24  H5*   A A   1       3.654   6.957  -0.474  1.00  0.00     0.209 HD
ENDBRANCH  22  23
ENDBRANCH  16  22
ENDBRANCH   9  13
BRANCH   4  25
ATOM     25  N6    A A   1      -1.195  -2.603  -0.109  1.00  0.00    -0.383 N 
ATOM     26  H61   A A   1      -2.045  -2.970  -0.509  1.00  0.00     0.157 HD
ATOM     27  H62   A A   1      -0.339  -3.137  -0.210  1.00  0.00     0.157 HD
ENDBRANCH   4  25
TORSDOF 6
