REMARK  7 active torsions:
REMARK  status: ('A' for Active; 'I' for Inactive)
REMARK    1  A    between atoms: C_1  and  C_2 
REMARK    2  A    between atoms: C_1  and  C_7 
REMARK    3  A    between atoms: C_2  and  C_3 
REMARK    4  A    between atoms: C_3  and  C_4 
REMARK    5  A    between atoms: C_4  and  O_6 
REMARK    6  A    between atoms: C_7  and  C_8 
REMARK    7  A    between atoms: C_8  and  O_10 
ROOT
HETATM    1  C   UNL     1       1.002  -0.036   0.101  1.00  0.00     0.011 C 
ENDROOT
BRANCH   1   2
HETATM    2  C   UNL     1       0.504  -0.726  -1.173  1.00  0.00     0.011 C 
BRANCH   2   3
HETATM    3  C   UNL     1       0.957  -2.183  -1.280  1.00  0.00     0.110 C 
BRANCH   3   4
HETATM    4  C   UNL     1       0.452  -2.855  -2.532  1.00  0.00     0.139 C 
HETATM    5  O   UNL     1      -0.241  -2.330  -3.387  1.00  0.00    -0.650 OA
BRANCH   4   6
HETATM    6  O   UNL     1       0.881  -4.136  -2.630  1.00  0.00    -0.776 OA
HETATM    7  H   UNL     1       1.427  -4.430  -1.877  1.00  0.00     0.167 HD
ENDBRANCH   4   6
ENDBRANCH   3   4
ENDBRANCH   2   3
ENDBRANCH   1   2
BRANCH   1   8
HETATM    8  C   UNL     1       2.527   0.036   0.183  1.00  0.00     0.110 C 
BRANCH   8   9
HETATM    9  C   UNL     1       3.005   0.727   1.438  1.00  0.00     0.139 C 
HETATM   10  O   UNL     1       2.289   1.185   2.310  1.00  0.00    -0.650 OA
BRANCH   9  11
HETATM   11  O   UNL     1       4.357   0.767   1.511  1.00  0.00    -0.776 OA
HETATM   12  H   UNL     1       4.808   0.365   0.744  1.00  0.00     0.167 HD
ENDBRANCH   9  11
ENDBRANCH   8   9
ENDBRANCH   1   8
TORSDOF 7
