REMARK  8 active torsions:
REMARK  status: ('A' for Active; 'I' for Inactive)
REMARK    1  A    between atoms: C_3  and  O_23 
REMARK    2  A    between atoms: C_5  and  O_10 
REMARK    3  A    between atoms: O_10  and  C_11 
REMARK    4  A    between atoms: C_12  and  O_22 
REMARK    5  A    between atoms: C_13  and  O_20 
REMARK    6  A    between atoms: C_14  and  O_19 
REMARK    7  A    between atoms: C_15  and  C_17 
REMARK    8  A    between atoms: C_17  and  O_18 
ROOT
HETATM    1  C   UNL     1       7.046  -0.279   1.925  1.00  0.00     0.292 C 
HETATM    2  C   UNL     1       7.140   1.259   2.021  1.00  0.00     0.204 C 
HETATM    3  C   UNL     1       8.086   1.738   0.901  1.00  0.00     0.185 C 
HETATM    4  C   UNL     1       9.469   1.076   1.099  1.00  0.00     0.180 C 
HETATM    5  C   UNL     1       9.295  -0.459   1.083  1.00  0.00     0.179 C 
HETATM    6  O   UNL     1       8.351  -0.874   2.090  1.00  0.00    -0.348 OA
ENDROOT
BRANCH   1   7
HETATM    7  O   UNL     1       6.458  -0.716   0.686  1.00  0.00    -0.348 OA
BRANCH   7   8
HETATM    8  C   UNL     1       5.093  -0.314   0.497  1.00  0.00     0.187 C 
HETATM    9  C   UNL     1       4.494  -0.818  -0.833  1.00  0.00     0.184 C 
HETATM   10  C   UNL     1       3.016  -0.347  -1.023  1.00  0.00     0.178 C 
HETATM   11  O   UNL     1       4.423  -2.251  -0.631  1.00  0.00    -0.378 OA
HETATM   12  C   UNL     1       2.544   0.388   0.247  1.00  0.00     0.149 C 
HETATM   13  C   UNL     1       1.070   0.755   0.249  1.00  0.00     0.042 C 
HETATM   14  O   UNL     1       2.827  -0.409   1.413  1.00  0.00    -0.373 OA
HETATM   15  C   UNL     1       4.125  -1.039   1.417  1.00  0.00     0.177 C 
HETATM   16  C   UNL     1       4.089  -2.433   0.766  1.00  0.00     0.203 C 
BRANCH  10  17
HETATM   17  O   UNL     1       2.862   0.437  -2.218  1.00  0.00    -0.390 OA
HETATM   18  H   UNL     1       3.075   1.350  -2.033  1.00  0.00     0.210 HD
ENDBRANCH  10  17
ENDBRANCH   7   8
ENDBRANCH   1   7
BRANCH   2  19
HETATM   19  O   UNL     1       7.567   1.664   3.330  1.00  0.00    -0.388 OA
HETATM   20  H   UNL     1       8.487   1.995   3.234  1.00  0.00     0.210 HD
ENDBRANCH   2  19
BRANCH   3  21
HETATM   21  O   UNL     1       8.225   3.166   0.865  1.00  0.00    -0.385 OA
HETATM   22  C   UNL     1       7.014   3.849   0.555  1.00  0.00     0.202 C 
ENDBRANCH   3  21
BRANCH   5  23
HETATM   23  C   UNL     1      10.618  -1.197   1.344  1.00  0.00     0.198 C 
BRANCH  23  24
HETATM   24  O   UNL     1      10.413  -2.609   1.339  1.00  0.00    -0.398 OA
HETATM   25  H   UNL     1       9.713  -2.780   1.998  1.00  0.00     0.209 HD
ENDBRANCH  23  24
ENDBRANCH   5  23
BRANCH   4  26
HETATM   26  O   UNL     1      10.029   1.551   2.341  1.00  0.00    -0.390 OA
HETATM   27  H   UNL     1      10.260   0.795   2.909  1.00  0.00     0.210 HD
ENDBRANCH   4  26
TORSDOF 8
