REMARK  1 active torsions:
REMARK  status: ('A' for Active; 'I' for Inactive)
REMARK    1  A    between atoms: C_2  and  O_3 
ROOT
HETATM    1  C   UNL     1       0.975   0.055  -0.079  1.00  0.00     0.033 C 
HETATM    2  C   UNL     1       2.490   0.050  -0.074  1.00  0.00     0.159 C 
ENDROOT
BRANCH   2   3
HETATM    3  O   UNL     1       2.971  -1.244   0.256  1.00  0.00    -0.401 OA
HETATM    4  H   UNL     1       2.632  -1.468   1.140  1.00  0.00     0.209 HD
ENDBRANCH   2   3
TORSDOF 1
