REMARK  5 active torsions:
REMARK  status: ('A' for Active; 'I' for Inactive)
REMARK    1  A    between atoms: C_2  and  C_3 
REMARK    2  A    between atoms: C_2  and  C_5 
REMARK    3  A    between atoms: C_2  and  N_7 
REMARK    4  A    between atoms: C_3  and  O_4 
REMARK    5  A    between atoms: C_5  and  O_6 
ROOT
HETATM    1  C   UNL     1       0.923  -0.079   0.055  1.00  0.00     0.053 C 
HETATM    2  C   UNL     1       2.457  -0.044   0.085  1.00  0.00     0.193 C 
ENDROOT
BRANCH   2   3
HETATM    3  C   UNL     1       2.974   1.384  -0.226  1.00  0.00     0.207 C 
BRANCH   3   4
HETATM    4  O   UNL     1       2.565   1.801  -1.531  1.00  0.00    -0.398 OA
HETATM    5  H   UNL     1       3.109   1.281  -2.149  1.00  0.00     0.209 HD
ENDBRANCH   3   4
ENDBRANCH   2   3
BRANCH   2   6
HETATM    6  C   UNL     1       2.957  -0.492   1.479  1.00  0.00     0.207 C 
BRANCH   6   7
HETATM    7  O   UNL     1       4.381  -0.580   1.500  1.00  0.00    -0.398 OA
HETATM    8  H   UNL     1       4.624  -0.991   0.645  1.00  0.00     0.209 HD
ENDBRANCH   6   7
ENDBRANCH   2   6
BRANCH   2   9
HETATM    9  N   UNL     1       2.979  -0.985  -0.947  1.00  0.00     0.091 N 
HETATM   10  H   UNL     1       2.519  -0.763  -1.835  1.00  0.00     0.314 HD
HETATM   11  H   UNL     1       2.660  -1.927  -0.724  1.00  0.00     0.314 HD
ENDBRANCH   2   9
TORSDOF 5
