REMARK  12 active torsions:
REMARK  status: ('A' for Active; 'I' for Inactive)
REMARK    1  A    between atoms: C_2  and  C_3 
REMARK    2  A    between atoms: C_3  and  C_4 
REMARK    3  A    between atoms: C_4  and  C_5 
REMARK    4  A    between atoms: C_5  and  C_6 
REMARK    5  A    between atoms: C_6  and  C_7 
REMARK    6  A    between atoms: C_7  and  C_8 
REMARK    7  A    between atoms: C_8  and  C_9 
REMARK    8  A    between atoms: C_9  and  C_10 
REMARK    9  A    between atoms: C_10  and  C_11 
REMARK   10  A    between atoms: C_11  and  C_12 
REMARK   11  A    between atoms: C_12  and  O_13 
REMARK   12  A    between atoms: O_13  and  S_14 
ROOT
HETATM    1  H   UNL     1       1.072  -1.155   0.728  1.00  0.00     0.271 HD
HETATM    2  H   UNL     1       1.798  -1.420  -0.765  1.00  0.00     0.271 HD
HETATM    3  H   UNL     1       1.895  -2.583   0.435  1.00  0.00     0.271 HD
HETATM    4  H   UNL     1       0.429  -2.280  -0.334  1.00  0.00     0.271 HD
HETATM    5  N   UNL     2       1.297  -1.858   0.014  1.00  0.00    -0.084 N 
ENDROOT
TORSDOF 12
