REMARK  0 active torsions:
REMARK  status: ('A' for Active; 'I' for Inactive)
ROOT
HETATM    1  C   UNL     1       0.483   1.120   1.320  1.00  0.00     0.129 C 
HETATM    2  C   UNL     1       1.721   0.556   0.703  1.00  0.00     0.168 C 
HETATM    3  O   UNL     1       2.125  -0.582   1.102  1.00  0.00    -0.648 OA
HETATM    4  O   UNL     1       2.153   1.085  -0.368  1.00  0.00    -0.648 OA
ENDROOT
TORSDOF 0
