REMARK  4 active torsions:
REMARK  status: ('A' for Active; 'I' for Inactive)
REMARK    1  A    between atoms: C_2  and  O_9 
REMARK    2  A    between atoms: C_3  and  O_8 
REMARK    3  A    between atoms: C_4  and  C_6 
REMARK    4  A    between atoms: C_6  and  O_7 
ROOT
HETATM    1  C   UNL     1      -0.873  -0.938  -0.083  1.00  0.00     0.202 C 
HETATM    2  C   UNL     1       0.633  -1.164  -0.061  1.00  0.00     0.173 C 
HETATM    3  C   UNL     1       1.241   0.237  -0.051  1.00  0.00     0.180 C 
HETATM    4  C   UNL     1       0.048   1.170  -0.281  1.00  0.00     0.176 C 
HETATM    5  O   UNL     1      -1.112   0.455   0.167  1.00  0.00    -0.378 OA
ENDROOT
BRANCH   4   6
HETATM    6  C   UNL     1      -0.133   1.631  -1.728  1.00  0.00     0.198 C 
BRANCH   6   7
HETATM    7  O   UNL     1       0.996   2.407  -2.134  1.00  0.00    -0.398 OA
HETATM    8  H   UNL     1       0.820   3.328  -1.864  1.00  0.00     0.209 HD
ENDBRANCH   6   7
ENDBRANCH   4   6
BRANCH   3   9
HETATM    9  O   UNL     1       2.321   0.322  -0.981  1.00  0.00    -0.390 OA
HETATM   10  H   UNL     1       2.209   1.149  -1.499  1.00  0.00     0.210 HD
ENDBRANCH   3   9
BRANCH   2  11
HETATM   11  O   UNL     1       1.049  -1.907  -1.205  1.00  0.00    -0.391 OA
HETATM   12  H   UNL     1       1.901  -1.499  -1.473  1.00  0.00     0.210 HD
ENDBRANCH   2  11
TORSDOF 4
