REMARK  8 active torsions:
REMARK  status: ('A' for Active; 'I' for Inactive)
REMARK    1  A    between atoms: C_3  and  O_8 
REMARK    2  A    between atoms: C_6  and  O_7 
REMARK    3  A    between atoms: O_8  and  C_9 
REMARK    4  A    between atoms: C_10  and  O_19 
REMARK    5  A    between atoms: C_11  and  O_18 
REMARK    6  A    between atoms: C_12  and  O_17 
REMARK    7  A    between atoms: C_13  and  C_15 
REMARK    8  A    between atoms: C_15  and  O_16 
ROOT
HETATM    1  C   UNL     1      -3.651  -1.426  -0.322  1.00  0.00     0.298 C 
HETATM    2  C   UNL     1      -3.886  -2.281   0.939  1.00  0.00     0.205 C 
HETATM    3  C   UNL     1      -3.854  -3.754   0.466  1.00  0.00     0.183 C 
HETATM    4  C   UNL     1      -4.863  -4.034  -0.680  1.00  0.00     0.180 C 
HETATM    5  C   UNL     1      -4.731  -2.957  -1.772  1.00  0.00     0.179 C 
HETATM    6  O   UNL     1      -4.788  -1.646  -1.175  1.00  0.00    -0.348 OA
ENDROOT
BRANCH   1   7
HETATM    7  O   UNL     1      -3.497  -0.033  -0.051  1.00  0.00    -0.318 OA
BRANCH   7   8
HETATM    8  C   UNL     1      -3.203   0.731  -1.168  1.00  0.00     0.072 A 
HETATM    9  C   UNL     1      -3.302   2.109  -1.006  1.00  0.00     0.039 A 
HETATM   10  C   UNL     1      -3.113   2.962  -2.100  1.00  0.00     0.039 A 
HETATM   11  C   UNL     1      -2.814   2.433  -3.351  1.00  0.00     0.065 A 
HETATM   12  C   UNL     1      -2.661   1.068  -3.520  1.00  0.00     0.039 A 
HETATM   13  C   UNL     1      -2.851   0.223  -2.423  1.00  0.00     0.039 A 
BRANCH  11  14
HETATM   14  O   UNL     1      -2.685   3.288  -4.405  1.00  0.00    -0.361 OA
HETATM   15  H   UNL     1      -2.584   2.764  -5.217  1.00  0.00     0.217 HD
ENDBRANCH  11  14
ENDBRANCH   7   8
ENDBRANCH   1   7
BRANCH   2  16
HETATM   16  O   UNL     1      -5.169  -2.020   1.543  1.00  0.00    -0.388 OA
HETATM   17  H   UNL     1      -5.607  -1.340   0.998  1.00  0.00     0.210 HD
ENDBRANCH   2  16
BRANCH   3  18
HETATM   18  O   UNL     1      -4.074  -4.641   1.555  1.00  0.00    -0.390 OA
HETATM   19  H   UNL     1      -4.991  -4.465   1.845  1.00  0.00     0.210 HD
ENDBRANCH   3  18
BRANCH   5  20
HETATM   20  C   UNL     1      -5.837  -3.006  -2.827  1.00  0.00     0.198 C 
BRANCH  20  21
HETATM   21  O   UNL     1      -5.637  -1.936  -3.755  1.00  0.00    -0.398 OA
HETATM   22  H   UNL     1      -5.660  -1.112  -3.230  1.00  0.00     0.209 HD
ENDBRANCH  20  21
ENDBRANCH   5  20
BRANCH   4  23
HETATM   23  O   UNL     1      -6.199  -4.081  -0.167  1.00  0.00    -0.390 OA
HETATM   24  H   UNL     1      -6.490  -3.168   0.018  1.00  0.00     0.210 HD
ENDBRANCH   4  23
TORSDOF 8
