REMARK  6 active torsions:
REMARK  status: ('A' for Active; 'I' for Inactive)
REMARK    1  A    between atoms: C_1  and  C_2 
REMARK    2  A    between atoms: C_1  and  O_12 
REMARK    3  A    between atoms: C_2  and  C_3 
REMARK    4  A    between atoms: C_2  and  O_11 
REMARK    5  A    between atoms: C_4  and  O_10 
REMARK    6  A    between atoms: C_5  and  O_9 
ROOT
HETATM    1  C   UNL     1       0.909   1.000  -2.217  1.00  0.00     0.222 A 
HETATM    2  C   UNL     1       0.158   1.827  -3.192  1.00  0.00     0.114 A 
HETATM    3  C   UNL     1      -0.444   1.074  -4.106  1.00  0.00     0.173 A 
HETATM    4  C   UNL     1      -0.126  -0.327  -3.786  1.00  0.00     0.320 A 
HETATM    5  O   UNL     1      -0.516  -1.321  -4.370  1.00  0.00    -0.257 OA
HETATM    6  O   UNL     1       0.696  -0.345  -2.691  1.00  0.00    -0.301 OA
ENDROOT
BRANCH   1   7
HETATM    7  C   UNL     1       0.416   1.102  -0.761  1.00  0.00     0.177 C 
BRANCH   7   8
HETATM    8  C   UNL     1       1.251   0.222   0.177  1.00  0.00     0.198 C 
BRANCH   8   9
HETATM    9  O   UNL     1       2.620   0.603   0.134  1.00  0.00    -0.398 OA
HETATM   10  H   UNL     1       3.099  -0.076  -0.376  1.00  0.00     0.209 HD
ENDBRANCH   8   9
ENDBRANCH   7   8
BRANCH   7  11
HETATM   11  O   UNL     1      -0.963   0.729  -0.650  1.00  0.00    -0.390 OA
HETATM   12  H   UNL     1      -1.053  -0.189  -0.968  1.00  0.00     0.210 HD
ENDBRANCH   7  11
ENDBRANCH   1   7
BRANCH   2  13
HETATM   13  O   UNL     1       0.126   3.199  -3.180  1.00  0.00    -0.359 OA
HETATM   14  H   UNL     1       0.587   3.530  -2.387  1.00  0.00     0.217 HD
ENDBRANCH   2  13
BRANCH   3  15
HETATM   15  O   UNL     1      -1.202   1.509  -5.152  1.00  0.00    -0.353 OA
HETATM   16  H   UNL     1      -1.227   2.481  -5.075  1.00  0.00     0.218 HD
ENDBRANCH   3  15
TORSDOF 6
