REMARK WARNING: 32 MAX_TORS EXCEEDED!!!
REMARK  62 active torsions:
REMARK  status: ('A' for Active; 'I' for Inactive)
REMARK    1  A    between atoms: C_2  and  C_3 
REMARK    2  A    between atoms: C_3  and  C_4 
REMARK    3  A    between atoms: C_4  and  C_5 
REMARK    4  A    between atoms: C_5  and  C_6 
REMARK    5  A    between atoms: C_6  and  C_7 
REMARK    6  A    between atoms: C_7  and  C_8 
REMARK    7  A    between atoms: C_8  and  C_9 
REMARK    8  A    between atoms: C_9  and  C_10 
REMARK    9  A    between atoms: C_9  and  C_16 
REMARK   10  A    between atoms: C_10  and  C_11 
REMARK   11  A    between atoms: C_11  and  C_12 
REMARK   12  A    between atoms: C_12  and  C_13 
REMARK   13  A    between atoms: C_13  and  C_14 
REMARK   14  A    between atoms: C_16  and  O_18 
REMARK   15  A    between atoms: O_18  and  C_19 
REMARK   16  A    between atoms: C_19  and  C_20 
REMARK   17  A    between atoms: C_20  and  C_21 
REMARK   18  A    between atoms: C_20  and  O_63 
REMARK   19  A    between atoms: C_22  and  O_45 
REMARK   20  A    between atoms: C_23  and  O_27 
REMARK   21  A    between atoms: O_27  and  C_28 
REMARK   22  A    between atoms: C_28  and  C_30 
REMARK   23  A    between atoms: C_30  and  C_31 
REMARK   24  A    between atoms: C_30  and  C_37 
REMARK   25  A    between atoms: C_31  and  C_32 
REMARK   26  A    between atoms: C_32  and  C_33 
REMARK   27  A    between atoms: C_33  and  C_34 
REMARK   28  A    between atoms: C_34  and  C_35 
REMARK   29  A    between atoms: C_37  and  C_38 
REMARK   30  A    between atoms: C_38  and  C_39 
REMARK   31  A    between atoms: C_39  and  C_40 
REMARK   32  A    between atoms: C_40  and  C_41 
REMARK   33  A    between atoms: C_41  and  C_42 
REMARK   34  A    between atoms: C_42  and  C_43 
REMARK   35  A    between atoms: O_45  and  C_46 
REMARK   36  A    between atoms: C_46  and  C_48 
REMARK   37  A    between atoms: C_48  and  C_49 
REMARK   38  A    between atoms: C_48  and  C_55 
REMARK   39  A    between atoms: C_49  and  C_50 
REMARK   40  A    between atoms: C_50  and  C_51 
REMARK   41  A    between atoms: C_51  and  C_52 
REMARK   42  A    between atoms: C_52  and  C_53 
REMARK   43  A    between atoms: C_55  and  C_56 
REMARK   44  A    between atoms: C_56  and  C_57 
REMARK   45  A    between atoms: C_57  and  C_58 
REMARK   46  A    between atoms: C_58  and  C_59 
REMARK   47  A    between atoms: C_59  and  C_60 
REMARK   48  A    between atoms: C_60  and  C_61 
REMARK   49  A    between atoms: O_63  and  C_64 
REMARK   50  A    between atoms: C_64  and  C_66 
REMARK   51  A    between atoms: C_66  and  C_67 
REMARK   52  A    between atoms: C_66  and  C_73 
REMARK   53  A    between atoms: C_67  and  C_68 
REMARK   54  A    between atoms: C_68  and  C_69 
REMARK   55  A    between atoms: C_69  and  C_70 
REMARK   56  A    between atoms: C_70  and  C_71 
REMARK   57  A    between atoms: C_73  and  C_74 
REMARK   58  A    between atoms: C_74  and  C_75 
REMARK   59  A    between atoms: C_75  and  C_76 
REMARK   60  A    between atoms: C_76  and  C_77 
REMARK   61  A    between atoms: C_77  and  C_78 
REMARK   62  A    between atoms: C_78  and  C_79 
ROOT
HETATM    1  C   UNL     1      12.648   8.644  -2.759  1.00  0.00     0.224 A 
HETATM    2  C   UNL     1      13.636   9.406  -1.958  1.00  0.00     0.129 A 
HETATM    3  C   UNL     1      13.612  10.708  -2.243  1.00  0.00     0.186 A 
HETATM    4  C   UNL     1      12.631  10.876  -3.329  1.00  0.00     0.321 A 
HETATM    5  O   UNL     1      12.442  11.889  -3.978  1.00  0.00    -0.257 OA
HETATM    6  O   UNL     1      12.031   9.669  -3.567  1.00  0.00    -0.301 OA
ENDROOT
BRANCH   1   7
HETATM    7  C   UNL     1      13.194   7.529  -3.695  1.00  0.00     0.192 C 
BRANCH   7   8
HETATM    8  C   UNL     1      13.866   6.383  -2.913  1.00  0.00     0.214 C 
BRANCH   8   9
HETATM    9  O   UNL     1      12.983   5.807  -1.932  1.00  0.00    -0.319 OA
BRANCH   9  10
HETATM   10  C   UNL     1      12.178   4.825  -2.427  1.00  0.00     0.263 C 
HETATM   11  O   UNL     1      12.175   4.465  -3.596  1.00  0.00    -0.265 OA
BRANCH  10  12
HETATM   12  C   UNL     1      11.275   4.231  -1.357  1.00  0.00     0.085 C 
BRANCH  12  13
HETATM   13  C   UNL     1       9.944   3.817  -2.026  1.00  0.00     0.014 C 
BRANCH  13  14
HETATM   14  C   UNL     1       8.869   3.218  -1.120  1.00  0.00     0.001 C 
BRANCH  14  15
HETATM   15  C   UNL     1       8.368   4.158  -0.024  1.00  0.00     0.000 C 
BRANCH  15  16
HETATM   16  C   UNL     1       7.283   3.463   0.802  1.00  0.00     0.000 C 
BRANCH  16  17
HETATM   17  C   UNL     1       6.747   4.367   1.909  1.00  0.00     0.000 C 
BRANCH  17  18
HETATM   18  C   UNL     1       5.671   3.649   2.727  1.00  0.00    -0.000 C 
BRANCH  18  19
HETATM   19  C   UNL     1       5.135   4.555   3.834  1.00  0.00    -0.005 C 
HETATM   20  C   UNL     1       4.064   3.858   4.656  1.00  0.00     0.005 C 
ENDBRANCH  18  19
ENDBRANCH  17  18
ENDBRANCH  16  17
ENDBRANCH  15  16
ENDBRANCH  14  15
ENDBRANCH  13  14
ENDBRANCH  12  13
BRANCH  12  21
HETATM   21  C   UNL     1      11.998   3.098  -0.600  1.00  0.00     0.014 C 
BRANCH  21  22
HETATM   22  C   UNL     1      12.406   1.897  -1.469  1.00  0.00     0.001 C 
BRANCH  22  23
HETATM   23  C   UNL     1      13.079   0.752  -0.697  1.00  0.00     0.000 C 
BRANCH  23  24
HETATM   24  C   UNL     1      12.191   0.146   0.393  1.00  0.00    -0.000 C 
BRANCH  24  25
HETATM   25  C   UNL     1      12.871  -1.034   1.089  1.00  0.00    -0.005 C 
HETATM   26  C   UNL     1      11.982  -1.604   2.185  1.00  0.00     0.005 C 
ENDBRANCH  24  25
ENDBRANCH  23  24
ENDBRANCH  22  23
ENDBRANCH  21  22
ENDBRANCH  12  21
ENDBRANCH  10  12
ENDBRANCH   9  10
ENDBRANCH   8   9
ENDBRANCH   7   8
BRANCH   7  27
HETATM   27  O   UNL     1      14.125   8.101  -4.658  1.00  0.00    -0.310 OA
BRANCH  27  28
HETATM   28  C   UNL     1      14.303   7.391  -5.814  1.00  0.00     0.263 C 
HETATM   29  O   UNL     1      13.833   6.285  -6.041  1.00  0.00    -0.265 OA
BRANCH  28  30
HETATM   30  C   UNL     1      15.228   8.134  -6.766  1.00  0.00     0.085 C 
BRANCH  30  31
HETATM   31  C   UNL     1      16.666   7.697  -6.435  1.00  0.00     0.014 C 
BRANCH  31  32
HETATM   32  C   UNL     1      17.720   8.398  -7.290  1.00  0.00     0.001 C 
BRANCH  32  33
HETATM   33  C   UNL     1      19.132   7.925  -6.952  1.00  0.00     0.000 C 
BRANCH  33  34
HETATM   34  C   UNL     1      20.142   8.616  -7.865  1.00  0.00    -0.000 C 
BRANCH  34  35
HETATM   35  C   UNL     1      21.570   8.169  -7.568  1.00  0.00    -0.005 C 
HETATM   36  C   UNL     1      22.557   8.877  -8.482  1.00  0.00     0.005 C 
ENDBRANCH  34  35
ENDBRANCH  33  34
ENDBRANCH  32  33
ENDBRANCH  31  32
ENDBRANCH  30  31
BRANCH  30  37
HETATM   37  C   UNL     1      14.867   7.831  -8.234  1.00  0.00     0.014 C 
BRANCH  37  38
HETATM   38  C   UNL     1      13.459   8.277  -8.626  1.00  0.00     0.001 C 
BRANCH  38  39
HETATM   39  C   UNL     1      13.178   7.933 -10.090  1.00  0.00     0.000 C 
BRANCH  39  40
HETATM   40  C   UNL     1      11.765   8.350 -10.482  1.00  0.00     0.000 C 
BRANCH  40  41
HETATM   41  C   UNL     1      11.466   8.005 -11.938  1.00  0.00     0.000 C 
BRANCH  41  42
HETATM   42  C   UNL     1      10.047   8.431 -12.311  1.00  0.00    -0.000 C 
BRANCH  42  43
HETATM   43  C   UNL     1       9.732   8.097 -13.766  1.00  0.00    -0.005 C 
HETATM   44  C   UNL     1       8.321   8.524 -14.135  1.00  0.00     0.005 C 
ENDBRANCH  42  43
ENDBRANCH  41  42
ENDBRANCH  40  41
ENDBRANCH  39  40
ENDBRANCH  38  39
ENDBRANCH  37  38
ENDBRANCH  30  37
ENDBRANCH  28  30
ENDBRANCH  27  28
ENDBRANCH   7  27
ENDBRANCH   1   7
BRANCH   2  45
HETATM   45  O   UNL     1      14.495   8.766  -1.070  1.00  0.00    -0.277 OA
BRANCH  45  46
HETATM   46  C   UNL     1      14.243   9.054   0.248  1.00  0.00     0.268 C 
HETATM   47  O   UNL     1      13.262   9.637   0.688  1.00  0.00    -0.264 OA
BRANCH  46  48
HETATM   48  C   UNL     1      15.373   8.499   1.112  1.00  0.00     0.086 C 
BRANCH  48  49
HETATM   49  C   UNL     1      16.527   9.517   1.103  1.00  0.00     0.014 C 
BRANCH  49  50
HETATM   50  C   UNL     1      17.748   9.051   1.899  1.00  0.00     0.001 C 
BRANCH  50  51
HETATM   51  C   UNL     1      18.855  10.100   1.899  1.00  0.00     0.000 C 
BRANCH  51  52
HETATM   52  C   UNL     1      20.028   9.618   2.749  1.00  0.00    -0.000 C 
BRANCH  52  53
HETATM   53  C   UNL     1      21.153  10.646   2.787  1.00  0.00    -0.005 C 
HETATM   54  C   UNL     1      22.312  10.137   3.627  1.00  0.00     0.005 C 
ENDBRANCH  52  53
ENDBRANCH  51  52
ENDBRANCH  50  51
ENDBRANCH  49  50
ENDBRANCH  48  49
BRANCH  48  55
HETATM   55  C   UNL     1      14.859   8.221   2.541  1.00  0.00     0.014 C 
BRANCH  55  56
HETATM   56  C   UNL     1      13.733   7.184   2.633  1.00  0.00     0.001 C 
BRANCH  56  57
HETATM   57  C   UNL     1      14.097   5.790   2.115  1.00  0.00     0.000 C 
BRANCH  57  58
HETATM   58  C   UNL     1      15.265   5.170   2.882  1.00  0.00     0.000 C 
BRANCH  58  59
HETATM   59  C   UNL     1      15.616   3.782   2.355  1.00  0.00     0.000 C 
BRANCH  59  60
HETATM   60  C   UNL     1      16.788   3.196   3.141  1.00  0.00    -0.000 C 
BRANCH  60  61
HETATM   61  C   UNL     1      17.167   1.813   2.621  1.00  0.00    -0.005 C 
HETATM   62  C   UNL     1      18.329   1.229   3.408  1.00  0.00     0.005 C 
ENDBRANCH  60  61
ENDBRANCH  59  60
ENDBRANCH  58  59
ENDBRANCH  57  58
ENDBRANCH  56  57
ENDBRANCH  55  56
ENDBRANCH  48  55
ENDBRANCH  46  48
ENDBRANCH  45  46
ENDBRANCH   2  45
BRANCH   3  63
HETATM   63  O   UNL     1      14.436  11.695  -1.716  1.00  0.00    -0.270 OA
BRANCH  63  64
HETATM   64  C   UNL     1      13.739  12.799  -1.272  1.00  0.00     0.268 C 
HETATM   65  O   UNL     1      12.520  12.887  -1.232  1.00  0.00    -0.264 OA
BRANCH  64  66
HETATM   66  C   UNL     1      14.719  13.839  -0.722  1.00  0.00     0.086 C 
BRANCH  66  67
HETATM   67  C   UNL     1      15.620  14.351  -1.864  1.00  0.00     0.014 C 
BRANCH  67  68
HETATM   68  C   UNL     1      16.704  15.352  -1.442  1.00  0.00     0.001 C 
BRANCH  68  69
HETATM   69  C   UNL     1      17.686  14.790  -0.411  1.00  0.00     0.000 C 
BRANCH  69  70
HETATM   70  C   UNL     1      18.719  15.845  -0.019  1.00  0.00    -0.000 C 
BRANCH  70  71
HETATM   71  C   UNL     1      19.721  15.301   0.997  1.00  0.00    -0.005 C 
HETATM   72  C   UNL     1      20.736  16.367   1.379  1.00  0.00     0.005 C 
ENDBRANCH  70  71
ENDBRANCH  69  70
ENDBRANCH  68  69
ENDBRANCH  67  68
ENDBRANCH  66  67
BRANCH  66  73
HETATM   73  C   UNL     1      13.989  15.010  -0.031  1.00  0.00     0.014 C 
BRANCH  73  74
HETATM   74  C   UNL     1      13.164  14.643   1.207  1.00  0.00     0.001 C 
BRANCH  74  75
HETATM   75  C   UNL     1      14.009  14.052   2.328  1.00  0.00     0.000 C 
BRANCH  75  76
HETATM   76  C   UNL     1      13.131  13.704   3.523  1.00  0.00     0.000 C 
BRANCH  76  77
HETATM   77  C   UNL     1      13.960  13.098   4.651  1.00  0.00     0.000 C 
BRANCH  77  78
HETATM   78  C   UNL     1      13.066  12.738   5.830  1.00  0.00    -0.000 C 
BRANCH  78  79
HETATM   79  C   UNL     1      13.876  12.133   6.974  1.00  0.00    -0.005 C 
HETATM   80  C   UNL     1      12.984  11.778   8.145  1.00  0.00     0.005 C 
ENDBRANCH  78  79
ENDBRANCH  77  78
ENDBRANCH  76  77
ENDBRANCH  75  76
ENDBRANCH  74  75
ENDBRANCH  73  74
ENDBRANCH  66  73
ENDBRANCH  64  66
ENDBRANCH  63  64
ENDBRANCH   3  63
TORSDOF 62
