REMARK  6 active torsions:
REMARK  status: ('A' for Active; 'I' for Inactive)
REMARK    1  A    between atoms: C_5  and  C_33 
REMARK    2  A    between atoms: C_19  and  O_26 
REMARK    3  A    between atoms: C_20  and  O_25 
REMARK    4  A    between atoms: C_21  and  C_23 
REMARK    5  A    between atoms: C_23  and  O_24 
REMARK    6  A    between atoms: C_33  and  O_35 
ROOT
HETATM    1  C   UNL     1       1.281  -0.778   0.169  1.00  0.00     0.010 C 
HETATM    2  C   UNL     1       2.376   0.224  -0.229  1.00  0.00    -0.014 C 
HETATM    3  C   UNL     1       1.846   1.614   0.146  1.00  0.00     0.006 C 
HETATM    4  C   UNL     1       2.767   2.682  -0.407  1.00  0.00     0.021 C 
HETATM    5  C   UNL     1       4.119   2.599   0.333  1.00  0.00     0.053 C 
HETATM    6  C   UNL     1       4.990   3.765  -0.130  1.00  0.00     0.022 C 
HETATM    7  C   UNL     1       6.305   3.723   0.636  1.00  0.00     0.016 C 
HETATM    8  C   UNL     1       7.128   2.517   0.216  1.00  0.00    -0.013 C 
HETATM    9  C   UNL     1       6.420   1.173  -0.075  1.00  0.00    -0.069 C 
HETATM   10  C   UNL     1       7.324   0.150  -0.323  1.00  0.00    -0.022 C 
HETATM   11  C   UNL     1       8.972   0.256  -0.078  1.00  0.00     0.033 C 
HETATM   12  C   UNL     1       9.422   1.688   0.419  1.00  0.00     0.007 C 
HETATM   13  C   UNL     1       8.248   2.111   1.348  1.00  0.00    -0.028 C 
HETATM   14  C   UNL     1       8.730   3.061   2.475  1.00  0.00     0.011 C 
HETATM   15  C   UNL     1      10.118   2.622   3.069  1.00  0.00     0.007 C 
HETATM   16  C   UNL     1      11.302   2.419   2.066  1.00  0.00     0.007 C 
HETATM   17  C   UNL     1      10.797   2.533   0.617  1.00  0.00    -0.033 C 
HETATM   18  C   UNL     1      11.850   2.300  -0.524  1.00  0.00     0.044 C 
HETATM   19  C   UNL     1      13.202   1.787  -0.083  1.00  0.00     0.148 C 
HETATM   20  C   UNL     1      13.005   0.747   1.005  1.00  0.00     0.157 C 
HETATM   21  C   UNL     1      12.369   1.275   2.336  1.00  0.00     0.010 C 
HETATM   22  C   UNL     1      13.465   1.865   3.276  1.00  0.00     0.020 C 
HETATM   23  C   UNL     1      10.582   4.114   0.424  1.00  0.00     0.016 C 
HETATM   24  C   UNL     1       7.683   0.929   2.331  1.00  0.00     0.016 C 
HETATM   25  C   UNL     1       4.811   1.207  -0.091  1.00  0.00     0.038 C 
HETATM   26  C   UNL     1       3.856  -0.035   0.296  1.00  0.00    -0.005 C 
HETATM   27  C   UNL     1       3.844  -0.478   1.767  1.00  0.00     0.011 C 
HETATM   28  C   UNL     1       7.624   2.984  -1.253  1.00  0.00     0.021 C 
ENDROOT
BRANCH   5  29
HETATM   29  C   UNL     1       3.771   2.992   1.803  1.00  0.00     0.149 C 
HETATM   30  O   UNL     1       3.047   3.950   2.081  1.00  0.00    -0.649 OA
BRANCH  29  31
HETATM   31  O   UNL     1       4.370   2.297   2.765  1.00  0.00    -0.776 OA
HETATM   32  H   UNL     1       5.026   1.677   2.458  1.00  0.00     0.167 HD
ENDBRANCH  29  31
ENDBRANCH   5  29
BRANCH  21  33
HETATM   33  C   UNL     1      11.785   0.034   3.055  1.00  0.00     0.176 C 
BRANCH  33  34
HETATM   34  O   UNL     1      12.747  -1.001   3.261  1.00  0.00    -0.400 OA
HETATM   35  H   UNL     1      13.433  -0.938   2.561  1.00  0.00     0.209 HD
ENDBRANCH  33  34
ENDBRANCH  21  33
BRANCH  19  36
HETATM   36  O   UNL     1      14.096   2.815   0.343  1.00  0.00    -0.393 OA
HETATM   37  H   UNL     1      13.592   3.553   0.726  1.00  0.00     0.210 HD
ENDBRANCH  19  36
BRANCH  20  38
HETATM   38  O   UNL     1      14.253   0.092   1.259  1.00  0.00    -0.392 OA
HETATM   39  H   UNL     1      14.943   0.782   1.162  1.00  0.00     0.210 HD
ENDBRANCH  20  38
TORSDOF 6
