REMARK  12 active torsions:
REMARK  status: ('A' for Active; 'I' for Inactive)
REMARK    1  A    between atoms: C_3  and  C_12 
REMARK    2  A    between atoms: C_6  and  O_9 
REMARK    3  A    between atoms: C_13  and  C_14 
REMARK    4  A    between atoms: C_15  and  C_16 
REMARK    5  A    between atoms: C_17  and  C_18 
REMARK    6  A    between atoms: C_19  and  C_20 
REMARK    7  A    between atoms: C_21  and  C_22 
REMARK    8  A    between atoms: C_23  and  C_25 
REMARK    9  A    between atoms: C_26  and  C_27 
REMARK   10  A    between atoms: C_28  and  C_30 
REMARK   11  A    between atoms: C_31  and  C_32 
REMARK   12  A    between atoms: C_36  and  O_41 
ROOT
HETATM    1  C   UNL     1       4.384   3.654  -0.870  1.00  0.00     0.001 C 
HETATM    2  C   UNL     1       4.970   2.478  -1.158  1.00  0.00     0.001 C 
ENDROOT
BRANCH   1   3
HETATM    3  C   UNL     1       5.129   4.901  -0.701  1.00  0.00     0.007 C 
HETATM    4  C   UNL     1       4.674   6.163  -0.832  1.00  0.00    -0.062 C 
HETATM    5  C   UNL     1       5.604   7.352  -0.674  1.00  0.00     0.048 C 
BRANCH   4   6
HETATM    6  C   UNL     1       3.310   6.545  -1.172  1.00  0.00     0.007 C 
HETATM    7  C   UNL     1       2.310   6.360  -0.285  1.00  0.00     0.001 C 
BRANCH   7   8
HETATM    8  C   UNL     1       0.929   6.743  -0.490  1.00  0.00     0.007 C 
HETATM    9  C   UNL     1      -0.037   6.857   0.463  1.00  0.00    -0.062 C 
HETATM   10  C   UNL     1      -1.450   7.020  -0.046  1.00  0.00     0.048 C 
BRANCH   9  11
HETATM   11  C   UNL     1       0.125   6.740   1.935  1.00  0.00     0.007 C 
HETATM   12  C   UNL     1       1.163   7.280   2.599  1.00  0.00     0.009 C 
BRANCH  12  13
HETATM   13  C   UNL     1       1.750   7.238   3.980  1.00  0.00    -0.041 C 
HETATM   14  C   UNL     1       2.963   7.863   4.092  1.00  0.00    -0.006 C 
HETATM   15  C   UNL     1       3.665   8.779   3.099  1.00  0.00     0.052 C 
HETATM   16  C   UNL     1       3.880   7.596   5.246  1.00  0.00     0.184 C 
HETATM   17  C   UNL     1       3.330   7.038   6.526  1.00  0.00     0.193 C 
HETATM   18  O   UNL     1       5.091   7.815   5.124  1.00  0.00    -0.290 OA
HETATM   19  C   UNL     1       2.164   6.102   6.334  1.00  0.00     0.053 C 
HETATM   20  C   UNL     1       1.155   6.386   5.164  1.00  0.00    -0.017 C 
HETATM   21  C   UNL     1       0.723   4.975   4.702  1.00  0.00     0.020 C 
HETATM   22  C   UNL     1      -0.091   7.032   5.834  1.00  0.00     0.020 C 
BRANCH  17  23
HETATM   23  O   UNL     1       4.355   6.308   7.219  1.00  0.00    -0.388 OA
HETATM   24  H   UNL     1       4.938   5.927   6.542  1.00  0.00     0.210 HD
ENDBRANCH  17  23
ENDBRANCH  12  13
ENDBRANCH   9  11
ENDBRANCH   7   8
ENDBRANCH   4   6
ENDBRANCH   1   3
BRANCH   2  25
HETATM   25  C   UNL     1       4.288   1.260  -1.603  1.00  0.00     0.007 C 
HETATM   26  C   UNL     1       4.472  -0.016  -1.179  1.00  0.00    -0.062 C 
HETATM   27  C   UNL     1       5.264  -0.403   0.047  1.00  0.00     0.048 C 
BRANCH  26  28
HETATM   28  C   UNL     1       3.954  -1.180  -1.922  1.00  0.00     0.007 C 
HETATM   29  C   UNL     1       2.739  -1.301  -2.496  1.00  0.00     0.001 C 
BRANCH  29  30
HETATM   30  C   UNL     1       2.301  -2.430  -3.314  1.00  0.00     0.007 C 
HETATM   31  C   UNL     1       1.080  -2.562  -3.882  1.00  0.00    -0.062 C 
HETATM   32  C   UNL     1      -0.054  -1.581  -3.699  1.00  0.00     0.048 C 
BRANCH  31  33
HETATM   33  C   UNL     1       0.682  -3.676  -4.751  1.00  0.00     0.007 C 
HETATM   34  C   UNL     1       1.279  -4.024  -5.906  1.00  0.00     0.009 C 
BRANCH  34  35
HETATM   35  C   UNL     1       0.683  -4.942  -6.897  1.00  0.00    -0.041 A 
HETATM   36  C   UNL     1      -0.419  -4.569  -7.589  1.00  0.00    -0.006 A 
HETATM   37  C   UNL     1      -1.063  -5.473  -8.584  1.00  0.00     0.184 A 
HETATM   38  C   UNL     1      -1.152  -3.255  -7.469  1.00  0.00     0.052 C 
HETATM   39  O   UNL     1      -2.130  -5.139  -9.105  1.00  0.00    -0.290 OA
HETATM   40  C   UNL     1      -0.434  -6.812  -8.931  1.00  0.00     0.193 A 
HETATM   41  C   UNL     1       0.824  -7.225  -8.193  1.00  0.00     0.053 A 
HETATM   42  C   UNL     1       1.392  -6.299  -7.077  1.00  0.00    -0.017 A 
HETATM   43  C   UNL     1       1.290  -7.087  -5.748  1.00  0.00     0.020 C 
HETATM   44  C   UNL     1       2.893  -6.097  -7.403  1.00  0.00     0.020 C 
BRANCH  40  45
HETATM   45  O   UNL     1      -1.386  -7.875  -8.838  1.00  0.00    -0.388 OA
HETATM   46  H   UNL     1      -1.883  -7.752  -8.010  1.00  0.00     0.210 HD
ENDBRANCH  40  45
ENDBRANCH  34  35
ENDBRANCH  31  33
ENDBRANCH  29  30
ENDBRANCH  26  28
ENDBRANCH   2  25
TORSDOF 12
