REMARK  7 active torsions:
REMARK  status: ('A' for Active; 'I' for Inactive)
REMARK    1  A    between atoms: C_3  and  C_4 
REMARK    2  A    between atoms: C_4  and  C_5 
REMARK    3  A    between atoms: C_5  and  C_6 
REMARK    4  A    between atoms: C_6  and  C_8 
REMARK    5  A    between atoms: C_6  and  C_10 
REMARK    6  A    between atoms: C_11  and  C_12 
REMARK    7  A    between atoms: C_15  and  O_18 
ROOT
HETATM    1  C   UNL     1       2.687  -2.116   4.481  1.00  0.00    -0.009 C 
HETATM    2  C   UNL     1       1.840  -1.005   5.135  1.00  0.00     0.024 C 
ENDROOT
BRANCH   1   3
HETATM    3  C   UNL     1       3.499  -1.520   3.281  1.00  0.00     0.021 C 
BRANCH   3   4
HETATM    4  C   UNL     1       4.446  -0.370   3.685  1.00  0.00     0.028 C 
BRANCH   4   5
HETATM    5  C   UNL     1       5.307   0.159   2.582  1.00  0.00    -0.025 C 
HETATM    6  C   UNL     1       6.537  -0.305   2.279  1.00  0.00    -0.091 C 
HETATM    7  C   UNL     1       7.167  -1.510   2.921  1.00  0.00     0.042 C 
HETATM    8  C   UNL     1       7.379   0.399   1.253  1.00  0.00     0.042 C 
ENDBRANCH   4   5
ENDBRANCH   3   4
ENDBRANCH   1   3
BRANCH   1   9
HETATM    9  C   UNL     1       1.811  -3.257   3.944  1.00  0.00    -0.024 C 
HETATM   10  C   UNL     1       0.472  -3.368   4.001  1.00  0.00     0.008 C 
ENDBRANCH   1   9
BRANCH   1  11
HETATM   11  C   UNL     1       3.649  -2.658   5.542  1.00  0.00    -0.013 C 
HETATM   12  C   UNL     1       3.416  -3.684   6.374  1.00  0.00     0.008 C 
BRANCH  12  13
HETATM   13  C   UNL     1       4.418  -4.134   7.350  1.00  0.00    -0.036 A 
HETATM   14  C   UNL     1       4.460  -3.579   8.632  1.00  0.00     0.014 A 
HETATM   15  C   UNL     1       5.407  -4.035   9.558  1.00  0.00     0.037 A 
HETATM   16  C   UNL     1       6.305  -5.036   9.192  1.00  0.00     0.065 A 
HETATM   17  C   UNL     1       6.272  -5.585   7.913  1.00  0.00     0.037 A 
HETATM   18  C   UNL     1       5.330  -5.127   6.989  1.00  0.00     0.014 A 
BRANCH  16  19
HETATM   19  O   UNL     1       7.228  -5.518  10.063  1.00  0.00    -0.361 OA
HETATM   20  H   UNL     1       7.134  -5.046  10.906  1.00  0.00     0.217 HD
ENDBRANCH  16  19
ENDBRANCH  12  13
ENDBRANCH   1  11
TORSDOF 7
