REMARK  4 active torsions:
REMARK  status: ('A' for Active; 'I' for Inactive)
REMARK    1  A    between atoms: C_5  and  C_8 
REMARK    2  A    between atoms: N_9  and  N_11 
REMARK    3  A    between atoms: N_11  and  C_13 
REMARK    4  A    between atoms: O_20  and  S_21 
ROOT
HETATM    1  S   UNL     2       3.010   2.222  -1.822  1.00  0.00     0.251 S 
HETATM    2  O   UNL     2       2.571   2.683  -3.127  1.00  0.00    -0.572 OA
HETATM    3  O   UNL     2       2.267   2.795  -0.687  1.00  0.00    -0.572 OA
HETATM    4  O   UNL     2       4.443   2.138  -1.626  1.00  0.00    -0.572 OA
ENDROOT
BRANCH   1   5
HETATM    5  O   UNL     2       2.523   0.661  -1.782  1.00  0.00    -0.262 OA
HETATM    6  C   UNL     2       1.180   0.408  -2.122  1.00  0.00     0.228 C 
ENDBRANCH   1   5
TORSDOF 4
