REMARK WARNING: 32 MAX_TORS EXCEEDED!!!
REMARK  45 active torsions:
REMARK  status: ('A' for Active; 'I' for Inactive)
REMARK    1  A    between atoms: C_2  and  C_3 
REMARK    2  A    between atoms: C_3  and  C_4 
REMARK    3  A    between atoms: C_4  and  C_5 
REMARK    4  A    between atoms: C_5  and  C_6 
REMARK    5  A    between atoms: C_6  and  C_7 
REMARK    6  A    between atoms: C_7  and  C_8 
REMARK    7  A    between atoms: C_8  and  C_9 
REMARK    8  A    between atoms: C_9  and  C_10 
REMARK    9  A    between atoms: C_10  and  C_11 
REMARK   10  A    between atoms: C_11  and  C_12 
REMARK   11  A    between atoms: C_12  and  C_13 
REMARK   12  A    between atoms: C_13  and  C_14 
REMARK   13  A    between atoms: C_14  and  C_15 
REMARK   14  A    between atoms: C_15  and  C_16 
REMARK   15  A    between atoms: C_16  and  C_17 
REMARK   16  A    between atoms: C_17  and  C_18 
REMARK   17  A    between atoms: C_18  and  C_19 
REMARK   18  A    between atoms: C_19  and  C_20 
REMARK   19  A    between atoms: C_20  and  C_21 
REMARK   20  A    between atoms: C_21  and  C_22 
REMARK       I    between atoms: C_22  and  N_24 
REMARK   21  A    between atoms: N_24  and  C_25 
REMARK   22  A    between atoms: C_25  and  C_26 
REMARK   23  A    between atoms: C_26  and  C_27 
REMARK   24  A    between atoms: C_27  and  N_28 
REMARK   25  A    between atoms: C_33  and  C_34 
REMARK   26  A    between atoms: C_34  and  C_35 
REMARK   27  A    between atoms: C_35  and  C_36 
REMARK   28  A    between atoms: C_36  and  C_37 
REMARK   29  A    between atoms: C_37  and  C_38 
REMARK   30  A    between atoms: C_38  and  C_39 
REMARK   31  A    between atoms: C_39  and  C_40 
REMARK   32  A    between atoms: C_40  and  C_41 
REMARK   33  A    between atoms: C_41  and  C_42 
REMARK   34  A    between atoms: C_42  and  C_43 
REMARK   35  A    between atoms: C_43  and  C_44 
REMARK   36  A    between atoms: C_44  and  C_45 
REMARK   37  A    between atoms: C_45  and  C_46 
REMARK   38  A    between atoms: C_46  and  C_47 
REMARK   39  A    between atoms: C_47  and  C_48 
REMARK   40  A    between atoms: C_48  and  C_49 
REMARK   41  A    between atoms: C_49  and  C_50 
REMARK   42  A    between atoms: C_50  and  C_51 
REMARK   43  A    between atoms: C_51  and  C_52 
REMARK   44  A    between atoms: C_52  and  C_53 
REMARK   45  A    between atoms: C_53  and  O_55 
ROOT
HETATM    1  C   UNL     2       3.745  -8.162   7.222  1.00  0.00     0.000 C 
ENDROOT
BRANCH   1   2
HETATM    2  C   UNL     2       2.793  -6.986   7.317  1.00  0.00     0.000 C 
BRANCH   2   3
HETATM    3  C   UNL     2       3.306  -5.853   6.463  1.00  0.00     0.000 C 
BRANCH   3   4
HETATM    4  C   UNL     2       2.353  -4.670   6.541  1.00  0.00     0.000 C 
BRANCH   4   5
HETATM    5  C   UNL     2       2.868  -3.521   5.699  1.00  0.00     0.000 C 
BRANCH   5   6
HETATM    6  C   UNL     2       2.997  -3.925   4.240  1.00  0.00     0.000 C 
BRANCH   6   7
HETATM    7  C   UNL     2       3.519  -2.743   3.442  1.00  0.00     0.000 C 
BRANCH   7   8
HETATM    8  C   UNL     2       3.641  -3.058   1.961  1.00  0.00     0.000 C 
BRANCH   8   9
HETATM    9  C   UNL     2       2.259  -3.446   1.430  1.00  0.00     0.000 C 
BRANCH   9  10
HETATM   10  C   UNL     2       2.189  -3.722  -0.061  1.00  0.00     0.000 C 
BRANCH  10  11
HETATM   11  C   UNL     2       2.580  -2.520  -0.898  1.00  0.00    -0.000 C 
BRANCH  11  12
HETATM   12  C   UNL     2       1.714  -1.307  -0.594  1.00  0.00    -0.005 C 
HETATM   13  C   UNL     2       0.220  -1.399  -0.822  1.00  0.00     0.005 C 
ENDBRANCH  11  12
ENDBRANCH  10  11
ENDBRANCH   9  10
ENDBRANCH   8   9
ENDBRANCH   7   8
ENDBRANCH   6   7
ENDBRANCH   5   6
ENDBRANCH   4   5
ENDBRANCH   3   4
ENDBRANCH   2   3
ENDBRANCH   1   2
BRANCH   1  14
HETATM   14  C   UNL     2       3.228  -9.298   8.082  1.00  0.00     0.000 C 
BRANCH  14  15
HETATM   15  C   UNL     2       4.174 -10.482   8.004  1.00  0.00     0.000 C 
BRANCH  15  16
HETATM   16  C   UNL     2       3.658 -11.622   8.866  1.00  0.00     0.000 C 
BRANCH  16  17
HETATM   17  C   UNL     2       4.606 -12.811   8.790  1.00  0.00     0.000 C 
BRANCH  17  18
HETATM   18  C   UNL     2       4.094 -13.955   9.654  1.00  0.00     0.000 C 
BRANCH  18  19
HETATM   19  C   UNL     2       5.035 -15.154   9.591  1.00  0.00     0.001 C 
BRANCH  19  20
HETATM   20  C   UNL     2       4.508 -16.291  10.465  1.00  0.00     0.010 C 
BRANCH  20  21
HETATM   21  C   UNL     2       5.434 -17.500  10.431  1.00  0.00     0.110 C 
BRANCH  21  22
HETATM   22  C   UNL     2       4.896 -18.623  11.298  1.00  0.00     0.139 C 
HETATM   23  O   UNL     2       3.870 -18.577  11.935  1.00  0.00    -0.650 OA
BRANCH  22  24
HETATM   24  O   UNL     2       5.702 -19.716  11.276  1.00  0.00    -0.776 OA
HETATM   25  H   UNL     2       6.484 -19.610  10.703  1.00  0.00     0.167 HD
ENDBRANCH  22  24
ENDBRANCH  21  22
ENDBRANCH  20  21
ENDBRANCH  19  20
ENDBRANCH  18  19
ENDBRANCH  17  18
ENDBRANCH  16  17
ENDBRANCH  15  16
ENDBRANCH  14  15
ENDBRANCH   1  14
TORSDOF 45
