REMARK  2 active torsions:
REMARK  status: ('A' for Active; 'I' for Inactive)
REMARK    1  A    between atoms: C_4  and  C_7 
REMARK    2  A    between atoms: C_7  and  O_9 
ROOT
HETATM    1  C   UNL     1       1.361  -0.214   0.013  1.00  0.00     0.000 A 
HETATM    2  C   UNL     1       0.492  -1.306  -0.001  1.00  0.00     0.001 A 
HETATM    3  C   UNL     1      -0.894  -1.109  -0.031  1.00  0.00     0.018 A 
HETATM    4  C   UNL     1      -1.412   0.191  -0.061  1.00  0.00     0.037 A 
HETATM    5  C   UNL     1      -0.534   1.283  -0.029  1.00  0.00     0.018 A 
HETATM    6  C   UNL     1       0.846   1.081  -0.001  1.00  0.00     0.001 A 
ENDROOT
BRANCH   4   7
HETATM    7  C   UNL     1      -2.871   0.494  -0.067  1.00  0.00     0.176 C 
HETATM    8  O   UNL     1      -3.328   1.514   0.417  1.00  0.00    -0.646 OA
BRANCH   7   9
HETATM    9  O   UNL     1      -3.642  -0.421  -0.695  1.00  0.00    -0.773 OA
HETATM   10  H   UNL     1      -3.167  -1.131  -1.163  1.00  0.00     0.167 HD
ENDBRANCH   7   9
ENDBRANCH   4   7
TORSDOF 2
