REMARK  4 active torsions:
REMARK  status: ('A' for Active; 'I' for Inactive)
REMARK    1  A    between atoms: O_2  and  C_3 
REMARK    2  A    between atoms: C_5  and  O_17 
REMARK    3  A    between atoms: C_6  and  C_9 
REMARK    4  A    between atoms: C_9  and  C_11 
ROOT
HETATM    1  C   UNL     1       3.096   1.230  -0.034  1.00  0.00     0.070 A 
HETATM    2  C   UNL     1       2.454   2.468  -0.065  1.00  0.00     0.074 A 
HETATM    3  C   UNL     1       3.208   3.649  -0.101  1.00  0.00     0.082 A 
HETATM    4  C   UNL     1       4.608   3.605  -0.127  1.00  0.00     0.048 A 
HETATM    5  C   UNL     1       5.244   2.357  -0.125  1.00  0.00     0.021 A 
HETATM    6  C   UNL     1       4.491   1.182  -0.058  1.00  0.00     0.038 A 
ENDROOT
BRANCH   4   7
HETATM    7  C   UNL     1       5.425   4.847  -0.233  1.00  0.00     0.195 C 
HETATM    8  O   UNL     1       5.079   5.742  -1.000  1.00  0.00    -0.287 OA
BRANCH   7   9
HETATM    9  C   UNL     1       6.712   4.998   0.508  1.00  0.00     0.015 A 
HETATM   10  C   UNL     1       6.972   4.335   1.713  1.00  0.00     0.015 A 
HETATM   11  C   UNL     1       8.208   4.493   2.347  1.00  0.00     0.001 A 
HETATM   12  C   UNL     1       9.180   5.327   1.794  1.00  0.00     0.000 A 
HETATM   13  C   UNL     1       8.918   6.010   0.609  1.00  0.00     0.001 A 
HETATM   14  C   UNL     1       7.687   5.849  -0.032  1.00  0.00     0.015 A 
ENDBRANCH   7   9
ENDBRANCH   4   7
BRANCH   3  15
HETATM   15  O   UNL     1       2.554   4.850  -0.069  1.00  0.00    -0.360 OA
HETATM   16  H   UNL     1       1.608   4.719  -0.244  1.00  0.00     0.217 HD
ENDBRANCH   3  15
BRANCH   1  17
HETATM   17  O   UNL     1       2.488   0.007   0.021  1.00  0.00    -0.356 OA
HETATM   18  C   UNL     1       1.066  -0.012   0.006  1.00  0.00     0.210 C 
ENDBRANCH   1  17
TORSDOF 4
