REMARK  6 active torsions:
REMARK  status: ('A' for Active; 'I' for Inactive)
REMARK    1  A    between atoms: O_2  and  C_3 
REMARK    2  A    between atoms: C_4  and  S_18 
REMARK    3  A    between atoms: C_6  and  C_10 
REMARK    4  A    between atoms: C_7  and  O_9 
REMARK    5  A    between atoms: C_10  and  C_12 
REMARK    6  A    between atoms: S_18  and  O_21 
ROOT
HETATM    1  C   UNL     1       2.954   1.136  -0.018  1.00  0.00     0.094 A 
HETATM    2  C   UNL     1       2.316   2.380   0.015  1.00  0.00     0.106 A 
HETATM    3  C   UNL     1       3.085   3.569  -0.015  1.00  0.00     0.046 A 
HETATM    4  C   UNL     1       4.479   3.532  -0.110  1.00  0.00     0.050 A 
HETATM    5  C   UNL     1       5.117   2.296  -0.102  1.00  0.00     0.082 A 
HETATM    6  C   UNL     1       4.364   1.125  -0.067  1.00  0.00     0.075 A 
ENDROOT
BRANCH   4   7
HETATM    7  C   UNL     1       5.284   4.775  -0.191  1.00  0.00     0.195 C 
HETATM    8  O   UNL     1       6.411   4.770   0.301  1.00  0.00    -0.287 OA
BRANCH   7   9
HETATM    9  C   UNL     1       4.789   5.992  -0.886  1.00  0.00     0.015 A 
HETATM   10  C   UNL     1       3.962   5.910  -2.014  1.00  0.00     0.015 A 
HETATM   11  C   UNL     1       3.533   7.076  -2.650  1.00  0.00     0.001 A 
HETATM   12  C   UNL     1       3.945   8.321  -2.177  1.00  0.00     0.000 A 
HETATM   13  C   UNL     1       4.789   8.405  -1.070  1.00  0.00     0.001 A 
HETATM   14  C   UNL     1       5.215   7.243  -0.425  1.00  0.00     0.015 A 
ENDBRANCH   7   9
ENDBRANCH   4   7
BRANCH   5  15
HETATM   15  O   UNL     1       6.477   2.160  -0.132  1.00  0.00    -0.360 OA
HETATM   16  H   UNL     1       6.873   3.041   0.057  1.00  0.00     0.217 HD
ENDBRANCH   5  15
BRANCH   2  17
HETATM   17  S   UNL     1       0.562   2.617   0.108  1.00  0.00     0.132 S 
HETATM   18  O   UNL     1      -0.043   2.054  -1.080  1.00  0.00    -0.597 OA
HETATM   19  O   UNL     1       0.131   2.277   1.444  1.00  0.00    -0.597 OA
BRANCH  17  20
HETATM   20  O   UNL     1       0.323   4.203  -0.073  1.00  0.00    -0.292 OA
HETATM   21  H   UNL     1      -0.325   4.317  -0.803  1.00  0.00     0.232 HD
ENDBRANCH  17  20
ENDBRANCH   2  17
BRANCH   1  22
HETATM   22  O   UNL     1       2.499  -0.146   0.011  1.00  0.00    -0.354 OA
HETATM   23  C   UNL     1       1.135  -0.501  -0.027  1.00  0.00     0.210 C 
ENDBRANCH   1  22
TORSDOF 6
