REMARK  4 active torsions:
REMARK  status: ('A' for Active; 'I' for Inactive)
REMARK    1  A    between atoms: C_4  and  C_7 
REMARK    2  A    between atoms: C_7  and  C_9 
REMARK    3  A    between atoms: C_10  and  O_16 
REMARK    4  A    between atoms: C_12  and  O_15 
ROOT
HETATM    1  C   UNL     1      -3.852  -0.654  -0.330  1.00  0.00     0.048 A 
HETATM    2  C   UNL     1      -3.951  -1.577   0.722  1.00  0.00     0.082 A 
HETATM    3  C   UNL     1      -4.880  -2.617   0.672  1.00  0.00     0.074 A 
HETATM    4  C   UNL     1      -5.729  -2.717  -0.425  1.00  0.00     0.068 A 
HETATM    5  C   UNL     1      -5.679  -1.784  -1.455  1.00  0.00     0.037 A 
HETATM    6  C   UNL     1      -4.751  -0.743  -1.402  1.00  0.00     0.021 A 
ENDROOT
BRANCH   1   7
HETATM    7  C   UNL     1      -2.810   0.407  -0.288  1.00  0.00     0.195 C 
HETATM    8  O   UNL     1      -2.395   0.781   0.808  1.00  0.00    -0.287 OA
BRANCH   7   9
HETATM    9  C   UNL     1      -2.246   0.996  -1.530  1.00  0.00     0.015 A 
HETATM   10  C   UNL     1      -2.016   0.212  -2.669  1.00  0.00     0.015 A 
HETATM   11  C   UNL     1      -1.525   0.802  -3.834  1.00  0.00     0.001 A 
HETATM   12  C   UNL     1      -1.235   2.165  -3.855  1.00  0.00     0.000 A 
HETATM   13  C   UNL     1      -1.425   2.941  -2.709  1.00  0.00     0.001 A 
HETATM   14  C   UNL     1      -1.924   2.356  -1.544  1.00  0.00     0.015 A 
ENDBRANCH   7   9
ENDBRANCH   1   7
BRANCH   2  15
HETATM   15  O   UNL     1      -3.158  -1.520   1.838  1.00  0.00    -0.360 OA
HETATM   16  H   UNL     1      -2.689  -0.655   1.825  1.00  0.00     0.217 HD
ENDBRANCH   2  15
BRANCH   4  17
HETATM   17  O   UNL     1      -6.644  -3.721  -0.531  1.00  0.00    -0.361 OA
HETATM   18  H   UNL     1      -6.567  -4.294   0.251  1.00  0.00     0.217 HD
ENDBRANCH   4  17
TORSDOF 4
