REMARK  5 active torsions:
REMARK  status: ('A' for Active; 'I' for Inactive)
REMARK    1  A    between atoms: N_2  and  C_5 
REMARK    2  A    between atoms: C_5  and  C_6 
REMARK    3  A    between atoms: C_6  and  O_8 
REMARK    4  A    between atoms: C_14  and  C_16 
REMARK    5  A    between atoms: C_16  and  O_18 
ROOT
HETATM    1  C   UNL     1       3.421  -1.173   0.252  1.00  0.00     0.345 C 
ENDROOT
BRANCH   1   2
HETATM    2  N   UNL     1       3.016   0.242   0.806  1.00  0.00    -0.069 N 
HETATM    3  C   UNL     1       1.534   0.175   1.100  1.00  0.00     0.272 C 
HETATM    4  C   UNL     1       3.265   1.286  -0.265  1.00  0.00     0.272 C 
HETATM    5  C   UNL     1       3.742   0.591   2.085  1.00  0.00     0.272 C 
ENDBRANCH   1   2
BRANCH   1   6
HETATM    6  C   UNL     1       4.872  -1.309  -0.209  1.00  0.00     0.166 C 
HETATM    7  O   UNL     1       5.814  -0.682   0.261  1.00  0.00    -0.649 OA
BRANCH   6   8
HETATM    8  O   UNL     1       5.058  -2.223  -1.202  1.00  0.00    -0.775 OA
HETATM    9  H   UNL     1       4.239  -2.638  -1.555  1.00  0.00     0.167 HD
ENDBRANCH   6   8
ENDBRANCH   1   6
TORSDOF 5
