REMARK  7 active torsions:
REMARK  status: ('A' for Active; 'I' for Inactive)
REMARK    1  A    between atoms: C_2  and  C_3 
REMARK    2  A    between atoms: C_3  and  C_4 
REMARK    3  A    between atoms: C_3  and  C_28 
REMARK    4  A    between atoms: C_4  and  C_5 
REMARK    5  A    between atoms: C_5  and  C_6 
REMARK    6  A    between atoms: C_6  and  C_8 
REMARK    7  A    between atoms: C_23  and  O_25 
ROOT
HETATM    1  C   UNL     1      -2.465  -5.503  -2.609  1.00  0.00    -0.002 C 
HETATM    2  C   UNL     1      -3.566  -4.208  -2.244  1.00  0.00     0.006 C 
HETATM    3  C   UNL     1      -3.584  -4.141  -0.678  1.00  0.00     0.006 C 
HETATM    4  C   UNL     1      -2.487  -5.163  -0.435  1.00  0.00    -0.001 C 
HETATM    5  C   UNL     1      -2.792  -6.357  -1.310  1.00  0.00    -0.036 C 
HETATM    6  C   UNL     1      -1.947  -7.535  -0.817  1.00  0.00     0.010 C 
HETATM    7  C   UNL     1      -0.814  -7.661  -1.710  1.00  0.00     0.007 C 
HETATM    8  C   UNL     1      -0.071  -6.345  -1.508  1.00  0.00     0.003 C 
HETATM    9  C   UNL     1      -1.159  -4.675  -0.881  1.00  0.00    -0.001 C 
HETATM   10  C   UNL     1      -0.435  -2.929  -1.563  1.00  0.00     0.033 C 
HETATM   11  C   UNL     1       0.845  -3.060  -2.907  1.00  0.00    -0.023 C 
HETATM   12  C   UNL     1       1.560  -4.275  -3.349  1.00  0.00    -0.072 C 
HETATM   13  C   UNL     1       1.310  -6.088  -2.855  1.00  0.00    -0.017 C 
HETATM   14  C   UNL     1       2.822  -6.460  -2.480  1.00  0.00     0.016 C 
HETATM   15  C   UNL     1       3.763  -6.139  -3.689  1.00  0.00     0.033 C 
HETATM   16  C   UNL     1       3.991  -4.642  -3.817  1.00  0.00     0.122 C 
HETATM   17  C   UNL     1       2.714  -3.946  -4.247  1.00  0.00     0.066 C 
HETATM   18  C   UNL     1       1.131  -7.426  -3.870  1.00  0.00     0.020 C 
HETATM   19  C   UNL     1      -4.223  -6.919  -1.358  1.00  0.00     0.016 C 
ENDROOT
BRANCH   1  20
HETATM   20  C   UNL     1      -0.678  -4.847  -2.810  1.00  0.00    -0.014 C 
HETATM   21  C   UNL     1      -0.566  -5.054  -4.468  1.00  0.00     0.010 C 
BRANCH  20  22
HETATM   22  C   UNL     1       0.715  -4.577  -1.183  1.00  0.00     0.005 C 
BRANCH  22  23
HETATM   23  C   UNL     1       0.287  -4.267   0.695  1.00  0.00     0.005 C 
BRANCH  23  24
HETATM   24  C   UNL     1      -0.480  -5.130   2.074  1.00  0.00    -0.012 C 
BRANCH  24  25
HETATM   25  C   UNL     1       0.392  -6.332   2.434  1.00  0.00     0.000 C 
HETATM   26  C   UNL     1       1.872  -5.982   2.548  1.00  0.00     0.005 C 
ENDBRANCH  24  25
BRANCH  24  27
HETATM   27  C   UNL     1      -2.162  -5.442   2.514  1.00  0.00    -0.019 C 
HETATM   28  C   UNL     1      -2.782  -6.821   2.065  1.00  0.00     0.010 C 
HETATM   29  C   UNL     1      -2.690  -5.484   3.969  1.00  0.00     0.010 C 
ENDBRANCH  24  27
ENDBRANCH  23  24
ENDBRANCH  22  23
ENDBRANCH  20  22
ENDBRANCH   1  20
BRANCH  16  30
HETATM   30  O   UNL     1       5.018  -4.390  -4.776  1.00  0.00    -0.395 OA
HETATM   31  H   UNL     1       4.723  -3.667  -5.358  1.00  0.00     0.210 HD
ENDBRANCH  16  30
TORSDOF 7
