REMARK  3 active torsions:
REMARK  status: ('A' for Active; 'I' for Inactive)
REMARK    1  A    between atoms: C_4  and  C_13 
REMARK    2  A    between atoms: C_5  and  O_12 
REMARK    3  A    between atoms: C_6  and  C_8 
ROOT
HETATM    1  C   UNL     1       2.978   0.068   0.061  1.00  0.00     0.048 C 
HETATM    2  C   UNL     1       1.488   0.022   0.020  1.00  0.00    -0.061 A 
HETATM    3  C   UNL     1       0.800  -1.196  -0.006  1.00  0.00     0.017 A 
HETATM    4  C   UNL     1      -0.620  -1.271  -0.054  1.00  0.00    -0.016 A 
HETATM    5  C   UNL     1      -1.314  -0.037  -0.027  1.00  0.00     0.079 A 
HETATM    6  C   UNL     1      -0.664   1.216  -0.042  1.00  0.00    -0.016 A 
HETATM    7  C   UNL     1       0.745   1.199   0.007  1.00  0.00     0.017 A 
ENDROOT
BRANCH   4   8
HETATM    8  C   UNL     1      -1.315  -2.658  -0.077  1.00  0.00    -0.021 C 
HETATM    9  C   UNL     1      -0.268  -3.816  -0.089  1.00  0.00     0.019 C 
HETATM   10  C   UNL     1      -2.263  -2.848   1.123  1.00  0.00     0.019 C 
HETATM   11  C   UNL     1      -2.144  -2.873  -1.365  1.00  0.00     0.019 C 
ENDBRANCH   4   8
BRANCH   5  12
HETATM   12  O   UNL     1      -2.686   0.009   0.025  1.00  0.00    -0.360 OA
HETATM   13  H   UNL     1      -3.074  -0.843  -0.115  1.00  0.00     0.217 HD
ENDBRANCH   5  12
BRANCH   6  14
HETATM   14  C   UNL     1      -1.397   2.583  -0.069  1.00  0.00    -0.021 C 
HETATM   15  C   UNL     1      -1.669   3.052   1.374  1.00  0.00     0.019 C 
HETATM   16  C   UNL     1      -0.520   3.637  -0.800  1.00  0.00     0.019 C 
HETATM   17  C   UNL     1      -2.759   2.618  -0.813  1.00  0.00     0.019 C 
ENDBRANCH   6  14
TORSDOF 3
