REMARK  19 active torsions:
REMARK  status: ('A' for Active; 'I' for Inactive)
REMARK    1  A    between atoms: C_4  and  C_6 
REMARK    2  A    between atoms: C_6  and  C_7 
REMARK    3  A    between atoms: C_7  and  C_8 
REMARK    4  A    between atoms: C_8  and  C_9 
REMARK    5  A    between atoms: C_9  and  C_10 
REMARK       I    between atoms: C_10  and  N_12 
REMARK    6  A    between atoms: N_12  and  C_13 
REMARK    7  A    between atoms: C_13  and  C_14 
REMARK       I    between atoms: C_14  and  N_23 
REMARK    8  A    between atoms: N_23  and  CA_24 
REMARK    9  A    between atoms: CA_24  and  CB_25 
REMARK   10  A    between atoms: CA_24  and  C_32 
REMARK   11  A    between atoms: CB_25  and  CG_26 
REMARK       I    between atoms: C_32  and  N_36 
REMARK   12  A    between atoms: N_36  and  CA_37 
REMARK   13  A    between atoms: CA_37  and  CB_38 
REMARK   14  A    between atoms: CA_37  and  C_43 
REMARK   15  A    between atoms: CB_38  and  CG_39 
REMARK   16  A    between atoms: CG_39  and  CD_40 
REMARK   17  A    between atoms: CD_40  and  CE_41 
REMARK   18  A    between atoms: CE_41  and  NZ_42 
REMARK   19  A    between atoms: C_43  and  OXT_45 
ROOT
ATOM      1  CA  HIS A   1     -13.797  -2.013  -1.900  1.00  0.00     0.182 C 
ENDROOT
BRANCH   1   2
ATOM      2  N   HIS A   1     -12.451  -1.891  -2.537  1.00  0.00    -0.346 N 
HETATM    3  C   UNK A   0     -11.261  -2.229  -1.931  1.00  0.00     0.236 C 
HETATM    4  O   UNK A   0     -11.196  -2.660  -0.777  1.00  0.00    -0.272 OA
ATOM      5  H   HIS A   1     -12.458  -1.557  -3.498  1.00  0.00     0.163 HD
BRANCH   3   6
HETATM    6  C   UNK A   0      -9.981  -2.014  -2.762  1.00  0.00     0.225 C 
BRANCH   6   7
HETATM    7  N   UNK A   0      -8.843  -1.715  -1.893  1.00  0.00    -0.352 N 
HETATM    8  C   UNK A   0      -7.577  -1.552  -2.407  1.00  0.00     0.217 C 
HETATM    9  O   UNK A   0      -7.347  -1.539  -3.613  1.00  0.00    -0.274 OA
HETATM   10  H   UNK A   0      -8.968  -1.872  -0.900  1.00  0.00     0.162 HD
BRANCH   8  11
HETATM   11  C   UNK A   0      -6.475  -1.353  -1.376  1.00  0.00     0.103 C 
BRANCH  11  12
HETATM   12  C   UNK A   0      -6.320  -2.568  -0.462  1.00  0.00     0.009 C 
BRANCH  12  13
HETATM   13  C   UNK A   0      -5.204  -2.376   0.564  1.00  0.00     0.002 C 
BRANCH  13  14
HETATM   14  C   UNK A   0      -5.085  -3.601   1.489  1.00  0.00     0.017 C 
BRANCH  14  15
HETATM   15  C   UNK A   0      -3.963  -3.445   2.526  1.00  0.00     0.072 C 
HETATM   16  C   UNK A   0      -3.817  -4.655   3.467  1.00  0.00     0.123 C 
HETATM   17  C   UNK A   0      -2.941  -5.746   2.800  1.00  0.00     0.119 C 
HETATM   18  N   UNK A   0      -3.052  -4.307   4.662  1.00  0.00    -0.335 N 
HETATM   19  C   UNK A   0      -2.218  -5.165   1.572  1.00  0.00     0.101 C 
HETATM   20  N   UNK A   0      -1.985  -6.076   3.838  1.00  0.00    -0.336 N 
HETATM   21  S   UNK A   0      -2.340  -3.365   1.701  1.00  0.00    -0.160 SA
HETATM   22  C   UNK A   0      -1.845  -4.983   4.681  1.00  0.00     0.316 C 
HETATM   23  H   UNK A   0      -1.136  -6.595   3.652  1.00  0.00     0.164 HD
HETATM   24  O   UNK A   0      -0.834  -4.644   5.256  1.00  0.00    -0.247 OA
HETATM   25  H   UNK A   0      -3.130  -3.434   5.166  1.00  0.00     0.164 HD
ENDBRANCH  14  15
ENDBRANCH  13  14
ENDBRANCH  12  13
ENDBRANCH  11  12
ENDBRANCH   8  11
ENDBRANCH   6   7
ENDBRANCH   3   6
ENDBRANCH   1   2
BRANCH   1  26
ATOM     26  CB  HIS A   1     -13.884  -1.277  -0.546  1.00  0.00     0.093 C 
BRANCH  26  27
ATOM     27  CG  HIS A   1     -13.722   0.195  -0.706  1.00  0.00     0.028 A 
ATOM     28  CD2 HIS A   1     -14.641   1.201  -0.913  1.00  0.00     0.114 A 
ATOM     29  NE2 HIS A   1     -14.014   2.398  -1.118  1.00  0.00    -0.360 N 
ATOM     30  CE1 HIS A   1     -12.729   2.138  -1.027  1.00  0.00     0.180 A 
ATOM     31  HE2 HIS A   1     -14.451   3.301  -1.302  1.00  0.00     0.166 HD
ATOM     32  ND1 HIS A   1     -12.497   0.826  -0.734  1.00  0.00    -0.354 N 
ATOM     33  HD1 HIS A   1     -11.598   0.388  -0.627  1.00  0.00     0.166 HD
ENDBRANCH  26  27
ENDBRANCH   1  26
BRANCH   1  34
ATOM     34  C   HIS A   1     -14.925  -1.508  -2.875  1.00  0.00     0.241 C 
ATOM     35  O   HIS A   1     -14.653  -1.137  -4.021  1.00  0.00    -0.271 OA
ATOM     36  N   LYS A   2     -16.230  -1.519  -2.406  1.00  0.00    -0.345 N 
ATOM     37  H   LYS A   2     -16.427  -1.844  -1.466  1.00  0.00     0.163 HD
BRANCH  36  38
ATOM     38  CA  LYS A   2     -17.414  -1.020  -3.171  1.00  0.00     0.182 C 
BRANCH  38  39
ATOM     39  CB  LYS A   2     -17.967  -2.133  -4.075  1.00  0.00     0.036 C 
BRANCH  39  40
ATOM     40  CG  LYS A   2     -18.439  -3.346  -3.263  1.00  0.00     0.004 C 
BRANCH  40  41
ATOM     41  CD  LYS A   2     -19.009  -4.465  -4.131  1.00  0.00     0.030 C 
BRANCH  41  42
ATOM     42  CE  LYS A   2     -19.427  -5.636  -3.240  1.00  0.00     0.267 C 
BRANCH  42  43
ATOM     43  NZ  LYS A   2     -19.982  -6.718  -4.034  1.00  0.00     0.078 N 
ATOM     44  HZ1 LYS A   2     -20.824  -6.398  -4.511  1.00  0.00     0.312 HD
ATOM     45  HZ2 LYS A   2     -20.281  -7.470  -3.413  1.00  0.00     0.312 HD
ENDBRANCH  42  43
ENDBRANCH  41  42
ENDBRANCH  40  41
ENDBRANCH  39  40
ENDBRANCH  38  39
BRANCH  38  46
ATOM     46  C   LYS A   2     -18.526  -0.507  -2.212  1.00  0.00     0.163 C 
ATOM     47  O   LYS A   2     -18.397  -0.573  -0.988  1.00  0.00    -0.648 OA
BRANCH  46  48
ATOM     48  OXT LYS A   2     -19.669  -0.020  -2.767  1.00  0.00    -0.775 OA
ATOM     49  HXT LYS A   2     -19.782   0.060  -3.696  1.00  0.00     0.167 HD
ENDBRANCH  46  48
ENDBRANCH  38  46
ENDBRANCH  36  38
ENDBRANCH   1  34
TORSDOF 19
