REMARK  16 active torsions:
REMARK  status: ('A' for Active; 'I' for Inactive)
REMARK    1  A    between atoms: C_1  and  C_2 
REMARK    2  A    between atoms: C_1  and  O_22 
REMARK    3  A    between atoms: C_2  and  C_3 
REMARK    4  A    between atoms: C_2  and  O_21 
REMARK    5  A    between atoms: C_3  and  O_4 
REMARK    6  A    between atoms: O_4  and  C_5 
REMARK    7  A    between atoms: C_6  and  O_15 
REMARK    8  A    between atoms: C_10  and  C_11 
REMARK    9  A    between atoms: C_11  and  C_12 
REMARK   10  A    between atoms: C_11  and  O_14 
REMARK   11  A    between atoms: C_12  and  O_13 
REMARK   12  A    between atoms: O_15  and  C_16 
REMARK   13  A    between atoms: C_16  and  C_17 
REMARK   14  A    between atoms: C_17  and  C_18 
REMARK   15  A    between atoms: C_17  and  O_20 
REMARK   16  A    between atoms: C_18  and  O_19 
ROOT
HETATM    1  C   UNL     1       3.101  -3.645   0.110  1.00  0.00     0.118 C 
HETATM    2  C   UNL     1       4.143  -3.570   0.949  1.00  0.00     0.176 C 
HETATM    3  C   UNL     1       4.503  -4.969   1.279  1.00  0.00     0.320 C 
HETATM    4  O   UNL     1       5.375  -5.344   2.040  1.00  0.00    -0.257 OA
HETATM    5  O   UNL     1       3.706  -5.817   0.571  1.00  0.00    -0.301 OA
HETATM    6  C   UNL     1       2.695  -5.065  -0.115  1.00  0.00     0.222 C 
ENDROOT
BRANCH   1   7
HETATM    7  O   UNL     1       2.526  -2.562  -0.523  1.00  0.00    -0.347 OA
BRANCH   7   8
HETATM    8  C   UNL     1       2.060  -2.837  -1.854  1.00  0.00     0.209 C 
BRANCH   8   9
HETATM    9  C   UNL     1       1.678  -1.560  -2.621  1.00  0.00     0.165 C 
BRANCH   9  10
HETATM   10  C   UNL     1       2.871  -0.680  -3.012  1.00  0.00     0.198 C 
BRANCH  10  11
HETATM   11  O   UNL     1       3.500  -0.111  -1.872  1.00  0.00    -0.398 OA
HETATM   12  H   UNL     1       2.841   0.483  -1.467  1.00  0.00     0.209 HD
ENDBRANCH  10  11
ENDBRANCH   9  10
BRANCH   9  13
HETATM   13  O   UNL     1       0.745  -0.785  -1.860  1.00  0.00    -0.391 OA
HETATM   14  H   UNL     1       1.043  -0.830  -0.932  1.00  0.00     0.210 HD
ENDBRANCH   9  13
ENDBRANCH   8   9
ENDBRANCH   7   8
ENDBRANCH   1   7
BRANCH   2  15
HETATM   15  O   UNL     1       4.768  -2.425   1.365  1.00  0.00    -0.341 OA
BRANCH  15  16
HETATM   16  C   UNL     1       6.144  -2.593   1.746  1.00  0.00     0.209 C 
BRANCH  16  17
HETATM   17  C   UNL     1       6.754  -1.232   2.098  1.00  0.00     0.166 C 
BRANCH  17  18
HETATM   18  C   UNL     1       6.654  -0.218   0.958  1.00  0.00     0.198 C 
BRANCH  18  19
HETATM   19  O   UNL     1       7.250   1.014   1.366  1.00  0.00    -0.398 OA
HETATM   20  H   UNL     1       6.923   1.174   2.273  1.00  0.00     0.209 HD
ENDBRANCH  18  19
ENDBRANCH  17  18
BRANCH  17  21
HETATM   21  O   UNL     1       6.089  -0.672   3.247  1.00  0.00    -0.391 OA
HETATM   22  H   UNL     1       5.132  -0.772   3.087  1.00  0.00     0.210 HD
ENDBRANCH  17  21
ENDBRANCH  16  17
ENDBRANCH  15  16
ENDBRANCH   2  15
BRANCH   6  23
HETATM   23  C   UNL     1       1.327  -5.486   0.457  1.00  0.00     0.177 C 
BRANCH  23  24
HETATM   24  C   UNL     1       1.035  -6.959   0.125  1.00  0.00     0.198 C 
BRANCH  24  25
HETATM   25  O   UNL     1      -0.253  -7.322   0.617  1.00  0.00    -0.398 OA
HETATM   26  H   UNL     1      -0.327  -6.935   1.512  1.00  0.00     0.209 HD
ENDBRANCH  24  25
ENDBRANCH  23  24
BRANCH  23  27
HETATM   27  O   UNL     1       1.284  -5.352   1.891  1.00  0.00    -0.390 OA
HETATM   28  H   UNL     1       1.973  -5.934   2.265  1.00  0.00     0.210 HD
ENDBRANCH  23  27
ENDBRANCH   6  23
TORSDOF 16
