REMARK  20 active torsions:
REMARK  status: ('A' for Active; 'I' for Inactive)
REMARK    1  A    between atoms: C_2  and  C_3 
REMARK    2  A    between atoms: C_3  and  C_4 
REMARK    3  A    between atoms: C_4  and  C_5 
REMARK    4  A    between atoms: C_5  and  C_6 
REMARK    5  A    between atoms: C_5  and  C_8 
REMARK    6  A    between atoms: C_8  and  O_9 
REMARK    7  A    between atoms: O_9  and  C_10 
REMARK    8  A    between atoms: C_12  and  O_49 
REMARK    9  A    between atoms: C_13  and  C_16 
REMARK   10  A    between atoms: C_19  and  C_33 
REMARK   11  A    between atoms: C_22  and  C_25 
REMARK   12  A    between atoms: C_28  and  O_31 
REMARK   13  A    between atoms: C_34  and  O_48 
REMARK   14  A    between atoms: C_36  and  O_39 
REMARK   15  A    between atoms: O_39  and  C_40 
REMARK   16  A    between atoms: C_40  and  C_41 
REMARK   17  A    between atoms: C_41  and  C_42 
REMARK   18  A    between atoms: C_41  and  C_44 
REMARK   19  A    between atoms: C_44  and  C_45 
REMARK   20  A    between atoms: C_45  and  C_46 
ROOT
HETATM    1  C   UNL     1       8.122   4.796   7.061  1.00  0.00     0.121 A 
HETATM    2  N   UNL     1       7.157   5.647   7.376  1.00  0.00    -0.327 N 
ATOM      3  HN  UNL     1       6.173   5.448   7.196  1.00  0.00     0.169 HD
HETATM    4  C   UNL     1       7.561   6.777   7.943  1.00  0.00     0.121 A 
HETATM    5  N   UNL     1       8.826   7.070   8.228  1.00  0.00    -0.327 N 
ATOM      6  HN  UNL     1       9.098   7.951   8.665  1.00  0.00     0.169 HD
HETATM    7  C   UNL     1       9.713   6.132   7.903  1.00  0.00     0.118 A 
HETATM    8  N   UNL     1       9.413   4.976   7.325  1.00  0.00    -0.327 N 
ATOM      9  HN  UNL     1      10.121   4.277   7.100  1.00  0.00     0.169 HD
ENDROOT
BRANCH   1  10
HETATM   10  C   UNL     1       7.754   3.580   6.324  1.00  0.00     0.041 A 
HETATM   11  C   UNL     1       6.649   3.456   5.450  1.00  0.00     0.082 A 
HETATM   12  C   UNL     1       6.419   2.278   4.725  1.00  0.00     0.074 A 
HETATM   13  C   UNL     1       7.283   1.189   4.865  1.00  0.00     0.071 A 
HETATM   14  C   UNL     1       8.348   1.283   5.755  1.00  0.00     0.038 A 
HETATM   15  C   UNL     1       8.583   2.455   6.461  1.00  0.00     0.021 A 
BRANCH  11  16
HETATM   16  O   UNL     1       5.779   4.507   5.262  1.00  0.00    -0.360 OA
HETATM   17  H   UNL     1       5.095   4.250   4.624  1.00  0.00     0.217 HD
ENDBRANCH  11  16
BRANCH  13  18
HETATM   18  O   UNL     1       7.012   0.079   4.097  1.00  0.00    -0.351 OA
BRANCH  18  19
HETATM   19  C   UNL     1       7.952  -0.982   4.289  1.00  0.00     0.180 C 
BRANCH  19  20
HETATM   20  C   UNL     1       7.677  -2.169   3.367  1.00  0.00     0.009 C 
BRANCH  20  21
HETATM   21  C   UNL     1       7.768  -1.736   1.888  1.00  0.00     0.007 C 
BRANCH  21  22
HETATM   22  C   UNL     1       7.447  -2.886   0.938  1.00  0.00     0.000 C 
BRANCH  22  23
HETATM   23  C   UNL     1       7.475  -2.470  -0.529  1.00  0.00    -0.005 C 
HETATM   24  C   UNL     1       7.113  -3.662  -1.403  1.00  0.00     0.005 C 
ENDBRANCH  22  23
ENDBRANCH  21  22
ENDBRANCH  20  21
BRANCH  20  25
HETATM   25  C   UNL     1       8.604  -3.350   3.748  1.00  0.00     0.002 C 
HETATM   26  C   UNL     1      10.102  -3.093   3.608  1.00  0.00     0.005 C 
ENDBRANCH  20  25
ENDBRANCH  19  20
ENDBRANCH  18  19
ENDBRANCH  13  18
ENDBRANCH   1  10
BRANCH   4  27
HETATM   27  C   UNL     1       6.523   7.762   8.266  1.00  0.00     0.041 A 
HETATM   28  C   UNL     1       5.150   7.516   8.065  1.00  0.00     0.082 A 
HETATM   29  C   UNL     1       4.181   8.447   8.429  1.00  0.00     0.074 A 
HETATM   30  C   UNL     1       4.563   9.659   8.994  1.00  0.00     0.071 A 
HETATM   31  C   UNL     1       5.911   9.956   9.155  1.00  0.00     0.038 A 
HETATM   32  C   UNL     1       6.878   9.015   8.803  1.00  0.00     0.021 A 
BRANCH  28  33
HETATM   33  O   UNL     1       4.656   6.367   7.500  1.00  0.00    -0.360 OA
HETATM   34  H   UNL     1       5.415   5.830   7.178  1.00  0.00     0.217 HD
ENDBRANCH  28  33
BRANCH  30  35
HETATM   35  O   UNL     1       3.691  10.638   9.377  1.00  0.00    -0.351 OA
BRANCH  35  36
HETATM   36  C   UNL     1       2.489  10.140   9.966  1.00  0.00     0.180 C 
BRANCH  36  37
HETATM   37  C   UNL     1       1.657  11.324  10.484  1.00  0.00     0.009 C 
BRANCH  37  38
HETATM   38  C   UNL     1       1.394  12.366   9.371  1.00  0.00     0.002 C 
HETATM   39  C   UNL     1       0.580  11.858   8.187  1.00  0.00     0.005 C 
ENDBRANCH  37  38
BRANCH  37  40
HETATM   40  C   UNL     1       0.350  10.843  11.146  1.00  0.00     0.007 C 
BRANCH  40  41
HETATM   41  C   UNL     1       0.598   9.934  12.356  1.00  0.00     0.000 C 
BRANCH  41  42
HETATM   42  C   UNL     1      -0.702   9.456  12.995  1.00  0.00    -0.005 C 
HETATM   43  C   UNL     1      -0.412   8.525  14.162  1.00  0.00     0.005 C 
ENDBRANCH  41  42
ENDBRANCH  40  41
ENDBRANCH  37  40
ENDBRANCH  36  37
ENDBRANCH  35  36
ENDBRANCH  30  35
ENDBRANCH   4  27
BRANCH   7  44
HETATM   44  C   UNL     1      11.129   6.396   8.190  1.00  0.00     0.008 A 
HETATM   45  C   UNL     1      11.535   7.611   8.769  1.00  0.00     0.018 A 
HETATM   46  C   UNL     1      12.878   7.872   9.048  1.00  0.00     0.037 A 
HETATM   47  C   UNL     1      13.852   6.920   8.755  1.00  0.00     0.068 A 
HETATM   48  C   UNL     1      13.472   5.711   8.176  1.00  0.00     0.037 A 
HETATM   49  C   UNL     1      12.129   5.452   7.895  1.00  0.00     0.018 A 
BRANCH  47  50
HETATM   50  O   UNL     1      15.192   7.051   8.984  1.00  0.00    -0.356 OA
HETATM   51  C   UNL     1      15.611   8.277   9.568  1.00  0.00     0.210 C 
ENDBRANCH  47  50
ENDBRANCH   7  44
TORSDOF 20
