REMARK  1 active torsions:
REMARK  status: ('A' for Active; 'I' for Inactive)
REMARK    1  A    between atoms: C_7  and  O_9 
ROOT
HETATM    1  C   UNL     1       0.819  -0.022   0.129  1.00  0.00     0.016 C 
HETATM    2  C   UNL     1       2.364  -0.011   0.150  1.00  0.00    -0.034 C 
HETATM    3  C   UNL     1       3.023  -1.102  -0.732  1.00  0.00    -0.004 C 
HETATM    4  C   UNL     1       2.551  -0.741  -2.158  1.00  0.00     0.006 C 
HETATM    5  C   UNL     1       2.527   0.798  -2.133  1.00  0.00     0.013 C 
HETATM    6  C   UNL     1       3.023   1.131  -0.693  1.00  0.00    -0.011 C 
HETATM    7  C   UNL     1       4.543   0.777  -0.708  1.00  0.00     0.127 C 
HETATM    8  C   UNL     1       4.534  -0.762  -0.660  1.00  0.00     0.038 C 
HETATM    9  C   UNL     1       2.706   2.555  -0.278  1.00  0.00     0.018 C 
HETATM   10  C   UNL     1       2.755  -0.096   1.638  1.00  0.00     0.016 C 
ENDROOT
BRANCH   7  11
HETATM   11  O   UNL     1       5.301   1.335   0.352  1.00  0.00    -0.395 OA
HETATM   12  H   UNL     1       4.787   1.303   1.172  1.00  0.00     0.210 HD
ENDBRANCH   7  11
TORSDOF 1
