REMARK  19 active torsions:
REMARK  status: ('A' for Active; 'I' for Inactive)
REMARK    1  A    between atoms: C_2  and  C_3 
REMARK    2  A    between atoms: C_3  and  C_4 
REMARK    3  A    between atoms: C_4  and  C_5 
REMARK    4  A    between atoms: C_5  and  C_6 
REMARK    5  A    between atoms: C_6  and  C_7 
REMARK    6  A    between atoms: C_7  and  C_8 
REMARK    7  A    between atoms: C_8  and  C_9 
REMARK    8  A    between atoms: C_10  and  C_11 
REMARK    9  A    between atoms: C_11  and  C_12 
REMARK   10  A    between atoms: C_12  and  C_13 
REMARK   11  A    between atoms: C_13  and  C_14 
REMARK   12  A    between atoms: C_14  and  C_15 
REMARK   13  A    between atoms: C_15  and  C_16 
REMARK   14  A    between atoms: C_16  and  C_17 
REMARK   15  A    between atoms: C_17  and  C_18 
REMARK   16  A    between atoms: C_18  and  O_20 
REMARK   17  A    between atoms: O_20  and  C_21 
REMARK   18  A    between atoms: C_21  and  C_22 
REMARK   19  A    between atoms: C_22  and  C_23 
ROOT
HETATM    1  C   UNL     1      12.511  -4.560  -5.934  1.00  0.00     0.004 C 
ENDROOT
BRANCH   1   2
HETATM    2  C   UNL     1      10.989  -4.553  -5.922  1.00  0.00     0.027 C 
BRANCH   2   3
HETATM    3  C   UNL     1      10.476  -3.689  -4.819  1.00  0.00    -0.031 C 
HETATM    4  C   UNL     1       9.703  -2.620  -5.048  1.00  0.00    -0.031 C 
BRANCH   4   5
HETATM    5  C   UNL     1       9.189  -1.756  -3.944  1.00  0.00     0.027 C 
BRANCH   5   6
HETATM    6  C   UNL     1       7.668  -1.750  -3.935  1.00  0.00     0.004 C 
BRANCH   6   7
HETATM    7  C   UNL     1       7.153  -0.871  -2.804  1.00  0.00     0.000 C 
BRANCH   7   8
HETATM    8  C   UNL     1       5.633  -0.863  -2.794  1.00  0.00     0.000 C 
BRANCH   8   9
HETATM    9  C   UNL     1       5.117   0.016  -1.664  1.00  0.00     0.000 C 
BRANCH   9  10
HETATM   10  C   UNL     1       3.596   0.026  -1.653  1.00  0.00    -0.000 C 
BRANCH  10  11
HETATM   11  C   UNL     1       3.071   0.904  -0.524  1.00  0.00    -0.005 C 
HETATM   12  C   UNL     1       1.554   0.909  -0.515  1.00  0.00     0.005 C 
ENDBRANCH  10  11
ENDBRANCH   9  10
ENDBRANCH   8   9
ENDBRANCH   7   8
ENDBRANCH   6   7
ENDBRANCH   5   6
ENDBRANCH   4   5
ENDBRANCH   2   3
ENDBRANCH   1   2
BRANCH   1  13
HETATM   13  C   UNL     1      13.026  -5.443  -7.065  1.00  0.00     0.000 C 
BRANCH  13  14
HETATM   14  C   UNL     1      14.548  -5.455  -7.084  1.00  0.00     0.000 C 
BRANCH  14  15
HETATM   15  C   UNL     1      15.069  -6.340  -8.214  1.00  0.00     0.000 C 
BRANCH  15  16
HETATM   16  C   UNL     1      16.593  -6.345  -8.222  1.00  0.00     0.010 C 
BRANCH  16  17
HETATM   17  C   UNL     1      17.167  -7.226  -9.328  1.00  0.00     0.111 C 
BRANCH  17  18
HETATM   18  C   UNL     1      18.682  -7.196  -9.285  1.00  0.00     0.258 C 
HETATM   19  O   UNL     1      19.353  -6.540  -8.514  1.00  0.00    -0.265 OA
BRANCH  18  20
HETATM   20  O   UNL     1      19.183  -7.941 -10.316  1.00  0.00    -0.321 OA
BRANCH  20  21
HETATM   21  C   UNL     1      20.059  -7.204 -11.176  1.00  0.00     0.178 C 
BRANCH  21  22
HETATM   22  C   UNL     1      21.475  -7.766 -11.163  1.00  0.00     0.026 C 
BRANCH  22  23
HETATM   23  C   UNL     1      22.390  -6.993 -12.118  1.00  0.00    -0.002 C 
HETATM   24  C   UNL     1      23.807  -7.542 -12.095  1.00  0.00     0.005 C 
ENDBRANCH  22  23
ENDBRANCH  21  22
ENDBRANCH  20  21
ENDBRANCH  18  20
ENDBRANCH  17  18
ENDBRANCH  16  17
ENDBRANCH  15  16
ENDBRANCH  14  15
ENDBRANCH  13  14
ENDBRANCH   1  13
TORSDOF 19
