REMARK  4 active torsions:
REMARK  status: ('A' for Active; 'I' for Inactive)
REMARK    1  A    between atoms: C_2  and  C_3 
REMARK    2  A    between atoms: C_2  and  O_6 
REMARK    3  A    between atoms: C_3  and  C_4 
REMARK    4  A    between atoms: C_4  and  O_5 
ROOT
HETATM    1  C   UNL     1       1.042   0.023  -0.047  1.00  0.00     0.039 C 
HETATM    2  C   UNL     1       2.562  -0.066  -0.043  1.00  0.00     0.116 C 
ENDROOT
BRANCH   2   3
HETATM    3  C   UNL     1       3.050  -1.456  -0.451  1.00  0.00     0.057 C 
BRANCH   3   4
HETATM    4  C   UNL     1       4.569  -1.559  -0.434  1.00  0.00     0.166 C 
BRANCH   4   5
HETATM    5  O   UNL     1       4.962  -2.871  -0.826  1.00  0.00    -0.401 OA
HETATM    6  H   UNL     1       4.646  -3.487  -0.144  1.00  0.00     0.209 HD
ENDBRANCH   4   5
ENDBRANCH   3   4
ENDBRANCH   2   3
BRANCH   2   7
HETATM    7  O   UNL     1       3.078   0.915  -0.939  1.00  0.00    -0.396 OA
HETATM    8  H   UNL     1       2.739   0.719  -1.830  1.00  0.00     0.210 HD
ENDBRANCH   2   7
TORSDOF 4
