REMARK  6 active torsions:
REMARK  status: ('A' for Active; 'I' for Inactive)
REMARK    1  A    between atoms: C_2  and  C_3 
REMARK    2  A    between atoms: C_3  and  C_4 
REMARK    3  A    between atoms: C_4  and  O_5 
REMARK    4  A    between atoms: O_5  and  C_6 
REMARK    5  A    between atoms: C_6  and  C_8 
REMARK    6  A    between atoms: C_11  and  O_14 
ROOT
HETATM    1  C   UNL     1       6.859  -1.140   4.348  1.00  0.00     0.039 A 
HETATM    2  C   UNL     1       8.195  -1.028   4.778  1.00  0.00     0.020 A 
HETATM    3  C   UNL     1       8.528  -1.342   6.098  1.00  0.00     0.037 A 
HETATM    4  C   UNL     1       7.535  -1.767   6.979  1.00  0.00     0.065 A 
HETATM    5  C   UNL     1       6.216  -1.878   6.567  1.00  0.00     0.037 A 
HETATM    6  C   UNL     1       5.879  -1.561   5.255  1.00  0.00     0.020 A 
ENDROOT
BRANCH   1   7
HETATM    7  C   UNL     1       6.489  -0.731   2.966  1.00  0.00     0.293 C 
HETATM    8  O   UNL     1       7.263  -0.272   2.143  1.00  0.00    -0.259 OA
BRANCH   7   9
HETATM    9  O   UNL     1       5.143  -0.825   2.818  1.00  0.00    -0.318 OA
BRANCH   9  10
HETATM   10  C   UNL     1       4.511   0.415   2.493  1.00  0.00     0.179 C 
BRANCH  10  11
HETATM   11  C   UNL     1       3.791   0.307   1.159  1.00  0.00     0.026 C 
BRANCH  11  12
HETATM   12  C   UNL     1       3.082   1.615   0.819  1.00  0.00    -0.002 C 
HETATM   13  C   UNL     1       2.376   1.538  -0.523  1.00  0.00     0.005 C 
ENDBRANCH  11  12
ENDBRANCH  10  11
ENDBRANCH   9  10
ENDBRANCH   7   9
ENDBRANCH   1   7
BRANCH   4  14
HETATM   14  O   UNL     1       7.812  -2.082   8.276  1.00  0.00    -0.361 OA
HETATM   15  H   UNL     1       8.761  -1.960   8.435  1.00  0.00     0.217 HD
ENDBRANCH   4  14
TORSDOF 6
