REMARK  8 active torsions:
REMARK  status: ('A' for Active; 'I' for Inactive)
REMARK    1  A    between atoms: C_2  and  C_3 
REMARK    2  A    between atoms: C_3  and  C_4 
REMARK    3  A    between atoms: C_4  and  C_5 
REMARK    4  A    between atoms: C_5  and  C_6 
REMARK    5  A    between atoms: C_8  and  O_23 
REMARK    6  A    between atoms: C_9  and  C_13 
REMARK    7  A    between atoms: C_10  and  O_12 
REMARK    8  A    between atoms: C_18  and  C_19 
ROOT
HETATM    1  C   UNL     1       6.430  -1.787   2.260  1.00  0.00    -0.053 A 
HETATM    2  C   UNL     1       7.175  -1.749   1.083  1.00  0.00     0.044 A 
HETATM    3  C   UNL     1       8.569  -1.762   1.127  1.00  0.00     0.075 A 
HETATM    4  C   UNL     1       9.278  -1.826   2.341  1.00  0.00     0.017 A 
HETATM    5  C   UNL     1       8.503  -1.903   3.513  1.00  0.00     0.075 A 
HETATM    6  C   UNL     1       7.106  -1.867   3.478  1.00  0.00     0.044 A 
ENDROOT
BRANCH   4   7
HETATM    7  C   UNL     1      10.805  -1.720   2.398  1.00  0.00     0.055 C 
HETATM    8  C   UNL     1      11.258  -0.412   1.788  1.00  0.00    -0.014 C 
HETATM    9  C   UNL     1      11.953  -0.318   0.644  1.00  0.00    -0.087 C 
HETATM   10  C   UNL     1      12.410  -1.524  -0.133  1.00  0.00     0.034 C 
HETATM   11  C   UNL     1      12.252   1.022   0.029  1.00  0.00     0.043 C 
HETATM   12  C   UNL     1      11.886  -2.885   0.349  1.00  0.00     0.014 C 
HETATM   13  C   UNL     1      11.610  -2.950   1.866  1.00  0.00     0.026 C 
BRANCH  13  14
HETATM   14  C   UNL     1      11.060  -4.293   2.364  1.00  0.00    -0.088 C 
HETATM   15  C   UNL     1      10.268  -5.101   1.643  1.00  0.00     0.014 C 
HETATM   16  C   UNL     1      11.444  -4.710   3.759  1.00  0.00     0.043 C 
ENDBRANCH  13  14
ENDBRANCH   4   7
BRANCH   3  17
HETATM   17  O   UNL     1       9.234  -1.673  -0.061  1.00  0.00    -0.360 OA
HETATM   18  H   UNL     1       8.598  -1.660  -0.793  1.00  0.00     0.217 HD
ENDBRANCH   3  17
BRANCH   5  19
HETATM   19  O   UNL     1       9.044  -2.006   4.766  1.00  0.00    -0.360 OA
HETATM   20  H   UNL     1       9.856  -2.531   4.697  1.00  0.00     0.217 HD
ENDBRANCH   5  19
BRANCH   1  21
HETATM   21  C   UNL     1       4.929  -1.715   2.206  1.00  0.00     0.039 C 
BRANCH  21  22
HETATM   22  C   UNL     1       4.316  -2.933   1.514  1.00  0.00     0.005 C 
BRANCH  22  23
HETATM   23  C   UNL     1       2.793  -2.836   1.501  1.00  0.00    -0.000 C 
BRANCH  23  24
HETATM   24  C   UNL     1       2.170  -4.040   0.798  1.00  0.00    -0.005 C 
HETATM   25  C   UNL     1       0.654  -3.946   0.791  1.00  0.00     0.005 C 
ENDBRANCH  23  24
ENDBRANCH  22  23
ENDBRANCH  21  22
ENDBRANCH   1  21
TORSDOF 8
