REMARK  11 active torsions:
REMARK  status: ('A' for Active; 'I' for Inactive)
REMARK    1  A    between atoms: C_2  and  C_3 
REMARK    2  A    between atoms: C_3  and  C_4 
REMARK    3  A    between atoms: C_4  and  C_5 
REMARK    4  A    between atoms: C_5  and  C_6 
REMARK    5  A    between atoms: C_6  and  C_7 
REMARK    6  A    between atoms: C_7  and  C_8 
REMARK    7  A    between atoms: C_8  and  SI_9 
REMARK    8  A    between atoms: SI_9  and  O_11 
REMARK    9  A    between atoms: SI_9  and  O_16 
REMARK   10  A    between atoms: O_11  and  SI_12 
REMARK   11  A    between atoms: O_16  and  SI_17 
ROOT
HETATM    1 SI   UNL     1       9.196   3.065   5.100  1.00  0.00     0.000 Si
HETATM    2  C   UNL     1       8.564   4.840   4.938  1.00  0.00    -0.000 C 
ENDROOT
BRANCH   1   3
HETATM    3  C   UNL     1       8.803   2.208   3.388  1.00  0.00     0.000 C 
BRANCH   3   4
HETATM    4  C   UNL     1       7.301   2.270   3.109  1.00  0.00     0.000 C 
BRANCH   4   5
HETATM    5  C   UNL     1       6.841   1.667   1.785  1.00  0.00     0.000 C 
BRANCH   5   6
HETATM    6  C   UNL     1       5.327   1.885   1.695  1.00  0.00     0.000 C 
BRANCH   6   7
HETATM    7  C   UNL     1       4.693   1.331   0.426  1.00  0.00     0.000 C 
BRANCH   7   8
HETATM    8  C   UNL     1       3.186   1.594   0.450  1.00  0.00    -0.000 C 
BRANCH   8   9
HETATM    9  C   UNL     1       2.497   1.047  -0.797  1.00  0.00    -0.005 C 
HETATM   10  C   UNL     1       1.000   1.314  -0.771  1.00  0.00     0.005 C 
ENDBRANCH   8   9
ENDBRANCH   7   8
ENDBRANCH   6   7
ENDBRANCH   5   6
ENDBRANCH   4   5
ENDBRANCH   3   4
ENDBRANCH   1   3
BRANCH   1  11
HETATM   11  O   UNL     1       8.371   2.266   6.313  1.00  0.00     0.000 OA
BRANCH  11  12
HETATM   12 SI   UNL     1       8.190   0.761   7.017  1.00  0.00     0.000 Si
HETATM   13  C   UNL     1       9.803   0.188   7.787  1.00  0.00    -0.000 C 
HETATM   14  C   UNL     1       6.883   0.813   8.380  1.00  0.00    -0.000 C 
HETATM   15  C   UNL     1       7.607  -0.544   5.788  1.00  0.00    -0.000 C 
ENDBRANCH  11  12
ENDBRANCH   1  11
BRANCH   1  16
HETATM   16  O   UNL     1      10.832   3.072   5.437  1.00  0.00     0.000 OA
BRANCH  16  17
HETATM   17 SI   UNL     1      12.254   3.714   4.825  1.00  0.00     0.000 Si
HETATM   18  C   UNL     1      13.712   3.342   5.952  1.00  0.00    -0.000 C 
HETATM   19  C   UNL     1      12.595   2.979   3.129  1.00  0.00    -0.000 C 
HETATM   20  C   UNL     1      12.172   5.589   4.652  1.00  0.00    -0.000 C 
ENDBRANCH  16  17
ENDBRANCH   1  16
TORSDOF 11
