REMARK  10 active torsions:
REMARK  status: ('A' for Active; 'I' for Inactive)
REMARK    1  A    between atoms: C_2  and  C_4 
REMARK    2  A    between atoms: C_5  and  C_6 
REMARK    3  A    between atoms: C_6  and  C_7 
REMARK    4  A    between atoms: C_7  and  C_8 
REMARK    5  A    between atoms: C_8  and  C_9 
REMARK    6  A    between atoms: C_9  and  C_10 
REMARK       I    between atoms: C_10  and  N_12 
REMARK    7  A    between atoms: N_12  and  C_13 
REMARK    8  A    between atoms: C_13  and  C_14 
REMARK    9  A    between atoms: C_16  and  O_21 
REMARK   10  A    between atoms: C_17  and  O_20 
ROOT
HETATM    1  C   UNL     1       8.986   3.566  -4.833  1.00  0.00     0.217 C 
HETATM    2  O   UNL     1       9.704   3.095  -5.714  1.00  0.00    -0.274 OA
HETATM    3  N   UNL     1       8.600   4.888  -4.792  1.00  0.00    -0.357 N 
HETATM    4  H   UNL     1       7.928   5.204  -4.112  1.00  0.00     0.162 HD
ENDROOT
BRANCH   3   5
HETATM    5  C   UNL     1       9.007   5.794  -5.841  1.00  0.00     0.161 C 
BRANCH   5   6
HETATM    6  C   UNL     1       8.013   5.843  -6.971  1.00  0.00    -0.038 A 
HETATM    7  C   UNL     1       8.124   4.988  -8.081  1.00  0.00     0.048 A 
HETATM    8  C   UNL     1       7.203   5.014  -9.151  1.00  0.00     0.101 A 
HETATM    9  C   UNL     1       6.145   5.924  -9.077  1.00  0.00     0.099 A 
HETATM   10  C   UNL     1       6.020   6.770  -7.971  1.00  0.00     0.040 A 
HETATM   11  C   UNL     1       6.939   6.733  -6.924  1.00  0.00     0.012 A 
BRANCH   8  12
HETATM   12  O   UNL     1       7.527   4.105 -10.116  1.00  0.00    -0.353 OA
HETATM   13  C   UNL     1       6.737   3.958 -11.277  1.00  0.00     0.210 C 
ENDBRANCH   8  12
BRANCH   9  14
HETATM   14  O   UNL     1       5.153   6.121  -9.995  1.00  0.00    -0.358 OA
HETATM   15  H   UNL     1       5.151   5.426 -10.657  1.00  0.00     0.217 HD
ENDBRANCH   9  14
ENDBRANCH   5   6
ENDBRANCH   3   5
BRANCH   1  16
HETATM   16  C   UNL     1       8.499   2.727  -3.674  1.00  0.00     0.103 C 
BRANCH  16  17
HETATM   17  C   UNL     1       6.976   2.686  -3.620  1.00  0.00     0.010 C 
BRANCH  17  18
HETATM   18  C   UNL     1       6.463   1.834  -2.461  1.00  0.00     0.004 C 
BRANCH  18  19
HETATM   19  C   UNL     1       4.933   1.831  -2.439  1.00  0.00     0.027 C 
BRANCH  19  20
HETATM   20  C   UNL     1       4.396   1.000  -1.312  1.00  0.00    -0.030 C 
HETATM   21  C   UNL     1       3.614   1.488  -0.335  1.00  0.00    -0.027 C 
BRANCH  21  22
HETATM   22  C   UNL     1       3.050   0.643   0.781  1.00  0.00    -0.001 C 
HETATM   23  C   UNL     1       3.531   1.153   2.139  1.00  0.00     0.013 C 
HETATM   24  C   UNL     1       1.521   0.632   0.736  1.00  0.00     0.013 C 
ENDBRANCH  21  22
ENDBRANCH  19  20
ENDBRANCH  18  19
ENDBRANCH  17  18
ENDBRANCH  16  17
ENDBRANCH   1  16
TORSDOF 10
