REMARK  0 active torsions:
REMARK  status: ('A' for Active; 'I' for Inactive)
ROOT
HETATM    1  C   UNL     1       0.969  -0.005   0.097  1.00  0.00     0.018 C 
HETATM    2  C   UNL     1       2.485  -0.076   0.086  1.00  0.00     0.060 C 
HETATM    3  C   UNL     1       3.023  -1.319   0.814  1.00  0.00     0.024 C 
HETATM    4  C   UNL     1       4.323  -0.953   1.558  1.00  0.00     0.060 C 
HETATM    5  C   UNL     1       4.358   0.550   1.524  1.00  0.00     0.199 C 
HETATM    6  O   UNL     1       5.241   1.267   1.953  1.00  0.00    -0.289 OA
HETATM    7  C   UNL     1       3.127   1.063   0.825  1.00  0.00     0.199 C 
HETATM    8  O   UNL     1       2.763   2.221   0.854  1.00  0.00    -0.289 OA
HETATM    9  C   UNL     1       5.563  -1.572   0.939  1.00  0.00     0.018 C 
ENDROOT
TORSDOF 0
