REMARK  8 active torsions:
REMARK  status: ('A' for Active; 'I' for Inactive)
REMARK    1  A    between atoms: C_1  and  C_2 
REMARK    2  A    between atoms: C_1  and  S_7 
REMARK    3  A    between atoms: C_2  and  C_3 
REMARK    4  A    between atoms: C_2  and  N_6 
REMARK    5  A    between atoms: C_3  and  O_5 
REMARK    6  A    between atoms: S_7  and  C_8 
REMARK    7  A    between atoms: C_8  and  C_9 
REMARK    8  A    between atoms: C_9  and  O_11 
ROOT
HETATM    1  C   UNK     1       0.612  -1.315  -0.833  1.00  0.00     0.323 C 
ENDROOT
BRANCH   1   2
HETATM    2  C   UNK     1       1.230  -0.101  -0.116  1.00  0.00     0.120 C 
BRANCH   2   3
HETATM    3  S   UNK     1       3.060  -0.058  -0.310  1.00  0.00    -0.156 SA
BRANCH   3   4
HETATM    4  C   UNK     1       3.421   1.486   0.602  1.00  0.00     0.183 C 
BRANCH   4   5
HETATM    5  C   UNK     1       3.185   1.320   2.089  1.00  0.00     0.149 C 
HETATM    6  O   UNK     1       2.884   2.239   2.835  1.00  0.00    -0.649 OA
BRANCH   5   7
HETATM    7  O   UNK     1       3.382   0.057   2.543  1.00  0.00    -0.776 OA
HETATM    8  H   UNK     1       3.634  -0.535   1.801  1.00  0.00     0.167 HD
ENDBRANCH   5   7
ENDBRANCH   4   5
ENDBRANCH   3   4
ENDBRANCH   2   3
ENDBRANCH   1   2
BRANCH   1   9
HETATM    9  C   UNK     1      -0.887  -1.355  -0.503  1.00  0.00     0.174 C 
HETATM   10  O   UNK     1      -1.745  -0.791  -1.168  1.00  0.00    -0.648 OA
BRANCH   9  11
HETATM   11  O   UNK     1      -1.188  -2.068   0.606  1.00  0.00    -0.775 OA
HETATM   12  H   UNK     1      -0.436  -2.512   1.041  1.00  0.00     0.167 HD
ENDBRANCH   9  11
ENDBRANCH   1   9
BRANCH   1  13
HETATM   13  N   UNK     1       0.792  -1.255  -2.302  1.00  0.00     0.093 N 
HETATM   14  H   UNK     1       0.255  -0.458  -2.657  1.00  0.00     0.314 HD
HETATM   15  H   UNK     1       0.341  -2.067  -2.727  1.00  0.00     0.314 HD
ENDBRANCH   1  13
TORSDOF 8
