REMARK  18 active torsions:
REMARK  status: ('A' for Active; 'I' for Inactive)
REMARK       I    between atoms: C_2  and  N_4 
REMARK    1  A    between atoms: N_4  and  C_5 
REMARK    2  A    between atoms: C_6  and  O_37 
REMARK    3  A    between atoms: C_7  and  O_25 
REMARK    4  A    between atoms: C_8  and  C_23 
REMARK    5  A    between atoms: C_10  and  O_11 
REMARK    6  A    between atoms: O_11  and  C_12 
REMARK    7  A    between atoms: C_13  and  C_21 
REMARK    8  A    between atoms: C_15  and  O_20 
REMARK    9  A    between atoms: C_16  and  N_19 
REMARK   10  A    between atoms: C_17  and  O_18 
REMARK   11  A    between atoms: C_21  and  O_22 
REMARK   12  A    between atoms: C_23  and  O_24 
REMARK   13  A    between atoms: O_25  and  C_26 
REMARK   14  A    between atoms: C_27  and  N_36 
REMARK   15  A    between atoms: C_28  and  O_35 
REMARK   16  A    between atoms: C_29  and  O_34 
REMARK   17  A    between atoms: C_30  and  C_32 
REMARK   18  A    between atoms: C_32  and  O_33 
ROOT
HETATM    1  C   UNL     1       5.177   0.455   0.589  1.00  0.00     0.170 C 
HETATM    2  C   UNL     1       5.788   1.861   0.414  1.00  0.00     0.177 C 
HETATM    3  C   UNL     1       7.309   1.693   0.361  1.00  0.00     0.186 C 
HETATM    4  C   UNL     1       7.595   0.697  -0.831  1.00  0.00     0.180 C 
HETATM    5  O   UNL     1       6.712  -0.448  -1.045  1.00  0.00    -0.349 OA
HETATM    6  C   UNL     1       5.307  -0.354  -0.736  1.00  0.00     0.286 C 
ENDROOT
BRANCH   3   7
HETATM    7  O   UNL     1       7.683   1.413   1.748  1.00  0.00    -0.348 OA
BRANCH   7   8
HETATM    8  C   UNL     1       9.065   1.371   2.153  1.00  0.00     0.296 C 
HETATM    9  C   UNL     1       9.303   1.267   3.725  1.00  0.00     0.303 C 
HETATM   10  C   UNL     1       9.444   2.619   4.471  1.00  0.00     0.187 C 
HETATM   11  C   UNL     1      10.279   3.650   3.709  1.00  0.00     0.180 C 
HETATM   12  C   UNL     1      10.113   3.622   2.179  1.00  0.00     0.179 C 
HETATM   13  O   UNL     1       9.896   2.354   1.551  1.00  0.00    -0.349 OA
BRANCH   9  14
HETATM   14  N   UNL     1       8.365   0.380   4.455  1.00  0.00     0.090 N 
HETATM   15  H   UNL     1       7.420   0.690   4.217  1.00  0.00     0.313 HD
HETATM   16  H   UNL     1       8.427   0.602   5.454  1.00  0.00     0.313 HD
ENDBRANCH   9  14
BRANCH  10  17
HETATM   17  O   UNL     1       8.160   3.142   4.834  1.00  0.00    -0.391 OA
HETATM   18  H   UNL     1       8.311   4.002   5.275  1.00  0.00     0.210 HD
ENDBRANCH  10  17
BRANCH  11  19
HETATM   19  O   UNL     1      11.668   3.483   4.059  1.00  0.00    -0.390 OA
HETATM   20  H   UNL     1      11.976   2.616   3.748  1.00  0.00     0.210 HD
ENDBRANCH  11  19
BRANCH  12  21
HETATM   21  C   UNL     1       9.132   4.695   1.691  1.00  0.00     0.198 C 
BRANCH  21  22
HETATM   22  O   UNL     1       7.891   4.676   2.377  1.00  0.00    -0.398 OA
HETATM   23  H   UNL     1       7.411   3.873   2.112  1.00  0.00     0.209 HD
ENDBRANCH  21  22
ENDBRANCH  12  21
ENDBRANCH   7   8
ENDBRANCH   3   7
BRANCH   2  24
HETATM   24  O   UNL     1       5.283   2.563  -0.717  1.00  0.00    -0.391 OA
HETATM   25  H   UNL     1       4.496   2.081  -1.044  1.00  0.00     0.210 HD
ENDBRANCH   2  24
BRANCH   4  26
HETATM   26  C   UNL     1       7.603   1.479  -2.174  1.00  0.00     0.198 C 
BRANCH  26  27
HETATM   27  O   UNL     1       8.065   0.691  -3.273  1.00  0.00    -0.398 OA
HETATM   28  H   UNL     1       8.552  -0.073  -2.915  1.00  0.00     0.209 HD
ENDBRANCH  26  27
ENDBRANCH   4  26
BRANCH   1  29
HETATM   29  N   UNL     1       3.839   0.532   1.153  1.00  0.00    -0.349 N 
HETATM   30  C   UNL     1       3.505   1.007   2.384  1.00  0.00     0.214 C 
HETATM   31  C   UNL     1       4.558   1.524   3.345  1.00  0.00     0.117 C 
HETATM   32  O   UNL     1       2.316   1.008   2.696  1.00  0.00    -0.274 OA
HETATM   33  H   UNL     1       3.052   0.216   0.593  1.00  0.00     0.163 HD
ENDBRANCH   1  29
BRANCH   6  34
HETATM   34  O   UNL     1       4.402   0.174  -1.758  1.00  0.00    -0.348 OA
BRANCH  34  35
HETATM   35  C   UNL     1       4.318  -0.502  -3.058  1.00  0.00     0.186 C 
HETATM   36  C   UNL     1       3.814  -1.976  -3.051  1.00  0.00     0.179 C 
HETATM   37  O   UNL     1       2.384  -2.142  -3.024  1.00  0.00    -0.349 OA
HETATM   38  C   UNL     1       1.626  -1.494  -4.035  1.00  0.00     0.292 C 
HETATM   39  C   UNL     1       1.926   0.023  -4.104  1.00  0.00     0.303 C 
HETATM   40  C   UNL     1       3.446   0.366  -4.034  1.00  0.00     0.187 C 
BRANCH  36  41
HETATM   41  C   UNL     1       4.489  -2.809  -4.167  1.00  0.00     0.198 C 
BRANCH  41  42
HETATM   42  O   UNL     1       4.156  -4.192  -4.035  1.00  0.00    -0.398 OA
HETATM   43  H   UNL     1       3.188  -4.240  -4.141  1.00  0.00     0.209 HD
ENDBRANCH  41  42
ENDBRANCH  36  41
BRANCH  38  44
HETATM   44  O   UNL     1       1.732  -2.185  -5.271  1.00  0.00    -0.369 OA
HETATM   45  H   UNL     1       0.915  -2.710  -5.351  1.00  0.00     0.212 HD
ENDBRANCH  38  44
BRANCH  39  46
HETATM   46  N   UNL     1       1.223   0.675  -5.247  1.00  0.00     0.090 N 
HETATM   47  H   UNL     1       1.702   0.366  -6.102  1.00  0.00     0.313 HD
HETATM   48  H   UNL     1       1.376   1.682  -5.217  1.00  0.00     0.313 HD
ENDBRANCH  39  46
BRANCH  40  49
HETATM   49  O   UNL     1       3.999   0.314  -5.361  1.00  0.00    -0.391 OA
HETATM   50  H   UNL     1       4.845   0.800  -5.338  1.00  0.00     0.210 HD
ENDBRANCH  40  49
ENDBRANCH  34  35
ENDBRANCH   6  34
TORSDOF 18
