REMARK  12 active torsions:
REMARK  status: ('A' for Active; 'I' for Inactive)
REMARK    1  A    between atoms: C_6  and  O_11 
REMARK    2  A    between atoms: C_7  and  C_8 
REMARK    3  A    between atoms: C_8  and  O_10 
REMARK    4  A    between atoms: C_18  and  O_35 
REMARK    5  A    between atoms: C_19  and  C_24 
REMARK    6  A    between atoms: C_20  and  O_23 
REMARK    7  A    between atoms: C_21  and  O_22 
REMARK    8  A    between atoms: C_25  and  O_34 
REMARK    9  A    between atoms: C_26  and  O_33 
REMARK   10  A    between atoms: C_27  and  O_32 
REMARK   11  A    between atoms: C_28  and  C_30 
REMARK   12  A    between atoms: C_30  and  O_31 
ROOT
HETATM    1  C   UNL     1       0.917  -0.082  -0.071  1.00  0.00     0.050 C 
HETATM    2  C   UNL     1       2.436  -0.064  -0.063  1.00  0.00    -0.027 A 
HETATM    3  C   UNL     1       3.200   1.151  -0.063  1.00  0.00     0.036 A 
HETATM    4  C   UNL     1       4.599   1.117  -0.060  1.00  0.00     0.032 A 
HETATM    5  C   UNL     1       5.259  -0.113  -0.057  1.00  0.00     0.054 A 
HETATM    6  C   UNL     1       4.531  -1.306  -0.054  1.00  0.00     0.084 A 
HETATM    7  C   UNL     1       3.122  -1.315  -0.054  1.00  0.00     0.077 A 
HETATM    8  C   UNL     1       5.437   2.354  -0.050  1.00  0.00     0.197 A 
HETATM    9  O   UNL     1       6.654   2.224  -0.019  1.00  0.00    -0.286 OA
HETATM   10  C   UNL     1       4.786   3.687  -0.092  1.00  0.00     0.068 A 
HETATM   11  C   UNL     1       3.406   3.716  -0.151  1.00  0.00     0.066 A 
HETATM   12  C   UNL     1       2.591   2.493  -0.055  1.00  0.00     0.197 A 
HETATM   13  O   UNL     1       1.384   2.654   0.071  1.00  0.00    -0.286 OA
HETATM   14  C   UNL     1       2.749   4.953  -0.238  1.00  0.00     0.092 A 
HETATM   15  C   UNL     1       3.412   6.203  -0.166  1.00  0.00     0.043 A 
HETATM   16  C   UNL     1       4.794   6.165  -0.101  1.00  0.00     0.111 A 
HETATM   17  C   UNL     1       5.475   4.919  -0.079  1.00  0.00     0.115 A 
ENDROOT
BRANCH  15  18
HETATM   18  C   UNL     1       2.453   7.379  -0.097  1.00  0.00     0.192 C 
HETATM   19  C   UNL     1       1.658   7.343   1.237  1.00  0.00     0.183 C 
HETATM   20  C   UNL     1       0.300   7.974   0.918  1.00  0.00     0.181 C 
HETATM   21  C   UNL     1       0.471   9.398   0.367  1.00  0.00     0.180 C 
HETATM   22  C   UNL     1       1.532   9.432  -0.771  1.00  0.00     0.177 C 
HETATM   23  O   UNL     1       2.800   8.766  -0.368  1.00  0.00    -0.368 OA
BRANCH  19  24
HETATM   24  O   UNL     1       2.345   8.047   2.285  1.00  0.00    -0.390 OA
HETATM   25  H   UNL     1       2.822   8.790   1.882  1.00  0.00     0.210 HD
ENDBRANCH  19  24
BRANCH  20  26
HETATM   26  O   UNL     1      -0.547   7.959   2.065  1.00  0.00    -0.390 OA
HETATM   27  H   UNL     1      -0.096   8.520   2.726  1.00  0.00     0.210 HD
ENDBRANCH  20  26
BRANCH  21  28
HETATM   28  O   UNL     1       0.798  10.290   1.444  1.00  0.00    -0.390 OA
HETATM   29  H   UNL     1       1.745  10.501   1.428  1.00  0.00     0.210 HD
ENDBRANCH  21  28
BRANCH  22  30
HETATM   30  C   UNL     1       1.751  10.866  -1.264  1.00  0.00     0.198 C 
BRANCH  30  31
HETATM   31  O   UNL     1       2.674  10.885  -2.345  1.00  0.00    -0.398 OA
HETATM   32  H   UNL     1       3.505  10.505  -2.009  1.00  0.00     0.209 HD
ENDBRANCH  30  31
ENDBRANCH  22  30
ENDBRANCH  15  18
BRANCH  14  33
HETATM   33  O   UNL     1       1.374   5.013  -0.387  1.00  0.00    -0.359 OA
HETATM   34  H   UNL     1       0.988   4.122  -0.210  1.00  0.00     0.217 HD
ENDBRANCH  14  33
BRANCH  16  35
HETATM   35  O   UNL     1       5.565   7.294  -0.057  1.00  0.00    -0.357 OA
HETATM   36  H   UNL     1       4.982   8.071  -0.151  1.00  0.00     0.217 HD
ENDBRANCH  16  35
BRANCH  17  37
HETATM   37  O   UNL     1       6.846   4.956  -0.028  1.00  0.00    -0.357 OA
HETATM   38  H   UNL     1       7.097   5.899  -0.009  1.00  0.00     0.217 HD
ENDBRANCH  17  37
BRANCH   7  39
HETATM   39  C   UNL     1       2.355  -2.628  -0.047  1.00  0.00     0.179 C 
HETATM   40  O   UNL     1       1.132  -2.725  -0.053  1.00  0.00    -0.646 OA
BRANCH  39  41
HETATM   41  O   UNL     1       3.109  -3.745  -0.036  1.00  0.00    -0.773 OA
HETATM   42  H   UNL     1       4.074  -3.560  -0.031  1.00  0.00     0.167 HD
ENDBRANCH  39  41
ENDBRANCH   7  39
BRANCH   6  43
HETATM   43  O   UNL     1       5.244  -2.482  -0.047  1.00  0.00    -0.360 OA
HETATM   44  H   UNL     1       6.201  -2.280  -0.051  1.00  0.00     0.217 HD
ENDBRANCH   6  43
TORSDOF 12
