REMARK  6 active torsions:
REMARK  status: ('A' for Active; 'I' for Inactive)
REMARK    1  A    between atoms: N_2  and  C_5 
REMARK    2  A    between atoms: C_5  and  C_6 
REMARK    3  A    between atoms: C_6  and  C_7 
REMARK    4  A    between atoms: C_6  and  O_11 
REMARK    5  A    between atoms: C_7  and  C_8 
REMARK    6  A    between atoms: C_8  and  O_10 
ROOT
HETATM    1  C   UNL     1       4.537  -0.875   1.000  1.00  0.00     0.154 C 
ENDROOT
BRANCH   1   2
HETATM    2  C   UNL     1       2.989  -0.857   1.139  1.00  0.00     0.268 C 
BRANCH   2   3
HETATM    3  N   UNL     1       2.251  -0.007   0.058  1.00  0.00    -0.076 N 
HETATM    4  C   UNL     1       2.645   1.460   0.118  1.00  0.00     0.271 C 
HETATM    5  C   UNL     1       0.747  -0.111   0.330  1.00  0.00     0.271 C 
HETATM    6  C   UNL     1       2.519  -0.542  -1.351  1.00  0.00     0.271 C 
ENDBRANCH   2   3
ENDBRANCH   1   2
BRANCH   1   7
HETATM    7  C   UNL     1       5.253  -1.614   2.146  1.00  0.00     0.143 C 
BRANCH   7   8
HETATM    8  C   UNL     1       4.931  -3.083   2.161  1.00  0.00     0.141 C 
HETATM    9  O   UNL     1       4.144  -3.600   1.382  1.00  0.00    -0.650 OA
BRANCH   8  10
HETATM   10  O   UNL     1       5.590  -3.776   3.106  1.00  0.00    -0.776 OA
HETATM   11  H   UNL     1       6.243  -3.277   3.634  1.00  0.00     0.167 HD
ENDBRANCH   8  10
ENDBRANCH   7   8
ENDBRANCH   1   7
BRANCH   1  12
HETATM   12  O   UNL     1       4.949  -1.419  -0.257  1.00  0.00    -0.393 OA
HETATM   13  H   UNL     1       4.771  -2.385  -0.253  1.00  0.00     0.210 HD
ENDBRANCH   1  12
TORSDOF 6
