REMARK  8 active torsions:
REMARK  status: ('A' for Active; 'I' for Inactive)
REMARK    1  A    between atoms: CG_2  and  CB_7 
REMARK    2  A    between atoms: CB_7  and  CA_8 
REMARK    3  A    between atoms: CA_8  and  C_9 
REMARK    4  A    between atoms: CA_8  and  N_12 
REMARK    5  A    between atoms: C_9  and  OXT_11 
REMARK       I    between atoms: N_12  and  C_16 
REMARK    6  A    between atoms: C_16  and  C_18 
REMARK    7  A    between atoms: C_18  and  C_19 
REMARK    8  A    between atoms: C_19  and  N_20 
ROOT
ATOM      1  CA  HIS A   1       1.601  -3.195  -0.190  1.00  0.00     0.188 C 
ENDROOT
BRANCH   1   2
ATOM      2  CB  HIS A   1       2.025  -1.739   0.048  1.00  0.00     0.094 C 
BRANCH   2   3
ATOM      3  CG  HIS A   1       2.501  -1.461   1.443  1.00  0.00     0.028 A 
ATOM      4  CD2 HIS A   1       3.434  -0.561   1.916  1.00  0.00     0.114 A 
ATOM      5  NE2 HIS A   1       3.588  -0.677   3.273  1.00  0.00    -0.360 N 
ATOM      6  CE1 HIS A   1       2.748  -1.616   3.639  1.00  0.00     0.180 A 
ATOM      7  HE2 HIS A   1       4.221  -0.146   3.871  1.00  0.00     0.166 HD
ATOM      8  ND1 HIS A   1       2.038  -2.094   2.574  1.00  0.00    -0.354 N 
ATOM      9  HD1 HIS A   1       1.327  -2.811   2.626  1.00  0.00     0.166 HD
ENDBRANCH   2   3
ENDBRANCH   1   2
BRANCH   1  10
ATOM     10  C   HIS A   1       1.084  -3.407  -1.619  1.00  0.00     0.163 C 
ATOM     11  O   HIS A   1       1.006  -2.535  -2.469  1.00  0.00    -0.648 OA
BRANCH  10  12
ATOM     12  OXT HIS A   1       0.650  -4.675  -1.843  1.00  0.00    -0.775 OA
ATOM     13  HXT HIS A   1       0.685  -5.240  -1.035  1.00  0.00     0.167 HD
ENDBRANCH  10  12
ENDBRANCH   1  10
BRANCH   1  14
ATOM     14  N   HIS A   1       2.688  -4.144   0.094  1.00  0.00    -0.346 N 
HETATM   15  C   UNK A   0       2.436  -5.413   0.545  1.00  0.00     0.220 C 
HETATM   16  O   UNK A   0       1.276  -5.812   0.651  1.00  0.00    -0.274 OA
ATOM     17  H   HIS A   1       3.609  -3.939  -0.284  1.00  0.00     0.163 HD
BRANCH  15  18
HETATM   18  C   UNK A   0       3.662  -6.259   0.796  1.00  0.00     0.132 C 
BRANCH  18  19
HETATM   19  C   UNK A   0       3.273  -7.627   1.346  1.00  0.00     0.276 C 
BRANCH  19  20
HETATM   20  N   UNK A   0       4.453  -8.462   1.561  1.00  0.00     0.078 N 
HETATM   21  H   UNK A   0       4.881  -8.695   0.665  1.00  0.00     0.312 HD
HETATM   22  H   UNK A   0       4.161  -9.353   1.966  1.00  0.00     0.312 HD
ENDBRANCH  19  20
ENDBRANCH  18  19
ENDBRANCH  15  18
ENDBRANCH   1  14
TORSDOF 8
