REMARK WARNING: 32 MAX_TORS EXCEEDED!!!
REMARK  60 active torsions:
REMARK  status: ('A' for Active; 'I' for Inactive)
REMARK    1  A    between atoms: C_2  and  C_3 
REMARK    2  A    between atoms: C_3  and  C_4 
REMARK    3  A    between atoms: C_4  and  C_5 
REMARK    4  A    between atoms: C_5  and  C_6 
REMARK    5  A    between atoms: C_6  and  C_7 
REMARK    6  A    between atoms: C_7  and  C_8 
REMARK    7  A    between atoms: C_7  and  O_73 
REMARK    8  A    between atoms: C_8  and  C_9 
REMARK    9  A    between atoms: C_10  and  C_11 
REMARK   10  A    between atoms: C_11  and  C_12 
REMARK   11  A    between atoms: C_12  and  C_13 
REMARK   12  A    between atoms: C_13  and  C_14 
REMARK   13  A    between atoms: C_14  and  C_15 
REMARK   14  A    between atoms: C_15  and  C_16 
REMARK   15  A    between atoms: C_16  and  C_17 
REMARK   16  A    between atoms: C_17  and  C_18 
REMARK   17  A    between atoms: C_18  and  O_20 
REMARK   18  A    between atoms: O_20  and  C_21 
REMARK   19  A    between atoms: C_21  and  C_22 
REMARK   20  A    between atoms: C_22  and  C_23 
REMARK   21  A    between atoms: C_22  and  O_52 
REMARK   22  A    between atoms: C_23  and  O_24 
REMARK   23  A    between atoms: O_24  and  C_25 
REMARK   24  A    between atoms: C_25  and  C_27 
REMARK   25  A    between atoms: C_27  and  C_28 
REMARK   26  A    between atoms: C_28  and  C_29 
REMARK   27  A    between atoms: C_29  and  C_30 
REMARK   28  A    between atoms: C_30  and  C_31 
REMARK   29  A    between atoms: C_31  and  C_32 
REMARK   30  A    between atoms: C_32  and  C_33 
REMARK   31  A    between atoms: C_33  and  C_34 
REMARK   32  A    between atoms: C_35  and  C_36 
REMARK   33  A    between atoms: C_36  and  C_37 
REMARK   34  A    between atoms: C_37  and  C_38 
REMARK   35  A    between atoms: C_37  and  O_44 
REMARK   36  A    between atoms: C_38  and  C_39 
REMARK   37  A    between atoms: C_39  and  C_40 
REMARK   38  A    between atoms: C_40  and  C_41 
REMARK   39  A    between atoms: C_41  and  C_42 
REMARK   40  A    between atoms: O_44  and  C_45 
REMARK   41  A    between atoms: C_45  and  C_47 
REMARK   42  A    between atoms: C_48  and  C_49 
REMARK   43  A    between atoms: C_49  and  O_51 
REMARK   44  A    between atoms: O_52  and  C_53 
REMARK   45  A    between atoms: C_53  and  C_55 
REMARK   46  A    between atoms: C_55  and  C_56 
REMARK   47  A    between atoms: C_56  and  C_57 
REMARK   48  A    between atoms: C_57  and  C_58 
REMARK   49  A    between atoms: C_58  and  C_59 
REMARK   50  A    between atoms: C_59  and  C_60 
REMARK   51  A    between atoms: C_60  and  C_61 
REMARK   52  A    between atoms: C_61  and  C_62 
REMARK   53  A    between atoms: C_63  and  C_64 
REMARK   54  A    between atoms: C_64  and  C_65 
REMARK   55  A    between atoms: C_65  and  C_66 
REMARK   56  A    between atoms: C_65  and  O_72 
REMARK   57  A    between atoms: C_66  and  C_67 
REMARK   58  A    between atoms: C_67  and  C_68 
REMARK   59  A    between atoms: C_68  and  C_69 
REMARK   60  A    between atoms: C_69  and  C_70 
ROOT
HETATM    1  C   UNL     1      -7.220   4.712  11.626  1.00  0.00     0.180 C 
ENDROOT
BRANCH   1   2
HETATM    2  C   UNL     1      -5.685   4.786  11.641  1.00  0.00     0.213 C 
BRANCH   2   3
HETATM    3  O   UNL     1      -5.231   6.010  12.233  1.00  0.00    -0.319 OA
BRANCH   3   4
HETATM    4  C   UNL     1      -5.243   7.115  11.431  1.00  0.00     0.258 C 
HETATM    5  O   UNL     1      -5.586   7.114  10.256  1.00  0.00    -0.265 OA
BRANCH   4   6
HETATM    6  C   UNL     1      -4.830   8.333  12.224  1.00  0.00     0.111 C 
BRANCH   6   7
HETATM    7  C   UNL     1      -5.570   9.573  11.727  1.00  0.00     0.010 C 
BRANCH   7   8
HETATM    8  C   UNL     1      -5.174  10.843  12.481  1.00  0.00     0.000 C 
BRANCH   8   9
HETATM    9  C   UNL     1      -5.935  12.045  11.919  1.00  0.00     0.000 C 
BRANCH   9  10
HETATM   10  C   UNL     1      -5.570  13.345  12.633  1.00  0.00     0.000 C 
BRANCH  10  11
HETATM   11  C   UNL     1      -6.349  14.522  12.043  1.00  0.00     0.004 C 
BRANCH  11  12
HETATM   12  C   UNL     1      -6.000  15.835  12.747  1.00  0.00     0.027 C 
BRANCH  12  13
HETATM   13  C   UNL     1      -6.802  16.964  12.161  1.00  0.00    -0.031 C 
HETATM   14  C   UNL     1      -7.659  17.708  12.874  1.00  0.00    -0.028 C 
BRANCH  14  15
HETATM   15  C   UNL     1      -8.600  18.715  12.277  1.00  0.00     0.058 C 
BRANCH  15  16
HETATM   16  C   UNL     1      -8.398  20.157  12.766  1.00  0.00     0.121 C 
BRANCH  16  17
HETATM   17  C   UNL     1      -7.052  20.793  12.403  1.00  0.00     0.032 C 
BRANCH  17  18
HETATM   18  C   UNL     1      -6.742  20.791  10.914  1.00  0.00     0.002 C 
BRANCH  18  19
HETATM   19  C   UNL     1      -7.787  21.537  10.098  1.00  0.00     0.000 C 
BRANCH  19  20
HETATM   20  C   UNL     1      -7.428  21.437   8.626  1.00  0.00    -0.000 C 
BRANCH  20  21
HETATM   21  C   UNL     1      -8.454  22.186   7.795  1.00  0.00    -0.005 C 
HETATM   22  C   UNL     1      -8.112  22.088   6.324  1.00  0.00     0.005 C 
ENDBRANCH  20  21
ENDBRANCH  19  20
ENDBRANCH  18  19
ENDBRANCH  17  18
ENDBRANCH  16  17
BRANCH  16  23
HETATM   23  O   UNL     1      -8.573  20.230  14.180  1.00  0.00    -0.395 OA
HETATM   24  H   UNL     1      -7.814  19.783  14.594  1.00  0.00     0.210 HD
ENDBRANCH  16  23
ENDBRANCH  15  16
ENDBRANCH  14  15
ENDBRANCH  12  13
ENDBRANCH  11  12
ENDBRANCH  10  11
ENDBRANCH   9  10
ENDBRANCH   8   9
ENDBRANCH   7   8
ENDBRANCH   6   7
ENDBRANCH   4   6
ENDBRANCH   3   4
ENDBRANCH   2   3
ENDBRANCH   1   2
BRANCH   1  25
HETATM   25  C   UNL     1      -7.693   3.397  10.995  1.00  0.00     0.213 C 
BRANCH  25  26
HETATM   26  O   UNL     1      -7.248   3.310   9.630  1.00  0.00    -0.319 OA
BRANCH  26  27
HETATM   27  C   UNL     1      -7.978   4.018   8.718  1.00  0.00     0.258 C 
HETATM   28  O   UNL     1      -8.965   4.702   8.962  1.00  0.00    -0.265 OA
BRANCH  27  29
HETATM   29  C   UNL     1      -7.446   3.792   7.331  1.00  0.00     0.111 C 
BRANCH  29  30
HETATM   30  C   UNL     1      -7.488   2.317   6.946  1.00  0.00     0.010 C 
BRANCH  30  31
HETATM   31  C   UNL     1      -8.906   1.754   7.002  1.00  0.00     0.000 C 
BRANCH  31  32
HETATM   32  C   UNL     1      -8.924   0.274   6.627  1.00  0.00     0.000 C 
BRANCH  32  33
HETATM   33  C   UNL     1     -10.343  -0.302   6.623  1.00  0.00     0.000 C 
BRANCH  33  34
HETATM   34  C   UNL     1     -11.300   0.405   5.651  1.00  0.00     0.004 C 
BRANCH  34  35
HETATM   35  C   UNL     1     -10.791   0.337   4.211  1.00  0.00     0.027 C 
BRANCH  35  36
HETATM   36  C   UNL     1     -11.671   1.047   3.230  1.00  0.00    -0.031 C 
HETATM   37  C   UNL     1     -11.236   2.069   2.472  1.00  0.00    -0.028 C 
BRANCH  37  38
HETATM   38  C   UNL     1     -12.025   2.671   1.346  1.00  0.00     0.059 C 
BRANCH  38  39
HETATM   39  C   UNL     1     -11.275   2.654   0.001  1.00  0.00     0.135 C 
BRANCH  39  40
HETATM   40  C   UNL     1     -10.920   1.226  -0.449  1.00  0.00     0.033 C 
BRANCH  40  41
HETATM   41  C   UNL     1     -10.166   1.260  -1.773  1.00  0.00     0.002 C 
BRANCH  41  42
HETATM   42  C   UNL     1      -9.798  -0.134  -2.247  1.00  0.00     0.000 C 
BRANCH  42  43
HETATM   43  C   UNL     1      -9.073  -0.021  -3.580  1.00  0.00    -0.000 C 
BRANCH  43  44
HETATM   44  C   UNL     1      -8.687  -1.402  -4.078  1.00  0.00    -0.005 C 
HETATM   45  C   UNL     1      -7.966  -1.310  -5.406  1.00  0.00     0.005 C 
ENDBRANCH  43  44
ENDBRANCH  42  43
ENDBRANCH  41  42
ENDBRANCH  40  41
ENDBRANCH  39  40
BRANCH  39  46
HETATM   46  O   UNL     1     -12.131   3.224  -1.011  1.00  0.00    -0.312 OA
BRANCH  46  47
HETATM   47  C   UNL     1     -12.105   4.567  -1.127  1.00  0.00     0.283 C 
HETATM   48  O   UNL     1     -11.455   5.353  -0.454  1.00  0.00    -0.260 OA
BRANCH  47  49
HETATM   49  C   UNL     1     -12.993   4.967  -2.221  1.00  0.00     0.089 C 
HETATM   50  C   UNL     1     -13.088   6.293  -2.417  1.00  0.00     0.087 C 
BRANCH  50  51
HETATM   51  C   UNL     1     -13.955   6.829  -3.469  1.00  0.00     0.165 C 
HETATM   52  O   UNL     1     -14.616   6.145  -4.227  1.00  0.00    -0.647 OA
BRANCH  51  53
HETATM   53  O   UNL     1     -13.885   8.165  -3.467  1.00  0.00    -0.773 OA
HETATM   54  H   UNL     1     -13.291   8.514  -2.769  1.00  0.00     0.167 HD
ENDBRANCH  51  53
ENDBRANCH  50  51
ENDBRANCH  47  49
ENDBRANCH  46  47
ENDBRANCH  39  46
ENDBRANCH  38  39
ENDBRANCH  37  38
ENDBRANCH  35  36
ENDBRANCH  34  35
ENDBRANCH  33  34
ENDBRANCH  32  33
ENDBRANCH  31  32
ENDBRANCH  30  31
ENDBRANCH  29  30
ENDBRANCH  27  29
ENDBRANCH  26  27
ENDBRANCH  25  26
ENDBRANCH   1  25
BRANCH   1  55
HETATM   55  O   UNL     1      -7.713   4.777  12.985  1.00  0.00    -0.312 OA
BRANCH  55  56
HETATM   56  C   UNL     1      -8.561   5.806  13.263  1.00  0.00     0.259 C 
HETATM   57  O   UNL     1      -8.902   6.686  12.485  1.00  0.00    -0.265 OA
BRANCH  56  58
HETATM   58  C   UNL     1      -8.978   5.777  14.703  1.00  0.00     0.111 C 
BRANCH  58  59
HETATM   59  C   UNL     1     -10.490   5.680  14.822  1.00  0.00     0.010 C 
BRANCH  59  60
HETATM   60  C   UNL     1     -11.039   4.384  14.222  1.00  0.00     0.000 C 
BRANCH  60  61
HETATM   61  C   UNL     1     -12.555   4.335  14.373  1.00  0.00     0.000 C 
BRANCH  61  62
HETATM   62  C   UNL     1     -13.138   3.058  13.779  1.00  0.00     0.000 C 
BRANCH  62  63
HETATM   63  C   UNL     1     -14.658   3.036  13.945  1.00  0.00     0.004 C 
BRANCH  63  64
HETATM   64  C   UNL     1     -15.241   1.757  13.356  1.00  0.00     0.027 C 
BRANCH  64  65
HETATM   65  C   UNL     1     -16.730   1.685  13.500  1.00  0.00    -0.031 C 
HETATM   66  C   UNL     1     -17.564   1.594  12.453  1.00  0.00    -0.028 C 
BRANCH  66  67
HETATM   67  C   UNL     1     -19.030   1.325  12.580  1.00  0.00     0.058 C 
BRANCH  67  68
HETATM   68  C   UNL     1     -19.467   0.073  11.802  1.00  0.00     0.121 C 
BRANCH  68  69
HETATM   69  C   UNL     1     -18.773  -1.234  12.238  1.00  0.00     0.032 C 
BRANCH  69  70
HETATM   70  C   UNL     1     -19.261  -2.418  11.394  1.00  0.00     0.002 C 
BRANCH  70  71
HETATM   71  C   UNL     1     -18.615  -3.753  11.773  1.00  0.00     0.000 C 
BRANCH  71  72
HETATM   72  C   UNL     1     -19.189  -4.865  10.888  1.00  0.00    -0.000 C 
BRANCH  72  73
HETATM   73  C   UNL     1     -18.589  -6.233  11.203  1.00  0.00    -0.005 C 
HETATM   74  C   UNL     1     -19.185  -7.307  10.304  1.00  0.00     0.005 C 
ENDBRANCH  72  73
ENDBRANCH  71  72
ENDBRANCH  70  71
ENDBRANCH  69  70
ENDBRANCH  68  69
BRANCH  68  75
HETATM   75  O   UNL     1     -20.880  -0.066  11.965  1.00  0.00    -0.395 OA
HETATM   76  H   UNL     1     -21.047  -0.276  12.900  1.00  0.00     0.210 HD
ENDBRANCH  68  75
ENDBRANCH  67  68
ENDBRANCH  66  67
ENDBRANCH  64  65
ENDBRANCH  63  64
ENDBRANCH  62  63
ENDBRANCH  61  62
ENDBRANCH  60  61
ENDBRANCH  59  60
ENDBRANCH  58  59
ENDBRANCH  56  58
ENDBRANCH  55  56
ENDBRANCH   1  55
TORSDOF 60
