REMARK WARNING: 32 MAX_TORS EXCEEDED!!!
REMARK  60 active torsions:
REMARK  status: ('A' for Active; 'I' for Inactive)
REMARK    1  A    between atoms: C_2  and  C_3 
REMARK    2  A    between atoms: C_3  and  O_5 
REMARK    3  A    between atoms: O_5  and  C_6 
REMARK    4  A    between atoms: C_6  and  C_7 
REMARK    5  A    between atoms: C_8  and  O_28 
REMARK    6  A    between atoms: C_9  and  O_23 
REMARK    7  A    between atoms: C_10  and  O_18 
REMARK    8  A    between atoms: C_11  and  O_13 
REMARK    9  A    between atoms: O_13  and  C_14 
REMARK   10  A    between atoms: C_14  and  C_16 
REMARK   11  A    between atoms: O_18  and  C_19 
REMARK   12  A    between atoms: C_19  and  C_21 
REMARK   13  A    between atoms: O_23  and  C_24 
REMARK   14  A    between atoms: C_24  and  C_26 
REMARK   15  A    between atoms: O_28  and  C_29 
REMARK   16  A    between atoms: C_30  and  O_51 
REMARK   17  A    between atoms: C_31  and  O_46 
REMARK   18  A    between atoms: C_32  and  O_41 
REMARK   19  A    between atoms: C_33  and  C_35 
REMARK   20  A    between atoms: C_35  and  O_36 
REMARK   21  A    between atoms: O_36  and  C_37 
REMARK   22  A    between atoms: C_37  and  C_39 
REMARK   23  A    between atoms: O_41  and  C_42 
REMARK   24  A    between atoms: C_42  and  C_44 
REMARK   25  A    between atoms: O_46  and  C_47 
REMARK   26  A    between atoms: C_47  and  C_49 
REMARK   27  A    between atoms: O_51  and  C_52 
REMARK   28  A    between atoms: C_52  and  C_54 
REMARK   29  A    between atoms: C_57  and  O_59 
REMARK   30  A    between atoms: O_59  and  C_60 
REMARK   31  A    between atoms: C_60  and  C_61 
REMARK   32  A    between atoms: C_62  and  O_79 
REMARK   33  A    between atoms: C_63  and  O_75 
REMARK   34  A    between atoms: C_64  and  O_71 
REMARK   35  A    between atoms: C_65  and  O_67 
REMARK   36  A    between atoms: O_67  and  C_68 
REMARK   37  A    between atoms: O_71  and  C_72 
REMARK   38  A    between atoms: O_75  and  C_76 
REMARK   39  A    between atoms: O_79  and  C_80 
REMARK   40  A    between atoms: C_81  and  O_99 
REMARK   41  A    between atoms: C_82  and  O_95 
REMARK   42  A    between atoms: C_83  and  O_91 
REMARK   43  A    between atoms: C_84  and  C_86 
REMARK   44  A    between atoms: C_86  and  O_87 
REMARK   45  A    between atoms: O_87  and  C_88 
REMARK   46  A    between atoms: O_91  and  C_92 
REMARK   47  A    between atoms: O_95  and  C_96 
REMARK   48  A    between atoms: O_99  and  C_100 
REMARK   49  A    between atoms: C_103  and  C_104 
REMARK   50  A    between atoms: C_103  and  O_125 
REMARK   51  A    between atoms: C_105  and  O_124 
REMARK   52  A    between atoms: C_106  and  O_123 
REMARK   53  A    between atoms: C_107  and  O_122 
REMARK   54  A    between atoms: C_108  and  O_110 
REMARK   55  A    between atoms: O_110  and  C_111 
REMARK   56  A    between atoms: C_112  and  C_120 
REMARK   57  A    between atoms: C_114  and  O_119 
REMARK   58  A    between atoms: C_115  and  O_118 
REMARK   59  A    between atoms: C_116  and  O_117 
REMARK   60  A    between atoms: C_120  and  O_121 
ROOT
HETATM    1  O   UNL     3      -2.737  -0.308   4.225  1.00  0.00    -0.348 OA
ENDROOT
BRANCH   1   2
HETATM    2  C   UNL     3      -1.430   0.045   3.831  1.00  0.00     0.292 C 
HETATM    3  C   UNL     3      -0.723   0.657   5.019  1.00  0.00     0.204 C 
HETATM    4  C   UNL     3       0.731   0.956   4.675  1.00  0.00     0.183 C 
HETATM    5  C   UNL     3       0.847   1.684   3.332  1.00  0.00     0.180 C 
HETATM    6  C   UNL     3      -0.132   1.175   2.228  1.00  0.00     0.179 C 
HETATM    7  O   UNL     3      -1.446   1.040   2.799  1.00  0.00    -0.348 OA
BRANCH   3   8
HETATM    8  O   UNL     3      -1.408   1.882   5.321  1.00  0.00    -0.388 OA
HETATM    9  H   UNL     3      -2.372   1.820   5.123  1.00  0.00     0.210 HD
ENDBRANCH   3   8
BRANCH   4  10
HETATM   10  O   UNL     3       1.340   1.761   5.692  1.00  0.00    -0.390 OA
HETATM   11  H   UNL     3       0.658   2.298   6.146  1.00  0.00     0.210 HD
ENDBRANCH   4  10
BRANCH   5  12
HETATM   12  O   UNL     3       2.203   1.633   2.926  1.00  0.00    -0.390 OA
HETATM   13  H   UNL     3       2.788   1.565   3.706  1.00  0.00     0.210 HD
ENDBRANCH   5  12
BRANCH   6  14
HETATM   14  C   UNL     3       0.107  -0.160   1.513  1.00  0.00     0.198 C 
BRANCH  14  15
HETATM   15  O   UNL     3       1.015  -0.179   0.469  1.00  0.00    -0.398 OA
HETATM   16  H   UNL     3       0.818  -1.028   0.062  1.00  0.00     0.209 HD
ENDBRANCH  14  15
ENDBRANCH   6  14
ENDBRANCH   1   2
BRANCH   1  17
HETATM   17  C   UNL     3      -3.563  -0.879   3.206  1.00  0.00     0.187 C 
HETATM   18  C   UNL     3      -3.099  -2.226   2.590  1.00  0.00     0.180 C 
HETATM   19  O   UNL     3      -4.208  -2.850   1.959  1.00  0.00    -0.349 OA
HETATM   20  C   UNL     3      -5.348  -3.086   2.769  1.00  0.00     0.288 C 
HETATM   21  C   UNL     3      -5.936  -1.778   3.228  1.00  0.00     0.204 C 
HETATM   22  C   UNL     3      -4.901  -0.965   3.937  1.00  0.00     0.183 C 
BRANCH  18  23
HETATM   23  C   UNL     3      -2.355  -3.200   3.518  1.00  0.00     0.198 C 
BRANCH  23  24
HETATM   24  O   UNL     3      -1.628  -4.162   2.783  1.00  0.00    -0.398 OA
HETATM   25  H   UNL     3      -2.206  -4.952   2.673  1.00  0.00     0.209 HD
ENDBRANCH  23  24
ENDBRANCH  18  23
BRANCH  20  26
HETATM   26  O   UNL     3      -6.354  -3.600   1.930  1.00  0.00    -0.369 OA
HETATM   27  H   UNL     3      -6.767  -2.809   1.524  1.00  0.00     0.212 HD
ENDBRANCH  20  26
BRANCH  21  28
HETATM   28  O   UNL     3      -6.344  -1.131   2.028  1.00  0.00    -0.388 OA
HETATM   29  H   UNL     3      -5.764  -1.449   1.312  1.00  0.00     0.210 HD
ENDBRANCH  21  28
BRANCH  22  30
HETATM   30  O   UNL     3      -5.353   0.372   4.173  1.00  0.00    -0.390 OA
HETATM   31  H   UNL     3      -6.268   0.475   3.842  1.00  0.00     0.210 HD
ENDBRANCH  22  30
ENDBRANCH   1  17
TORSDOF 60
