REMARK WARNING: 32 MAX_TORS EXCEEDED!!!
REMARK  35 active torsions:
REMARK  status: ('A' for Active; 'I' for Inactive)
REMARK    1  A    between atoms: C_2  and  C_3 
REMARK    2  A    between atoms: C_3  and  C_4 
REMARK    3  A    between atoms: C_4  and  C_5 
REMARK    4  A    between atoms: C_5  and  C_6 
REMARK    5  A    between atoms: C_6  and  C_7 
REMARK    6  A    between atoms: C_7  and  C_8 
REMARK    7  A    between atoms: C_8  and  C_9 
REMARK    8  A    between atoms: C_9  and  C_10 
REMARK    9  A    between atoms: C_10  and  C_11 
REMARK   10  A    between atoms: C_11  and  C_12 
REMARK   11  A    between atoms: C_12  and  C_13 
REMARK   12  A    between atoms: C_13  and  C_14 
REMARK   13  A    between atoms: C_14  and  C_15 
REMARK   14  A    between atoms: C_15  and  C_16 
REMARK   15  A    between atoms: C_15  and  O_22 
REMARK   16  A    between atoms: C_16  and  C_17 
REMARK   17  A    between atoms: C_16  and  O_21 
REMARK   18  A    between atoms: C_17  and  C_18 
REMARK   19  A    between atoms: C_17  and  N_20 
REMARK   20  A    between atoms: C_18  and  O_19 
REMARK       I    between atoms: N_20  and  C_27 
REMARK   21  A    between atoms: C_27  and  C_29 
REMARK   22  A    between atoms: C_29  and  C_30 
REMARK   23  A    between atoms: C_30  and  C_31 
REMARK   24  A    between atoms: C_31  and  C_32 
REMARK   25  A    between atoms: C_32  and  C_33 
REMARK   26  A    between atoms: C_33  and  C_34 
REMARK   27  A    between atoms: C_34  and  C_35 
REMARK   28  A    between atoms: C_35  and  C_36 
REMARK   29  A    between atoms: C_37  and  C_38 
REMARK   30  A    between atoms: C_38  and  C_39 
REMARK   31  A    between atoms: C_39  and  C_40 
REMARK   32  A    between atoms: C_40  and  C_41 
REMARK   33  A    between atoms: C_41  and  C_42 
REMARK   34  A    between atoms: C_42  and  C_43 
REMARK   35  A    between atoms: C_43  and  C_44 
ROOT
HETATM    1  C   UNK A   1      15.112  12.392   1.581  1.00  0.00     0.139 C 
ENDROOT
BRANCH   1   2
HETATM    2  C   UNK A   1      14.640  10.922   1.496  1.00  0.00     0.171 C 
BRANCH   2   3
HETATM    3  C   UNK A   1      13.104  10.770   1.391  1.00  0.00     0.149 C 
BRANCH   3   4
HETATM    4  C   UNK A   1      12.585   9.330   1.261  1.00  0.00     0.034 C 
BRANCH   4   5
HETATM    5  C   UNK A   1      12.950   8.463   2.452  1.00  0.00     0.002 C 
BRANCH   5   6
HETATM    6  C   UNK A   1      12.391   7.059   2.359  1.00  0.00     0.000 C 
BRANCH   6   7
HETATM    7  C   UNK A   1      12.846   6.286   3.589  1.00  0.00     0.000 C 
BRANCH   7   8
HETATM    8  C   UNK A   1      12.353   4.856   3.525  1.00  0.00     0.000 C 
BRANCH   8   9
HETATM    9  C   UNK A   1      12.805   4.091   4.756  1.00  0.00     0.000 C 
BRANCH   9  10
HETATM   10  C   UNK A   1      12.297   2.664   4.673  1.00  0.00     0.000 C 
BRANCH  10  11
HETATM   11  C   UNK A   1      12.731   1.877   5.895  1.00  0.00     0.000 C 
BRANCH  11  12
HETATM   12  C   UNK A   1      12.215   0.451   5.798  1.00  0.00     0.000 C 
BRANCH  12  13
HETATM   13  C   UNK A   1      12.642  -0.346   7.020  1.00  0.00     0.000 C 
BRANCH  13  14
HETATM   14  C   UNK A   1      12.127  -1.775   6.925  1.00  0.00     0.000 C 
BRANCH  14  15
HETATM   15  C   UNK A   1      12.555  -2.572   8.149  1.00  0.00    -0.000 C 
BRANCH  15  16
HETATM   16  C   UNK A   1      12.046  -4.006   8.067  1.00  0.00    -0.005 C 
HETATM   17  C   UNK A   1      12.472  -4.799   9.288  1.00  0.00     0.005 C 
ENDBRANCH  15  16
ENDBRANCH  14  15
ENDBRANCH  13  14
ENDBRANCH  12  13
ENDBRANCH  11  12
ENDBRANCH  10  11
ENDBRANCH   9  10
ENDBRANCH   8   9
ENDBRANCH   7   8
ENDBRANCH   6   7
ENDBRANCH   5   6
ENDBRANCH   4   5
ENDBRANCH   3   4
BRANCH   3  18
HETATM   18  O   UNK A   1      12.648  11.507   0.256  1.00  0.00    -0.393 OA
HETATM   19  H   UNK A   1      12.819  10.974  -0.541  1.00  0.00     0.210 HD
ENDBRANCH   3  18
ENDBRANCH   2   3
BRANCH   2  20
HETATM   20  O   UNK A   1      15.246  10.278   2.629  1.00  0.00    -0.391 OA
HETATM   21  H   UNK A   1      14.578  10.119   3.327  1.00  0.00     0.210 HD
ENDBRANCH   2  20
ENDBRANCH   1   2
BRANCH   1  22
HETATM   22  C   UNK A   1      14.605  13.091   2.863  1.00  0.00     0.191 C 
BRANCH  22  23
HETATM   23  O   UNK A   1      14.988  14.467   2.958  1.00  0.00    -0.399 OA
HETATM   24  H   UNK A   1      15.920  14.530   2.697  1.00  0.00     0.209 HD
ENDBRANCH  22  23
ENDBRANCH   1  22
BRANCH   1  25
HETATM   25  N   UNK A   1      16.579  12.354   1.529  1.00  0.00    -0.352 N 
HETATM   26  C   UNK A   0      17.240  12.378   0.312  1.00  0.00     0.218 C 
HETATM   27  O   UNK A   0      16.665  12.371  -0.777  1.00  0.00    -0.274 OA
HETATM   28  H   UNK A   1      17.020  11.875   2.311  1.00  0.00     0.163 HD
BRANCH  26  29
HETATM   29  C   UNK A   0      18.749  12.421   0.440  1.00  0.00     0.103 C 
BRANCH  29  30
HETATM   30  C   UNK A   0      19.270  13.728  -0.153  1.00  0.00     0.009 C 
BRANCH  30  31
HETATM   31  C   UNK A   0      20.791  13.821  -0.097  1.00  0.00     0.000 C 
BRANCH  31  32
HETATM   32  C   UNK A   0      21.264  15.142  -0.702  1.00  0.00     0.000 C 
BRANCH  32  33
HETATM   33  C   UNK A   0      22.783  15.251  -0.660  1.00  0.00     0.000 C 
BRANCH  33  34
HETATM   34  C   UNK A   0      23.250  16.569  -1.268  1.00  0.00     0.004 C 
BRANCH  34  35
HETATM   35  C   UNK A   0      24.772  16.662  -1.225  1.00  0.00     0.027 C 
BRANCH  35  36
HETATM   36  C   UNK A   0      25.234  17.961  -1.807  1.00  0.00    -0.031 C 
HETATM   37  C   UNK A   0      25.914  18.876  -1.104  1.00  0.00    -0.031 C 
BRANCH  37  38
HETATM   38  C   UNK A   0      26.373  20.175  -1.682  1.00  0.00     0.027 C 
BRANCH  38  39
HETATM   39  C   UNK A   0      27.893  20.264  -1.634  1.00  0.00     0.004 C 
BRANCH  39  40
HETATM   40  C   UNK A   0      28.361  21.583  -2.234  1.00  0.00     0.000 C 
BRANCH  40  41
HETATM   41  C   UNK A   0      29.880  21.686  -2.189  1.00  0.00     0.000 C 
BRANCH  41  42
HETATM   42  C   UNK A   0      30.347  23.008  -2.790  1.00  0.00     0.000 C 
BRANCH  42  43
HETATM   43  C   UNK A   0      31.867  23.109  -2.745  1.00  0.00    -0.000 C 
BRANCH  43  44
HETATM   44  C   UNK A   0      32.345  24.429  -3.342  1.00  0.00    -0.005 C 
HETATM   45  C   UNK A   0      33.860  24.528  -3.295  1.00  0.00     0.005 C 
ENDBRANCH  43  44
ENDBRANCH  42  43
ENDBRANCH  41  42
ENDBRANCH  40  41
ENDBRANCH  39  40
ENDBRANCH  38  39
ENDBRANCH  37  38
ENDBRANCH  35  36
ENDBRANCH  34  35
ENDBRANCH  33  34
ENDBRANCH  32  33
ENDBRANCH  31  32
ENDBRANCH  30  31
ENDBRANCH  29  30
ENDBRANCH  26  29
ENDBRANCH   1  25
TORSDOF 35
