REMARK  22 active torsions:
REMARK  status: ('A' for Active; 'I' for Inactive)
REMARK    1  A    between atoms: C_2  and  C_3 
REMARK    2  A    between atoms: C_3  and  C_4 
REMARK    3  A    between atoms: C_4  and  C_5 
REMARK    4  A    between atoms: C_5  and  C_6 
REMARK    5  A    between atoms: C_6  and  C_7 
REMARK    6  A    between atoms: C_7  and  C_8 
REMARK    7  A    between atoms: C_8  and  C_9 
REMARK    8  A    between atoms: C_9  and  C_10 
REMARK    9  A    between atoms: C_10  and  C_11 
REMARK   10  A    between atoms: C_11  and  C_12 
REMARK   11  A    between atoms: C_12  and  C_13 
REMARK   12  A    between atoms: C_13  and  C_14 
REMARK   13  A    between atoms: C_14  and  C_15 
REMARK   14  A    between atoms: C_15  and  C_16 
REMARK   15  A    between atoms: C_16  and  O_17 
REMARK   16  A    between atoms: O_17  and  C_18 
REMARK   17  A    between atoms: C_18  and  C_20 
REMARK   18  A    between atoms: C_20  and  C_21 
REMARK   19  A    between atoms: C_21  and  C_22 
REMARK   20  A    between atoms: C_22  and  C_23 
REMARK   21  A    between atoms: C_23  and  C_24 
REMARK   22  A    between atoms: C_24  and  C_25 
ROOT
HETATM    1  C   UNL     1      14.726  -8.156  -3.095  1.00  0.00     0.002 C 
ENDROOT
BRANCH   1   2
HETATM    2  C   UNL     1      13.204  -8.137  -3.088  1.00  0.00     0.000 C 
BRANCH   2   3
HETATM    3  C   UNL     1      12.680  -6.793  -2.593  1.00  0.00     0.000 C 
BRANCH   3   4
HETATM    4  C   UNL     1      11.162  -6.779  -2.584  1.00  0.00     0.000 C 
BRANCH   4   5
HETATM    5  C   UNL     1      10.650  -5.437  -2.084  1.00  0.00     0.000 C 
BRANCH   5   6
HETATM    6  C   UNL     1       9.129  -5.426  -2.080  1.00  0.00     0.000 C 
BRANCH   6   7
HETATM    7  C   UNL     1       8.615  -4.085  -1.582  1.00  0.00     0.000 C 
BRANCH   7   8
HETATM    8  C   UNL     1       7.094  -4.075  -1.578  1.00  0.00     0.000 C 
BRANCH   8   9
HETATM    9  C   UNL     1       6.580  -2.734  -1.079  1.00  0.00     0.000 C 
BRANCH   9  10
HETATM   10  C   UNL     1       5.059  -2.720  -1.072  1.00  0.00     0.000 C 
BRANCH  10  11
HETATM   11  C   UNL     1       4.541  -1.380  -0.572  1.00  0.00     0.000 C 
BRANCH  11  12
HETATM   12  C   UNL     1       3.018  -1.370  -0.566  1.00  0.00    -0.000 C 
BRANCH  12  13
HETATM   13  C   UNL     1       2.484  -0.033  -0.067  1.00  0.00    -0.005 C 
HETATM   14  C   UNL     1       0.966  -0.028  -0.061  1.00  0.00     0.005 C 
ENDBRANCH  12  13
ENDBRANCH  11  12
ENDBRANCH  10  11
ENDBRANCH   9  10
ENDBRANCH   8   9
ENDBRANCH   7   8
ENDBRANCH   6   7
ENDBRANCH   5   6
ENDBRANCH   4   5
ENDBRANCH   3   4
ENDBRANCH   2   3
ENDBRANCH   1   2
BRANCH   1  15
HETATM   15  C   UNL     1      15.287  -7.928  -1.698  1.00  0.00     0.027 C 
BRANCH  15  16
HETATM   16  C   UNL     1      16.803  -7.949  -1.721  1.00  0.00     0.178 C 
BRANCH  16  17
HETATM   17  O   UNL     1      17.302  -7.732  -0.397  1.00  0.00    -0.321 OA
BRANCH  17  18
HETATM   18  C   UNL     1      17.259  -8.859   0.374  1.00  0.00     0.258 C 
HETATM   19  O   UNL     1      16.865  -9.951   0.010  1.00  0.00    -0.265 OA
BRANCH  18  20
HETATM   20  C   UNL     1      17.783  -8.563   1.759  1.00  0.00     0.111 C 
BRANCH  20  21
HETATM   21  C   UNL     1      16.934  -7.493   2.427  1.00  0.00     0.010 C 
BRANCH  21  22
HETATM   22  C   UNL     1      17.420  -7.159   3.834  1.00  0.00     0.001 C 
BRANCH  22  23
HETATM   23  C   UNL     1      16.522  -6.080   4.437  1.00  0.00     0.000 C 
BRANCH  23  24
HETATM   24  C   UNL     1      16.955  -5.697   5.851  1.00  0.00     0.004 C 
BRANCH  24  25
HETATM   25  C   UNL     1      16.059  -4.609   6.473  1.00  0.00    -0.023 C 
HETATM   26  C   UNL     1      14.596  -5.049   6.579  1.00  0.00     0.009 C 
HETATM   27  C   UNL     1      16.584  -4.236   7.860  1.00  0.00     0.009 C 
ENDBRANCH  24  25
ENDBRANCH  23  24
ENDBRANCH  22  23
ENDBRANCH  21  22
ENDBRANCH  20  21
ENDBRANCH  18  20
ENDBRANCH  17  18
ENDBRANCH  16  17
ENDBRANCH  15  16
ENDBRANCH   1  15
TORSDOF 22
