REMARK WARNING: 32 MAX_TORS EXCEEDED!!!
REMARK  55 active torsions:
REMARK  status: ('A' for Active; 'I' for Inactive)
REMARK    1  A    between atoms: O_2  and  C_3 
REMARK       I    between atoms: C_3  and  N_5 
REMARK    2  A    between atoms: N_5  and  C_6 
REMARK    3  A    between atoms: C_7  and  O_104 
REMARK    4  A    between atoms: C_8  and  O_37 
REMARK    5  A    between atoms: C_9  and  C_35 
REMARK    6  A    between atoms: C_11  and  O_12 
REMARK    7  A    between atoms: O_12  and  C_13 
REMARK    8  A    between atoms: C_14  and  C_33 
REMARK    9  A    between atoms: C_16  and  O_21 
REMARK   10  A    between atoms: C_17  and  N_20 
REMARK   11  A    between atoms: C_18  and  O_19 
REMARK   12  A    between atoms: O_21  and  C_22 
REMARK   13  A    between atoms: C_23  and  C_31 
REMARK   14  A    between atoms: C_25  and  O_30 
REMARK   15  A    between atoms: C_26  and  N_29 
REMARK   16  A    between atoms: C_27  and  O_28 
REMARK   17  A    between atoms: C_31  and  O_32 
REMARK   18  A    between atoms: C_33  and  O_34 
REMARK   19  A    between atoms: C_35  and  O_36 
REMARK   20  A    between atoms: O_37  and  C_38 
REMARK   21  A    between atoms: C_39  and  N_103 
REMARK   22  A    between atoms: C_40  and  O_102 
REMARK   23  A    between atoms: C_41  and  O_46 
REMARK   24  A    between atoms: C_42  and  C_44 
REMARK   25  A    between atoms: C_44  and  O_45 
REMARK   26  A    between atoms: O_46  and  C_47 
REMARK   27  A    between atoms: C_48  and  N_101 
REMARK   28  A    between atoms: C_49  and  O_100 
REMARK   29  A    between atoms: C_50  and  O_55 
REMARK   30  A    between atoms: C_51  and  C_53 
REMARK   31  A    between atoms: C_53  and  O_54 
REMARK   32  A    between atoms: O_55  and  C_56 
REMARK   33  A    between atoms: C_57  and  N_99 
REMARK   34  A    between atoms: C_58  and  O_98 
REMARK   35  A    between atoms: C_59  and  O_64 
REMARK   36  A    between atoms: C_60  and  C_62 
REMARK   37  A    between atoms: C_62  and  O_63 
REMARK   38  A    between atoms: O_64  and  C_65 
REMARK   39  A    between atoms: C_66  and  N_97 
REMARK   40  A    between atoms: C_67  and  O_96 
REMARK   41  A    between atoms: C_68  and  O_73 
REMARK   42  A    between atoms: C_69  and  C_71 
REMARK   43  A    between atoms: C_71  and  O_72 
REMARK   44  A    between atoms: O_73  and  C_74 
REMARK   45  A    between atoms: C_75  and  N_95 
REMARK   46  A    between atoms: C_76  and  O_94 
REMARK   47  A    between atoms: C_77  and  O_82 
REMARK   48  A    between atoms: C_78  and  C_80 
REMARK   49  A    between atoms: C_80  and  O_81 
REMARK   50  A    between atoms: O_82  and  C_83 
REMARK   51  A    between atoms: C_84  and  N_93 
REMARK   52  A    between atoms: C_85  and  O_92 
REMARK   53  A    between atoms: C_86  and  O_91 
REMARK   54  A    between atoms: C_87  and  C_89 
REMARK   55  A    between atoms: C_89  and  O_90 
ROOT
HETATM    1  C   UNL     1       1.630   6.310  -0.002  1.00  0.00     0.296 C 
HETATM    2  C   UNL     1       1.616   4.801   0.475  1.00  0.00     0.303 C 
HETATM    3  C   UNL     1       3.012   4.140   0.338  1.00  0.00     0.187 C 
HETATM    4  C   UNL     1       3.502   4.177  -1.136  1.00  0.00     0.186 C 
HETATM    5  C   UNL     1       3.380   5.638  -1.629  1.00  0.00     0.179 C 
HETATM    6  O   UNL     1       2.093   6.242  -1.376  1.00  0.00    -0.349 OA
ENDROOT
BRANCH   1   7
HETATM    7  O   UNL     1       2.437   7.236   0.736  1.00  0.00    -0.348 OA
BRANCH   7   8
HETATM    8  C   UNL     1       1.888   8.455   1.362  1.00  0.00     0.186 C 
HETATM    9  C   UNL     1       0.503   9.052   0.915  1.00  0.00     0.187 C 
HETATM   10  C   UNL     1       0.543  10.469   0.255  1.00  0.00     0.303 C 
HETATM   11  C   UNL     1       1.418  11.457   1.010  1.00  0.00     0.296 C 
HETATM   12  O   UNL     1       2.716  10.879   1.053  1.00  0.00    -0.349 OA
HETATM   13  C   UNL     1       2.998   9.558   1.528  1.00  0.00     0.179 C 
BRANCH   9  14
HETATM   14  O   UNL     1      -0.195   9.166   2.151  1.00  0.00    -0.391 OA
HETATM   15  H   UNL     1       0.366   9.747   2.693  1.00  0.00     0.210 HD
ENDBRANCH   9  14
BRANCH  10  16
HETATM   16  N   UNL     1      -0.683  11.144  -0.096  1.00  0.00     0.090 N 
HETATM   17  H   UNL     1      -0.505  12.061  -0.551  1.00  0.00     0.313 HD
HETATM   18  H   UNL     1      -1.286  10.614  -0.678  1.00  0.00     0.313 HD
ENDBRANCH  10  16
BRANCH  11  19
HETATM   19  O   UNL     1       1.004  12.542   1.986  1.00  0.00    -0.348 OA
BRANCH  19  20
HETATM   20  C   UNL     1       0.251  12.302   3.221  1.00  0.00     0.186 C 
HETATM   21  C   UNL     1      -1.242  11.855   3.159  1.00  0.00     0.172 C 
HETATM   22  C   UNL     1      -2.296  12.983   2.950  1.00  0.00     0.151 C 
HETATM   23  C   UNL     1      -2.197  14.002   4.236  1.00  0.00     0.281 C 
HETATM   24  O   UNL     1      -0.832  14.470   4.231  1.00  0.00    -0.349 OA
HETATM   25  C   UNL     1       0.323  13.581   4.160  1.00  0.00     0.179 C 
BRANCH  21  26
HETATM   26  O   UNL     1      -1.624  11.115   4.367  1.00  0.00    -0.391 OA
HETATM   27  H   UNL     1      -2.076  11.697   5.004  1.00  0.00     0.210 HD
ENDBRANCH  21  26
BRANCH  22  28
HETATM   28  N   UNL     1      -3.594  12.292   2.457  1.00  0.00    -0.226 NA
HETATM   29  C   UNL     1      -3.814  11.963   1.062  1.00  0.00     0.338 C 
HETATM   30  O   UNL     1      -3.329  12.631   0.187  1.00  0.00    -0.245 OA
HETATM   31  H   UNL     1      -3.847  11.484   2.989  1.00  0.00     0.133 HD
BRANCH  29  32
HETATM   32  O   UNL     1      -4.538  10.812   0.899  1.00  0.00    -0.314 OA
HETATM   33  C   UNL     1      -4.812  10.304  -0.452  1.00  0.00     0.214 C 
ENDBRANCH  29  32
ENDBRANCH  22  28
BRANCH  23  34
HETATM   34  O   UNL     1      -2.663  13.550   5.546  1.00  0.00    -0.349 OA
BRANCH  34  35
HETATM   35  C   UNL     1      -2.525  14.301   6.837  1.00  0.00     0.186 C 
HETATM   36  C   UNL     1      -3.209  15.683   7.261  1.00  0.00     0.179 C 
HETATM   37  O   UNL     1      -4.666  15.791   7.291  1.00  0.00    -0.349 OA
HETATM   38  C   UNL     1      -5.458  14.870   8.075  1.00  0.00     0.296 C 
HETATM   39  C   UNL     1      -4.630  13.426   8.171  1.00  0.00     0.303 C 
HETATM   40  C   UNL     1      -3.025  13.347   7.966  1.00  0.00     0.187 C 
BRANCH  36  41
HETATM   41  C   UNL     1      -2.805  16.179   8.691  1.00  0.00     0.198 C 
BRANCH  41  42
HETATM   42  O   UNL     1      -3.151  17.564   8.803  1.00  0.00    -0.398 OA
HETATM   43  H   UNL     1      -4.014  17.673   8.355  1.00  0.00     0.209 HD
ENDBRANCH  41  42
ENDBRANCH  36  41
BRANCH  38  44
HETATM   44  O   UNL     1      -6.241  15.316   9.323  1.00  0.00    -0.348 OA
BRANCH  44  45
HETATM   45  C   UNL     1      -7.443  16.370   9.381  1.00  0.00     0.186 C 
HETATM   46  C   UNL     1      -8.901  16.124   8.672  1.00  0.00     0.179 C 
HETATM   47  O   UNL     1      -9.829  15.262   9.363  1.00  0.00    -0.349 OA
HETATM   48  C   UNL     1      -9.864  15.214  10.778  1.00  0.00     0.292 C 
HETATM   49  C   UNL     1      -8.884  15.989  11.682  1.00  0.00     0.303 C 
HETATM   50  C   UNL     1      -7.808  16.782  10.900  1.00  0.00     0.187 C 
BRANCH  46  51
HETATM   51  C   UNL     1      -9.977  17.206   8.458  1.00  0.00     0.198 C 
BRANCH  51  52
HETATM   52  O   UNL     1      -9.397  18.426   8.276  1.00  0.00    -0.398 OA
HETATM   53  H   UNL     1     -10.053  19.020   7.855  1.00  0.00     0.209 HD
ENDBRANCH  51  52
ENDBRANCH  46  51
BRANCH  48  54
HETATM   54  O   UNL     1     -11.279  15.668  11.418  1.00  0.00    -0.369 OA
HETATM   55  H   UNL     1     -11.563  16.595  11.142  1.00  0.00     0.212 HD
ENDBRANCH  48  54
BRANCH  49  56
HETATM   56  N   UNL     1      -9.829  16.914  12.800  1.00  0.00     0.090 N 
HETATM   57  H   UNL     1     -10.720  16.377  12.684  1.00  0.00     0.313 HD
HETATM   58  H   UNL     1      -9.572  16.474  13.689  1.00  0.00     0.313 HD
ENDBRANCH  49  56
BRANCH  50  59
HETATM   59  O   UNL     1      -8.436  18.022  10.750  1.00  0.00    -0.391 OA
HETATM   60  H   UNL     1      -8.342  18.625  11.519  1.00  0.00     0.210 HD
ENDBRANCH  50  59
ENDBRANCH  44  45
ENDBRANCH  38  44
BRANCH  39  61
HETATM   61  N   UNL     1      -5.111  12.494   9.222  1.00  0.00     0.090 NA
HETATM   62  H   UNL     1      -6.124  12.440   9.167  1.00  0.00     0.313 HD
HETATM   63  H   UNL     1      -4.777  11.555   8.980  1.00  0.00     0.313 HD
ENDBRANCH  39  61
BRANCH  40  64
HETATM   64  O   UNL     1      -2.294  13.660   9.165  1.00  0.00    -0.391 OA
HETATM   65  H   UNL     1      -1.720  12.903   9.413  1.00  0.00     0.210 HD
ENDBRANCH  40  64
ENDBRANCH  34  35
ENDBRANCH  23  34
BRANCH  25  66
HETATM   66  C   UNL     1       0.781  13.174   5.589  1.00  0.00     0.198 C 
BRANCH  66  67
HETATM   67  O   UNL     1       1.066  14.302   6.404  1.00  0.00    -0.398 OA
HETATM   68  H   UNL     1       1.900  14.662   6.041  1.00  0.00     0.209 HD
ENDBRANCH  66  67
ENDBRANCH  25  66
ENDBRANCH  19  20
ENDBRANCH  11  19
BRANCH  13  69
HETATM   69  C   UNL     1       3.474   9.844   2.966  1.00  0.00     0.198 C 
BRANCH  69  70
HETATM   70  O   UNL     1       4.564  10.756   2.859  1.00  0.00    -0.398 OA
HETATM   71  H   UNL     1       4.359  11.210   2.007  1.00  0.00     0.209 HD
ENDBRANCH  69  70
ENDBRANCH  13  69
ENDBRANCH   7   8
ENDBRANCH   1   7
BRANCH   2  72
HETATM   72  N   UNL     1       0.900   4.491   1.739  1.00  0.00     0.090 N 
HETATM   73  H   UNL     1       1.382   3.798   2.324  1.00  0.00     0.313 HD
HETATM   74  H   UNL     1       0.047   3.947   1.500  1.00  0.00     0.313 HD
ENDBRANCH   2  72
BRANCH   3  75
HETATM   75  O   UNL     1       4.030   4.854   1.107  1.00  0.00    -0.391 OA
HETATM   76  H   UNL     1       3.909   4.581   2.044  1.00  0.00     0.210 HD
ENDBRANCH   3  75
BRANCH   5  77
HETATM   77  C   UNL     1       4.543   6.513  -1.092  1.00  0.00     0.198 C 
BRANCH  77  78
HETATM   78  O   UNL     1       5.776   5.775  -1.066  1.00  0.00    -0.398 OA
HETATM   79  H   UNL     1       5.806   5.434  -0.144  1.00  0.00     0.209 HD
ENDBRANCH  77  78
ENDBRANCH   5  77
BRANCH   4  80
HETATM   80  O   UNL     1       3.061   3.082  -1.967  1.00  0.00    -0.348 OA
BRANCH  80  81
HETATM   81  C   UNL     1       3.412   2.817  -3.384  1.00  0.00     0.296 C 
HETATM   82  C   UNL     1       2.934   1.384  -3.776  1.00  0.00     0.303 C 
HETATM   83  C   UNL     1       3.714   0.169  -3.133  1.00  0.00     0.187 C 
HETATM   84  C   UNL     1       5.265   0.266  -3.306  1.00  0.00     0.186 C 
HETATM   85  C   UNL     1       5.705   1.897  -3.566  1.00  0.00     0.179 C 
HETATM   86  O   UNL     1       4.698   2.881  -4.005  1.00  0.00    -0.349 OA
BRANCH  82  87
HETATM   87  N   UNL     1       1.505   1.227  -3.426  1.00  0.00     0.090 N 
HETATM   88  H   UNL     1       1.133   2.174  -3.279  1.00  0.00     0.313 HD
HETATM   89  H   UNL     1       1.055   1.016  -4.339  1.00  0.00     0.313 HD
ENDBRANCH  82  87
BRANCH  83  90
HETATM   90  O   UNL     1       3.312  -0.055  -1.781  1.00  0.00    -0.391 OA
HETATM   91  H   UNL     1       2.536   0.561  -1.711  1.00  0.00     0.210 HD
ENDBRANCH  83  90
BRANCH  84  92
HETATM   92  O   UNL     1       5.478  -0.692  -4.490  1.00  0.00    -0.348 OA
BRANCH  92  93
HETATM   93  C   UNL     1       6.304  -1.946  -4.507  1.00  0.00     0.296 C 
HETATM   94  C   UNL     1       6.118  -3.058  -5.674  1.00  0.00     0.303 C 
HETATM   95  C   UNL     1       4.912  -4.045  -5.354  1.00  0.00     0.187 C 
HETATM   96  C   UNL     1       4.378  -4.019  -3.779  1.00  0.00     0.186 C 
HETATM   97  C   UNL     1       5.597  -3.692  -2.796  1.00  0.00     0.179 C 
HETATM   98  O   UNL     1       6.518  -2.695  -3.320  1.00  0.00    -0.349 OA
BRANCH  94  99
HETATM   99  N   UNL     1       6.243  -2.738  -7.167  1.00  0.00     0.090 NA
HETATM  100  H   UNL     1       6.656  -1.821  -7.379  1.00  0.00     0.313 HD
HETATM  101  H   UNL     1       5.275  -2.731  -7.491  1.00  0.00     0.313 HD
ENDBRANCH  94  99
BRANCH  95 102
HETATM  102  O   UNL     1       3.907  -3.848  -6.400  1.00  0.00    -0.391 OA
HETATM  103  H   UNL     1       3.586  -2.924  -6.155  1.00  0.00     0.210 HD
ENDBRANCH  95 102
BRANCH  96 104
HETATM  104  O   UNL     1       3.377  -5.102  -3.617  1.00  0.00    -0.348 OA
BRANCH 104 105
HETATM  105  C   UNL     1       3.413  -6.275  -2.769  1.00  0.00     0.296 C 
HETATM  106  C   UNL     1       2.771  -7.554  -3.455  1.00  0.00     0.303 C 
HETATM  107  C   UNL     1       1.263  -7.361  -3.763  1.00  0.00     0.187 C 
HETATM  108  C   UNL     1       0.411  -6.884  -2.559  1.00  0.00     0.186 C 
HETATM  109  C   UNL     1       1.247  -5.942  -1.586  1.00  0.00     0.179 C 
HETATM  110  O   UNL     1       2.692  -6.166  -1.528  1.00  0.00    -0.349 OA
BRANCH 106 111
HETATM  111  N   UNL     1       3.461  -7.986  -4.716  1.00  0.00     0.090 N 
HETATM  112  H   UNL     1       4.156  -7.269  -4.911  1.00  0.00     0.313 HD
HETATM  113  H   UNL     1       2.758  -7.799  -5.438  1.00  0.00     0.313 HD
ENDBRANCH 106 111
BRANCH 107 114
HETATM  114  O   UNL     1       1.169  -6.514  -4.918  1.00  0.00    -0.391 OA
HETATM  115  H   UNL     1       1.287  -5.594  -4.589  1.00  0.00     0.210 HD
ENDBRANCH 107 114
BRANCH 108 116
HETATM  116  O   UNL     1      -0.127  -8.119  -1.967  1.00  0.00    -0.348 OA
BRANCH 116 117
HETATM  117  C   UNL     1      -1.504  -8.135  -1.427  1.00  0.00     0.296 C 
HETATM  118  C   UNL     1      -2.407  -9.447  -1.596  1.00  0.00     0.303 C 
HETATM  119  C   UNL     1      -3.364  -9.322  -2.804  1.00  0.00     0.187 C 
HETATM  120  C   UNL     1      -4.165  -8.029  -2.557  1.00  0.00     0.180 C 
HETATM  121  C   UNL     1      -3.330  -6.758  -2.420  1.00  0.00     0.179 C 
HETATM  122  O   UNL     1      -2.216  -6.897  -1.497  1.00  0.00    -0.349 OA
BRANCH 118 123
HETATM  123  N   UNL     1      -1.786 -10.791  -1.596  1.00  0.00     0.090 N 
HETATM  124  H   UNL     1      -1.589 -10.974  -2.577  1.00  0.00     0.313 HD
HETATM  125  H   UNL     1      -2.564 -11.419  -1.361  1.00  0.00     0.313 HD
ENDBRANCH 118 123
BRANCH 119 126
HETATM  126  O   UNL     1      -2.612  -9.466  -4.026  1.00  0.00    -0.391 OA
HETATM  127  H   UNL     1      -3.227  -9.463  -4.780  1.00  0.00     0.210 HD
ENDBRANCH 119 126
BRANCH 120 128
HETATM  128  O   UNL     1      -4.649  -8.225  -1.183  1.00  0.00    -0.390 OA
HETATM  129  H   UNL     1      -5.600  -7.955  -1.287  1.00  0.00     0.210 HD
ENDBRANCH 120 128
BRANCH 121 130
HETATM  130  C   UNL     1      -2.849  -6.083  -3.694  1.00  0.00     0.198 C 
BRANCH 130 131
HETATM  131  O   UNL     1      -3.925  -5.704  -4.528  1.00  0.00    -0.398 OA
HETATM  132  H   UNL     1      -3.618  -4.918  -5.026  1.00  0.00     0.209 HD
ENDBRANCH 130 131
ENDBRANCH 121 130
ENDBRANCH 116 117
ENDBRANCH 108 116
BRANCH 109 133
HETATM  133  C   UNL     1       1.040  -4.415  -1.866  1.00  0.00     0.198 C 
BRANCH 133 134
HETATM  134  O   UNL     1       1.889  -3.606  -1.037  1.00  0.00    -0.398 OA
HETATM  135  H   UNL     1       1.945  -2.716  -1.445  1.00  0.00     0.209 HD
ENDBRANCH 133 134
ENDBRANCH 109 133
ENDBRANCH 104 105
ENDBRANCH  96 104
BRANCH  97 136
HETATM  136  C   UNL     1       5.400  -3.068  -1.380  1.00  0.00     0.198 C 
BRANCH 136 137
HETATM  137  O   UNL     1       6.702  -2.880  -0.761  1.00  0.00    -0.398 OA
HETATM  138  H   UNL     1       6.695  -2.052  -0.251  1.00  0.00     0.209 HD
ENDBRANCH 136 137
ENDBRANCH  97 136
ENDBRANCH  92  93
ENDBRANCH  84  92
BRANCH  85 139
HETATM  139  C   UNL     1       6.381   2.821  -2.490  1.00  0.00     0.198 C 
BRANCH 139 140
HETATM  140  O   UNL     1       7.296   3.824  -3.056  1.00  0.00    -0.398 OA
HETATM  141  H   UNL     1       7.099   4.691  -2.631  1.00  0.00     0.209 HD
ENDBRANCH 139 140
ENDBRANCH  85 139
ENDBRANCH  80  81
ENDBRANCH   4  80
TORSDOF 55
