REMARK  3 active torsions:
REMARK  status: ('A' for Active; 'I' for Inactive)
REMARK    1  A    between atoms: C_11  and  N_36 
REMARK    2  A    between atoms: N_28  and  C_29 
REMARK    3  A    between atoms: C_69  and  C_70 
ROOT
HETATM    1  C   UNL     1       0.925   2.120   0.895  1.00  0.00     0.041 C 
HETATM    2  C   UNL     1      -0.927   1.409   0.932  1.00  0.00     0.055 C 
HETATM    3  C   UNL     1      -1.769  -0.286   0.397  1.00  0.00     0.000 C 
HETATM    4  C   UNL     1      -0.344  -1.599  -0.202  1.00  0.00     0.076 C 
HETATM    5  C   UNL     1       1.467  -0.856  -0.530  1.00  0.00     0.072 C 
HETATM    6  C   UNL     1       2.247   0.892  -0.032  1.00  0.00     0.206 C 
HETATM    7  N   UNL     1       3.805   0.816   0.842  1.00  0.00    -0.014 N 
HETATM    8  C   UNL     1       4.730  -0.305   1.113  1.00  0.00     0.260 C 
HETATM    9  N   UNL     1       4.839  -1.499   0.636  1.00  0.00    -0.316 N 
ATOM     10  HN  UNL     1       5.550  -2.173   0.921  1.00  0.00     0.169 HD
HETATM   11  C   UNL     1       3.919  -1.729  -0.258  1.00  0.00     0.149 C 
HETATM   12  N   UNL     1       3.918  -0.944  -1.276  1.00  0.00    -0.356 N 
ATOM     13  HN  UNL     1       3.201  -1.232  -1.942  1.00  0.00     0.163 HD
HETATM   14  C   UNL     1       4.688   0.336  -1.819  1.00  0.00     0.260 A 
HETATM   15  C   UNL     1       5.819   1.357  -1.279  1.00  0.00     0.432 C 
HETATM   16  C   UNL     1       5.972   2.981  -1.335  1.00  0.00     0.076 C 
HETATM   17  C   UNL     1       5.657   3.998  -2.487  1.00  0.00     0.059 C 
HETATM   18  C   UNL     1       6.461   5.331  -2.310  1.00  0.00    -0.014 C 
HETATM   19  C   UNL     1       7.951   5.068  -2.466  1.00  0.00     0.057 C 
HETATM   20  N   UNL     1       8.672   6.273  -2.169  1.00  0.00    -0.383 N 
ATOM     21  HN  UNL     1       8.190   7.156  -2.002  1.00  0.00     0.160 HD
HETATM   22  C   UNL     1       9.954   6.188  -2.123  1.00  0.00     0.146 C 
HETATM   23  N   UNL     1      10.665   5.062  -2.392  1.00  0.00     0.000 N 
HETATM   24  N   UNL     1      10.625   7.325  -1.793  1.00  0.00    -0.318 N 
ATOM     25  HN  UNL     1      11.600   7.266  -1.500  1.00  0.00     0.169 HD
HETATM   26  C   UNL     1      10.041   8.487  -1.845  1.00  0.00     0.241 C 
HETATM   27  N   UNL     1       8.752   8.761  -2.208  1.00  0.00     0.000 NA
HETATM   28  N   UNL     1      10.649   9.666  -1.515  1.00  0.00    -0.074 N 
HETATM   29  N   UNL     1       3.021  -2.689   0.291  1.00  0.00     0.000 NA
HETATM   30  N   UNL     1       5.810  -0.295   1.949  1.00  0.00     0.000 NA
HETATM   31 CL   UNL     1      -3.440  -0.573   0.037  1.00  0.00    -0.093 Cl
HETATM   32  H   UNL     1       3.543   1.245   1.736  1.00  0.00     0.289 HD
HETATM   33  H   UNL     1      10.193   4.191  -2.580  1.00  0.00     0.017 HD
HETATM   34  H   UNL     1      11.655   5.025  -2.213  1.00  0.00     0.017 HD
HETATM   35  H   UNL     1       8.307   7.921  -2.592  1.00  0.00     0.024 HD
HETATM   36  H   UNL     1       8.583   9.589  -2.758  1.00  0.00     0.028 HD
HETATM   37  H   UNL     1      10.048  10.381  -1.138  1.00  0.00     0.267 HD
HETATM   38  H   UNL     1       3.037  -2.729   1.315  1.00  0.00     0.000 HD
HETATM   39  H   UNL     1       2.033  -2.765   0.058  1.00  0.00     0.000 HD
HETATM   40  H   UNL     1       5.693  -0.289   2.951  1.00  0.00     0.000 HD
HETATM   41  H   UNL     1       6.211  -1.247   1.781  1.00  0.00     0.000 HD
HETATM   42  C   UNL     2      -0.350   0.051  -0.549  1.00  0.00    -0.025 C 
HETATM   43  C   UNL     2      -0.473  -0.748   1.569  1.00  0.00     0.008 C 
HETATM   44  C   UNL     2      -0.019   0.074   3.293  1.00  0.00     0.185 C 
HETATM   45  C   UNL     2       0.069  -0.753   4.553  1.00  0.00     0.004 C 
HETATM   46  C   UNL     2       0.771  -2.091   4.433  1.00  0.00     0.039 C 
HETATM   47  C   UNL     2       0.559  -2.643   5.835  1.00  0.00     0.052 C 
HETATM   48  O   UNL     2      -0.411  -3.315   6.155  1.00  0.00    -0.656 OA
HETATM   49  O   UNL     2       1.484  -2.198   6.724  1.00  0.00    -0.962 OA
HETATM   50  O   UNL     2       0.253  -2.930   3.424  1.00  0.00     0.000 OA
HETATM   51  O   UNL     2       0.871   0.004   5.539  1.00  0.00     0.000 OA
HETATM   52  O   UNL     2       1.203   0.959   3.530  1.00  0.00     0.000 OA
HETATM   53  O   UNL     2      -1.811  -1.290   2.270  1.00  0.00     0.000 OA
HETATM   54  O   UNL     2       0.187  -0.334  -2.167  1.00  0.00     0.000 OA
HETATM   55  H   UNL     2       1.898  -1.367   6.390  1.00  0.00     0.013 HD
HETATM   56  H   UNL     2      -0.725  -2.860   3.453  1.00  0.00     0.000 HD
HETATM   57  H   UNL     2       1.396   0.649   5.002  1.00  0.00     0.000 HD
HETATM   58  H   UNL     2       1.962   0.451   3.141  1.00  0.00     0.018 HD
HETATM   59  H   UNL     2      -2.352  -0.504   2.519  1.00  0.00     0.018 HD
HETATM   60  H   UNL     2       1.135  -0.108  -2.345  1.00  0.00     0.056 HD
HETATM   61  C   UNL     3       0.913   0.364   0.958  1.00  0.00    -0.011 C 
HETATM   62  C   UNL     3       0.636   1.670  -0.856  1.00  0.00    -0.004 C 
HETATM   63  C   UNL     3      -1.023   2.491  -1.437  1.00  0.00     0.006 C 
HETATM   64  C   UNL     3      -1.093   3.233  -2.769  1.00  0.00     0.028 C 
HETATM   65  C   UNL     3      -2.587   3.716  -3.017  1.00  0.00     0.203 C 
HETATM   66  C   UNL     3      -2.619   4.581  -4.230  1.00  0.00     0.155 A 
HETATM   67  O   UNL     3      -2.284   5.749  -4.212  1.00  0.00    -0.356 OA
HETATM   68  O   UNL     3      -3.076   3.926  -5.335  1.00  0.00     0.000 OA
HETATM   69  O   UNL     3      -3.559   2.709  -3.417  1.00  0.00     0.000 OA
HETATM   70  O   UNL     3      -0.175   4.306  -2.671  1.00  0.00     0.000 OA
HETATM   71  O   UNL     3      -2.305   1.748  -1.528  1.00  0.00     0.000 OA
HETATM   72  O   UNL     3       1.534   3.018  -0.956  1.00  0.00     0.000 OA
HETATM   73  O   UNL     3       2.206  -0.073   1.917  1.00  0.00     0.000 OA
HETATM   74  H   UNL     3      -3.457   3.079  -4.989  1.00  0.00     0.000 HD
HETATM   75  H   UNL     3      -3.278   1.858  -3.046  1.00  0.00     0.000 HD
HETATM   76  H   UNL     3      -0.428   4.878  -1.923  1.00  0.00     0.000 HD
HETATM   77  H   UNL     3      -2.178   0.928  -2.061  1.00  0.00     0.000 HD
HETATM   78  H   UNL     3       0.929   3.779  -0.908  1.00  0.00     0.000 HD
HETATM   79  H   UNL     3       2.704  -0.735   1.386  1.00  0.00     0.000 HD
ENDROOT
BRANCH  28  80
HETATM   80  C   UNL     1      12.028   9.830  -1.382  1.00  0.00     0.180 A 
HETATM   81  C   UNL     1      12.899   9.111  -2.213  1.00  0.00     0.045 A 
HETATM   82  C   UNL     1      14.268   9.152  -2.025  1.00  0.00     0.220 A 
HETATM   83  C   UNL     1      14.780   9.934  -1.002  1.00  0.00    -0.006 A 
HETATM   84  C   UNL     1      13.943  10.684  -0.177  1.00  0.00     0.014 A 
HETATM   85 CL   UNL     1      16.467   9.934  -0.765  1.00  0.00    -0.093 Cl
HETATM   86  C   UNL     1      12.561  10.627  -0.365  1.00  0.00     0.006 A 
ENDBRANCH  28  80
TORSDOF 3
