REMARK  1 active torsions:
REMARK  status: ('A' for Active; 'I' for Inactive)
REMARK    1  A    between atoms: C_4  and  O_10 
ROOT
HETATM    1  C   UNL     1      -0.735   2.553  -0.000  1.00  0.00     0.050 C 
HETATM    2  C   UNL     1      -0.031   1.223   0.004  1.00  0.00    -0.037 A 
HETATM    3  C   UNL     1       1.372   1.192  -0.001  1.00  0.00     0.045 A 
HETATM    4  C   UNL     1       2.042  -0.026  -0.005  1.00  0.00     0.066 A 
HETATM    5  C   UNL     1       1.341  -1.226  -0.004  1.00  0.00     0.045 A 
HETATM    6  C   UNL     1      -0.062  -1.228   0.006  1.00  0.00    -0.037 A 
HETATM    7  C   UNL     1      -0.743   0.005   0.008  1.00  0.00     0.046 A 
HETATM    8 CL   UNL     1      -2.479   0.026   0.016  1.00  0.00    -0.083 Cl
HETATM    9  C   UNL     1      -0.792  -2.542   0.026  1.00  0.00     0.050 C 
ENDROOT
BRANCH   4  10
HETATM   10  O   UNL     1       3.404  -0.088  -0.009  1.00  0.00    -0.361 OA
HETATM   11  H   UNL     1       3.759   0.816  -0.000  1.00  0.00     0.217 HD
ENDBRANCH   4  10
TORSDOF 1
