REMARK  6 active torsions:
REMARK  status: ('A' for Active; 'I' for Inactive)
REMARK    1  A    between atoms: C_4  and  N_25 
REMARK    2  A    between atoms: C_5  and  N_8 
REMARK    3  A    between atoms: N_10  and  C_12 
REMARK    4  A    between atoms: C_12  and  C_13 
REMARK    5  A    between atoms: C_12  and  C_16 
REMARK       I    between atoms: C_16  and  N_18 
REMARK    6  A    between atoms: N_18  and  C_19 
ROOT
HETATM    1  N   UNL     1      -3.301   0.613  -0.910  1.00  0.00    -0.301 N 
ATOM      2  HN  UNL     1      -3.778   0.338  -1.768  1.00  0.00     0.186 HD
HETATM    3  N   UNL     1      -3.894   1.075   0.083  1.00  0.00    -0.315 N 
ATOM      4  HN  UNL     1      -3.408   1.437   0.903  1.00  0.00     0.181 HD
ENDROOT
BRANCH   3   5
HETATM    5  C   UNL     1      -5.363   1.050  -0.037  1.00  0.00     0.260 C 
BRANCH   5   6
HETATM    6  C   UNL     1      -5.925   0.372   1.198  1.00  0.00     0.156 C 
HETATM    7  O   UNL     1      -6.965   0.747   1.745  1.00  0.00    -0.296 OA
HETATM    8  C   UNL     1      -5.217  -0.852   1.726  1.00  0.00     0.093 C 
ENDBRANCH   5   6
BRANCH   5   9
HETATM    9  C   UNL     1      -5.861   2.478  -0.225  1.00  0.00     0.253 C 
HETATM   10  O   UNL     1      -6.570   2.735  -1.197  1.00  0.00    -0.270 OA
HETATM   11  N   UNL     1      -5.445   3.394   0.736  1.00  0.00    -0.325 N 
HETATM   12  H   UNL     1      -4.700   3.108   1.363  1.00  0.00     0.169 HD
BRANCH  11  13
HETATM   13  C   UNL     1      -5.894   4.730   0.865  1.00  0.00     0.034 A 
HETATM   14  C   UNL     1      -7.002   5.238   0.180  1.00  0.00     0.029 A 
HETATM   15  C   UNL     1      -7.394   6.572   0.334  1.00  0.00     0.002 A 
HETATM   16  C   UNL     1      -6.686   7.414   1.186  1.00  0.00     0.000 A 
HETATM   17  C   UNL     1      -5.596   6.915   1.896  1.00  0.00     0.002 A 
HETATM   18  C   UNL     1      -5.206   5.578   1.743  1.00  0.00     0.029 A 
ENDBRANCH  11  13
ENDBRANCH   5   9
ENDBRANCH   3   5
BRANCH   1  19
HETATM   19  C   UNL     1      -1.901   0.507  -0.732  1.00  0.00     0.080 A 
HETATM   20  C   UNL     1      -1.053   1.397  -0.056  1.00  0.00     0.131 A 
HETATM   21  C   UNL     1       0.344   1.235  -0.030  1.00  0.00     0.045 A 
HETATM   22  C   UNL     1       0.934   0.151  -0.683  1.00  0.00    -0.059 A 
HETATM   23  C   UNL     1       2.426  -0.019  -0.695  1.00  0.00     0.048 C 
HETATM   24  C   UNL     1       0.111  -0.764  -1.346  1.00  0.00     0.009 A 
HETATM   25  C   UNL     1      -1.280  -0.582  -1.372  1.00  0.00     0.034 A 
BRANCH  20  26
HETATM   26  N   UNL     1      -1.567   2.558   0.641  1.00  0.00    -0.113 N 
HETATM   27  O   UNL     1      -1.247   3.664   0.192  1.00  0.00    -0.532 OA
HETATM   28  O   UNL     1      -2.223   2.370   1.677  1.00  0.00    -0.532 OA
ENDBRANCH  20  26
ENDBRANCH   1  19
TORSDOF 6
