REMARK  4 active torsions:
REMARK  status: ('A' for Active; 'I' for Inactive)
REMARK    1  A    between atoms: C_9  and  O_25 
REMARK    2  A    between atoms: C_10  and  N_11 
REMARK    3  A    between atoms: N_13  and  C_15 
REMARK    4  A    between atoms: C_18  and  N_21 
ROOT
HETATM    1  N   UNL     1       1.357  -2.545   0.222  1.00  0.00    -0.297 N 
ATOM      2  HN  UNL     1       0.787  -3.149   0.814  1.00  0.00     0.187 HD
HETATM    3  N   UNL     1       2.329  -2.959  -0.442  1.00  0.00    -0.299 N 
ATOM      4  HN  UNL     1       2.878  -2.366  -1.064  1.00  0.00     0.187 HD
ENDROOT
BRANCH   1   5
HETATM    5  C   UNL     1       1.119  -1.150   0.074  1.00  0.00     0.092 A 
HETATM    6  C   UNL     1      -0.234  -0.693   0.032  1.00  0.00     0.005 A 
HETATM    7  C   UNL     1      -1.346  -1.569   0.038  1.00  0.00     0.014 A 
HETATM    8  C   UNL     1      -0.504   0.699  -0.009  1.00  0.00    -0.024 A 
HETATM    9  C   UNL     1      -2.661  -1.091   0.011  1.00  0.00     0.001 A 
HETATM   10  C   UNL     1      -2.901   0.276  -0.017  1.00  0.00     0.001 A 
HETATM   11  C   UNL     1      -1.828   1.165  -0.027  1.00  0.00     0.012 A 
HETATM   12  C   UNL     1       0.555   1.614  -0.018  1.00  0.00     0.015 A 
HETATM   13  C   UNL     1       1.875   1.179   0.016  1.00  0.00     0.040 A 
HETATM   14  C   UNL     1       2.152  -0.186   0.073  1.00  0.00     0.094 A 
BRANCH  14  15
HETATM   15  O   UNL     1       3.466  -0.573   0.164  1.00  0.00    -0.358 OA
HETATM   16  H   UNL     1       4.038   0.193   0.003  1.00  0.00     0.217 HD
ENDBRANCH  14  15
ENDBRANCH   1   5
BRANCH   3  17
HETATM   17  C   UNL     1       2.593  -4.337  -0.244  1.00  0.00     0.070 A 
HETATM   18  C   UNL     1       3.349  -5.043  -1.201  1.00  0.00     0.064 A 
HETATM   19  C   UNL     1       3.632  -6.409  -1.051  1.00  0.00     0.062 A 
HETATM   20 CL   UNL     1       3.971  -4.253  -2.610  1.00  0.00    -0.082 Cl
HETATM   21  C   UNL     1       3.165  -7.085   0.080  1.00  0.00     0.104 A 
HETATM   22  C   UNL     1       2.432  -6.409   1.058  1.00  0.00     0.038 A 
HETATM   23  C   UNL     1       2.158  -5.045   0.894  1.00  0.00     0.035 A 
BRANCH  21  24
HETATM   24  N   UNL     1       3.458  -8.515   0.247  1.00  0.00    -0.116 N 
HETATM   25  O   UNL     1       4.124  -9.074  -0.636  1.00  0.00    -0.532 OA
HETATM   26  O   UNL     1       3.024  -9.076   1.262  1.00  0.00    -0.532 OA
ENDBRANCH  21  24
ENDBRANCH   3  17
TORSDOF 4
