REMARK  12 active torsions:
REMARK  status: ('A' for Active; 'I' for Inactive)
REMARK    1  A    between atoms: C_2  and  N_3 
REMARK    2  A    between atoms: N_3  and  C_4 
REMARK    3  A    between atoms: N_3  and  C_15 
REMARK    4  A    between atoms: C_4  and  C_5 
REMARK    5  A    between atoms: C_7  and  S_11 
REMARK    6  A    between atoms: C_18  and  C_21 
REMARK    7  A    between atoms: C_21  and  C_42 
REMARK    8  A    between atoms: N_26  and  C_27 
REMARK    9  A    between atoms: N_26  and  C_29 
REMARK   10  A    between atoms: C_29  and  C_30 
REMARK   11  A    between atoms: C_32  and  S_36 
REMARK   12  A    between atoms: C_47  and  S_48 
ROOT
HETATM    1  H   UNL     1       1.783   2.613   1.283  1.00  0.00     0.271 HD
HETATM    2  H   UNL     1       1.081   1.927   2.639  1.00  0.00     0.271 HD
HETATM    3  H   UNL     1       0.289   1.831   1.165  1.00  0.00     0.271 HD
HETATM    4  H   UNL     1       0.415   3.304   1.947  1.00  0.00     0.271 HD
HETATM    5  N   UNL     2       0.893   2.418   1.757  1.00  0.00    -0.084 N 
ENDROOT
TORSDOF 12
