REMARK  5 active torsions:
REMARK  status: ('A' for Active; 'I' for Inactive)
REMARK    1  A    between atoms: C_5  and  C_6 
REMARK    2  A    between atoms: C_5  and  C_14 
REMARK    3  A    between atoms: C_9  and  N_12 
REMARK    4  A    between atoms: C_17  and  N_20 
REMARK    5  A    between atoms: N_25  and  H_31 
ROOT
HETATM    1  C   UNL     1       1.121   0.120  -0.025  1.00  0.00     0.050 C 
HETATM    2  C   UNL     1       2.610   0.136  -0.015  1.00  0.00    -0.035 C 
HETATM    3  C   UNL     1       3.287   1.291  -0.086  1.00  0.00     0.021 C 
HETATM    4  C   UNL     1       4.746   1.349  -0.035  1.00  0.00    -0.024 C 
HETATM    5  C   UNL     1       5.381   2.542   0.173  1.00  0.00    -0.005 C 
HETATM    6  C   UNL     1       5.462   0.087  -0.263  1.00  0.00     0.014 C 
HETATM    7  C   UNL     1       4.831  -1.103  -0.190  1.00  0.00     0.030 C 
HETATM    8  C   UNL     1       3.365  -1.144   0.073  1.00  0.00     0.032 C 
HETATM    9  N   UNL     1       2.780  -2.250   0.346  1.00  0.00    -0.387 N 
HETATM   10  H   UNL     1       3.274  -3.141   0.418  1.00  0.00     0.157 HD
ENDROOT
BRANCH   5  11
HETATM   11  C   UNL     1       6.866   2.597   0.158  1.00  0.00    -0.024 A 
HETATM   12  C   UNL     1       7.537   2.855  -1.045  1.00  0.00     0.021 A 
HETATM   13  C   UNL     1       8.941   2.841  -1.102  1.00  0.00    -0.040 A 
HETATM   14  C   UNL     1       9.679   2.626   0.074  1.00  0.00     0.011 A 
HETATM   15  C   UNL     1       9.615   3.069  -2.429  1.00  0.00     0.050 C 
HETATM   16  C   UNL     1       8.996   2.343   1.266  1.00  0.00     0.024 A 
HETATM   17  C   UNL     1       7.601   2.349   1.315  1.00  0.00     0.014 A 
BRANCH  14  18
HETATM   18  N   UNL     1      11.073   2.450   0.045  1.00  0.00    -0.302 NA
HETATM   19  H   UNL     1      11.534   2.958  -0.702  1.00  0.00     0.124 HD
HETATM   20  H   UNL     1      11.519   2.615   0.942  1.00  0.00     0.124 HD
ENDBRANCH  14  18
ENDBRANCH   5  11
BRANCH   5  21
HETATM   21  C   UNL     1       4.612   3.777   0.478  1.00  0.00    -0.024 A 
HETATM   22  C   UNL     1       4.261   4.100   1.796  1.00  0.00     0.021 A 
HETATM   23  C   UNL     1       3.533   5.270   2.091  1.00  0.00    -0.040 A 
HETATM   24  C   UNL     1       3.126   6.115   1.042  1.00  0.00     0.011 A 
HETATM   25  C   UNL     1       3.200   5.591   3.524  1.00  0.00     0.050 C 
HETATM   26  C   UNL     1       3.512   5.799  -0.268  1.00  0.00     0.024 A 
HETATM   27  C   UNL     1       4.226   4.634  -0.555  1.00  0.00     0.014 A 
BRANCH  24  28
HETATM   28  N   UNL     1       2.556   7.373   1.292  1.00  0.00    -0.302 NA
HETATM   29  H   UNL     1       2.022   7.428   2.152  1.00  0.00     0.124 HD
HETATM   30  H   UNL     1       2.042   7.755   0.504  1.00  0.00     0.124 HD
ENDBRANCH  24  28
ENDBRANCH   5  21
BRANCH   9  31
HETATM   31  H   UNL     1       1.770  -2.292   0.518  1.00  0.00     0.269 HD
HETATM   32 CL   UNL     2      -2.104  -1.046   0.227  1.00  0.00    -0.127 Cl
ENDBRANCH   9  31
TORSDOF 5
