REMARK  3 active torsions:
REMARK  status: ('A' for Active; 'I' for Inactive)
REMARK    1  A    between atoms: C_5  and  N_8 
REMARK    2  A    between atoms: N_8  and  C_9 
REMARK    3  A    between atoms: C_12  and  O_15 
ROOT
HETATM    1  C   UNL     1      -4.268   1.114  -0.522  1.00  0.00     0.048 C 
HETATM    2  C   UNL     1      -4.244   2.057  -1.551  1.00  0.00     0.059 C 
HETATM    3  C   UNL     1      -4.665   3.374  -1.322  1.00  0.00     0.064 C 
HETATM    4  C   UNL     1      -5.347   3.694  -0.147  1.00  0.00     0.081 C 
HETATM    5  C   UNL     1      -5.483   2.742   0.852  1.00  0.00     0.040 C 
HETATM    6  C   UNL     1      -4.885   1.483   0.693  1.00  0.00     0.033 C 
HETATM    7  C   UNL     1      -4.202   4.431  -2.243  1.00  0.00     0.197 C 
HETATM    8  O   UNL     1      -4.595   5.586  -2.102  1.00  0.00    -0.286 OA
HETATM    9  C   UNL     1      -3.219   4.075  -3.276  1.00  0.00     0.029 C 
HETATM   10  C   UNL     1      -2.344   5.027  -3.801  1.00  0.00     0.016 C 
HETATM   11  C   UNL     1      -1.478   4.662  -4.834  1.00  0.00     0.001 C 
HETATM   12  C   UNL     1      -1.539   3.379  -5.386  1.00  0.00     0.001 C 
HETATM   13  C   UNL     1      -2.386   2.420  -4.833  1.00  0.00     0.016 C 
HETATM   14  C   UNL     1      -3.163   2.760  -3.725  1.00  0.00     0.029 C 
HETATM   15  C   UNL     1      -3.803   1.710  -2.918  1.00  0.00     0.196 C 
HETATM   16  O   UNL     1      -3.921   0.567  -3.340  1.00  0.00    -0.286 OA
ENDROOT
BRANCH   1  17
HETATM   17  N   UNL     1      -3.478  -0.069  -0.598  1.00  0.00    -0.355 N 
HETATM   18  H   UNL     1      -3.303  -0.327  -1.580  1.00  0.00     0.166 HD
BRANCH  17  19
HETATM   19  C   UNL     1      -3.664  -1.230   0.174  1.00  0.00     0.032 A 
HETATM   20  C   UNL     1      -4.936  -1.787   0.334  1.00  0.00     0.030 A 
HETATM   21  C   UNL     1      -5.118  -2.931   1.107  1.00  0.00     0.009 A 
HETATM   22  C   UNL     1      -4.024  -3.559   1.708  1.00  0.00    -0.062 A 
HETATM   23  C   UNL     1      -4.222  -4.749   2.597  1.00  0.00     0.048 C 
HETATM   24  C   UNL     1      -2.739  -3.050   1.482  1.00  0.00     0.009 A 
HETATM   25  C   UNL     1      -2.560  -1.902   0.704  1.00  0.00     0.030 A 
ENDBRANCH  17  19
ENDBRANCH   1  17
BRANCH   4  26
HETATM   26  O   UNL     1      -5.873   4.931   0.098  1.00  0.00    -0.360 OA
HETATM   27  H   UNL     1      -5.663   5.514  -0.666  1.00  0.00     0.217 HD
ENDBRANCH   4  26
TORSDOF 3
