REMARK  10 active torsions:
REMARK  status: ('A' for Active; 'I' for Inactive)
REMARK    1  A    between atoms: C_3  and  C_10 
REMARK    2  A    between atoms: C_11  and  C_12 
REMARK    3  A    between atoms: C_13  and  C_14 
REMARK    4  A    between atoms: C_15  and  C_16 
REMARK    5  A    between atoms: C_17  and  C_18 
REMARK    6  A    between atoms: C_19  and  C_20 
REMARK    7  A    between atoms: C_21  and  C_23 
REMARK    8  A    between atoms: C_24  and  C_25 
REMARK    9  A    between atoms: C_26  and  C_28 
REMARK   10  A    between atoms: C_29  and  C_30 
ROOT
HETATM    1  C   UNL     1      -2.045  -1.916   1.011  1.00  0.00     0.001 C 
HETATM    2  C   UNL     1      -1.856  -0.860   1.823  1.00  0.00     0.001 C 
ENDROOT
BRANCH   1   3
HETATM    3  C   UNL     1      -3.076  -2.987   1.200  1.00  0.00     0.007 C 
HETATM    4  C   UNL     1      -4.399  -2.963   0.872  1.00  0.00    -0.062 C 
HETATM    5  C   UNL     1      -5.365  -4.121   1.098  1.00  0.00     0.048 C 
BRANCH   4   6
HETATM    6  C   UNL     1      -5.036  -1.799   0.291  1.00  0.00     0.007 C 
HETATM    7  C   UNL     1      -5.171  -0.695   1.039  1.00  0.00     0.001 C 
BRANCH   7   8
HETATM    8  C   UNL     1      -5.713   0.570   0.643  1.00  0.00     0.007 C 
HETATM    9  C   UNL     1      -6.438   1.324   1.490  1.00  0.00    -0.062 C 
HETATM   10  C   UNL     1      -6.713   2.768   1.160  1.00  0.00     0.048 C 
BRANCH   9  11
HETATM   11  C   UNL     1      -7.016   0.826   2.739  1.00  0.00     0.007 C 
HETATM   12  C   UNL     1      -7.774  -0.284   2.767  1.00  0.00     0.009 C 
BRANCH  12  13
HETATM   13  C   UNL     1      -8.530  -0.862   3.885  1.00  0.00    -0.048 C 
HETATM   14  C   UNL     1      -9.797  -1.309   3.619  1.00  0.00    -0.077 C 
HETATM   15  C   UNL     1     -10.498  -1.347   2.270  1.00  0.00     0.044 C 
HETATM   16  C   UNL     1     -10.702  -1.886   4.683  1.00  0.00     0.034 C 
HETATM   17  C   UNL     1     -10.152  -1.614   6.067  1.00  0.00     0.005 C 
HETATM   18  C   UNL     1      -8.713  -2.130   6.088  1.00  0.00     0.014 C 
HETATM   19  C   UNL     1      -7.796  -1.185   5.252  1.00  0.00    -0.020 C 
HETATM   20  C   UNL     1      -6.479  -1.949   4.951  1.00  0.00     0.020 C 
HETATM   21  C   UNL     1      -7.392  -0.029   6.221  1.00  0.00     0.020 C 
ENDBRANCH  12  13
ENDBRANCH   9  11
ENDBRANCH   7   8
ENDBRANCH   4   6
ENDBRANCH   1   3
BRANCH   2  22
HETATM   22  C   UNL     1      -1.050   0.386   1.839  1.00  0.00     0.007 C 
HETATM   23  C   UNL     1       0.022   0.929   1.209  1.00  0.00    -0.062 C 
HETATM   24  C   UNL     1       0.856   0.335   0.103  1.00  0.00     0.048 C 
BRANCH  23  25
HETATM   25  C   UNL     1       0.448   2.351   1.432  1.00  0.00     0.007 C 
HETATM   26  C   UNL     1       1.524   2.807   2.119  1.00  0.00     0.001 C 
BRANCH  26  27
HETATM   27  C   UNL     1       2.152   4.133   1.884  1.00  0.00     0.007 C 
HETATM   28  C   UNL     1       3.026   4.815   2.674  1.00  0.00    -0.062 C 
HETATM   29  C   UNL     1       3.292   4.435   4.112  1.00  0.00     0.048 C 
BRANCH  28  30
HETATM   30  C   UNL     1       3.829   5.966   2.152  1.00  0.00     0.007 C 
HETATM   31  C   UNL     1       4.694   6.713   2.874  1.00  0.00     0.009 C 
BRANCH  31  32
HETATM   32  C   UNL     1       5.656   7.742   2.428  1.00  0.00    -0.048 C 
HETATM   33  C   UNL     1       5.300   8.894   1.802  1.00  0.00    -0.077 C 
HETATM   34  C   UNL     1       6.306   9.952   1.377  1.00  0.00     0.034 C 
HETATM   35  C   UNL     1       3.883   9.314   1.497  1.00  0.00     0.044 C 
HETATM   36  C   UNL     1       7.765   9.520   1.429  1.00  0.00     0.005 C 
HETATM   37  C   UNL     1       8.029   8.751   2.708  1.00  0.00     0.014 C 
HETATM   38  C   UNL     1       7.145   7.475   2.827  1.00  0.00    -0.020 C 
HETATM   39  C   UNL     1       7.307   7.006   4.295  1.00  0.00     0.020 C 
HETATM   40  C   UNL     1       7.726   6.377   1.908  1.00  0.00     0.020 C 
ENDBRANCH  31  32
ENDBRANCH  28  30
ENDBRANCH  26  27
ENDBRANCH  23  25
ENDBRANCH   2  22
TORSDOF 10
