REMARK  0 active torsions:
REMARK  status: ('A' for Active; 'I' for Inactive)
ROOT
HETATM    1  C   UNL     1       1.065  -0.307  -0.085  1.00  0.00     0.049 C 
HETATM    2  C   UNL     1       2.562  -0.181  -0.091  1.00  0.00    -0.045 A 
HETATM    3  C   UNL     1       3.133   1.107  -0.092  1.00  0.00     0.031 A 
HETATM    4  C   UNL     1       4.521   1.277  -0.097  1.00  0.00     0.035 A 
HETATM    5  C   UNL     1       5.372   0.175  -0.102  1.00  0.00     0.043 A 
HETATM    6  C   UNL     1       4.815  -1.098  -0.102  1.00  0.00     0.022 A 
HETATM    7  C   UNL     1       3.434  -1.282  -0.096  1.00  0.00     0.038 A 
HETATM    8  C   UNL     1       3.088  -2.723  -0.096  1.00  0.00     0.202 A 
HETATM    9  O   UNL     1       1.932  -3.108  -0.091  1.00  0.00    -0.286 OA
HETATM   10  C   UNL     1       4.326  -3.602  -0.101  1.00  0.00     0.077 A 
HETATM   11  C   UNL     1       4.341  -4.950  -0.100  1.00  0.00     0.077 A 
HETATM   12  C   UNL     1       5.581  -5.825  -0.107  1.00  0.00     0.202 A 
HETATM   13  O   UNL     1       6.738  -5.439  -0.114  1.00  0.00    -0.286 OA
HETATM   14  C   UNL     1       5.236  -7.270  -0.102  1.00  0.00     0.038 A 
HETATM   15  C   UNL     1       3.855  -7.454  -0.093  1.00  0.00     0.022 A 
HETATM   16  S   UNL     1       2.914  -5.960  -0.091  1.00  0.00    -0.084 SA
HETATM   17  C   UNL     1       3.299  -8.728  -0.088  1.00  0.00     0.043 A 
HETATM   18  C   UNL     1       4.150  -9.829  -0.092  1.00  0.00     0.035 A 
HETATM   19  C   UNL     1       5.538  -9.658  -0.100  1.00  0.00     0.031 A 
HETATM   20  C   UNL     1       6.109  -8.371  -0.105  1.00  0.00    -0.045 A 
HETATM   21  C   UNL     1       7.605  -8.243  -0.115  1.00  0.00     0.049 C 
HETATM   22 CL   UNL     1       3.487 -11.417  -0.088  1.00  0.00    -0.084 Cl
HETATM   23  S   UNL     1       5.754  -2.593  -0.108  1.00  0.00    -0.084 SA
HETATM   24 CL   UNL     1       5.187   2.864  -0.097  1.00  0.00    -0.084 Cl
ENDROOT
TORSDOF 0
