REMARK  7 active torsions:
REMARK  status: ('A' for Active; 'I' for Inactive)
REMARK    1  A    between atoms: C_2  and  C_3 
REMARK    2  A    between atoms: C_2  and  C_9 
REMARK    3  A    between atoms: C_3  and  C_4 
REMARK    4  A    between atoms: C_4  and  C_5 
REMARK    5  A    between atoms: C_9  and  C_10 
REMARK    6  A    between atoms: C_10  and  O_11 
REMARK    7  A    between atoms: O_11  and  C_12 
ROOT
HETATM    1  C   UNL     1       1.098  -0.007  -0.067  1.00  0.00     0.010 C 
HETATM    2  C   UNL     1       2.632  -0.045  -0.031  1.00  0.00    -0.016 C 
ENDROOT
BRANCH   2   3
HETATM    3  C   UNL     1       3.111   0.644   1.268  1.00  0.00     0.008 C 
BRANCH   3   4
HETATM    4  C   UNL     1       4.633   0.771   1.377  1.00  0.00     0.027 C 
BRANCH   4   5
HETATM    5  C   UNL     1       5.057   1.403   2.673  1.00  0.00    -0.025 C 
HETATM    6  C   UNL     1       5.305   0.760   3.832  1.00  0.00    -0.091 C 
HETATM    7  C   UNL     1       5.122  -0.718   4.048  1.00  0.00     0.042 C 
HETATM    8  C   UNL     1       5.793   1.508   5.044  1.00  0.00     0.042 C 
ENDBRANCH   4   5
ENDBRANCH   3   4
ENDBRANCH   2   3
BRANCH   2   9
HETATM    9  C   UNL     1       3.158  -1.489  -0.135  1.00  0.00     0.031 C 
BRANCH   9  10
HETATM   10  C   UNL     1       2.790  -2.205  -1.434  1.00  0.00     0.179 C 
BRANCH  10  11
HETATM   11  O   UNL     1       3.349  -3.530  -1.432  1.00  0.00    -0.322 OA
BRANCH  11  12
HETATM   12  C   UNL     1       2.616  -4.467  -0.769  1.00  0.00     0.254 C 
HETATM   13  O   UNL     1       1.558  -4.265  -0.190  1.00  0.00    -0.266 OA
HETATM   14  C   UNL     1       3.292  -5.802  -0.817  1.00  0.00     0.126 C 
ENDBRANCH  11  12
ENDBRANCH  10  11
ENDBRANCH   9  10
ENDBRANCH   2   9
TORSDOF 7
