REMARK  6 active torsions:
REMARK  status: ('A' for Active; 'I' for Inactive)
REMARK    1  A    between atoms: C_2  and  C_3 
REMARK    2  A    between atoms: C_2  and  C_9 
REMARK    3  A    between atoms: C_3  and  C_4 
REMARK    4  A    between atoms: C_4  and  C_5 
REMARK    5  A    between atoms: C_9  and  C_10 
REMARK    6  A    between atoms: C_10  and  O_11 
ROOT
HETATM    1  C   UNL     1       2.949   0.780  -1.187  1.00  0.00     0.010 C 
HETATM    2  C   UNL     1       2.468  -0.036   0.020  1.00  0.00    -0.016 C 
ENDROOT
BRANCH   2   3
HETATM    3  C   UNL     1       2.942  -1.498  -0.150  1.00  0.00     0.008 C 
BRANCH   3   4
HETATM    4  C   UNL     1       2.422  -2.450   0.931  1.00  0.00     0.027 C 
BRANCH   4   5
HETATM    5  C   UNL     1       2.942  -3.849   0.755  1.00  0.00    -0.025 C 
HETATM    6  C   UNL     1       4.086  -4.347   1.272  1.00  0.00    -0.091 C 
HETATM    7  C   UNL     1       5.091  -3.546   2.054  1.00  0.00     0.042 C 
HETATM    8  C   UNL     1       4.458  -5.792   1.080  1.00  0.00     0.042 C 
ENDBRANCH   4   5
ENDBRANCH   3   4
ENDBRANCH   2   3
BRANCH   2   9
HETATM    9  C   UNL     1       2.960   0.579   1.345  1.00  0.00     0.030 C 
BRANCH   9  10
HETATM   10  C   UNL     1       2.438   1.987   1.614  1.00  0.00     0.164 C 
BRANCH  10  11
HETATM   11  O   UNL     1       2.881   2.423   2.895  1.00  0.00    -0.401 OA
HETATM   12  H   UNL     1       2.531   1.801   3.555  1.00  0.00     0.209 HD
ENDBRANCH  10  11
ENDBRANCH   9  10
ENDBRANCH   2   9
TORSDOF 6
