REMARK  4 active torsions:
REMARK  status: ('A' for Active; 'I' for Inactive)
REMARK    1  A    between atoms: C_3  and  C_4 
REMARK    2  A    between atoms: C_4  and  C_5 
REMARK    3  A    between atoms: C_5  and  C_6 
REMARK    4  A    between atoms: C_7  and  C_8 
ROOT
HETATM    1  C   UNL     1       3.363   3.622  -0.407  1.00  0.00     0.037 C 
ENDROOT
BRANCH   1   2
HETATM    2  C   UNL     1       2.453   2.389  -0.308  1.00  0.00     0.031 C 
BRANCH   2   3
HETATM    3  C   UNL     1       3.167   1.073  -0.125  1.00  0.00    -0.024 C 
HETATM    4  C   UNL     1       2.535  -0.110   0.032  1.00  0.00    -0.091 C 
HETATM    5  C   UNL     1       1.037  -0.264   0.046  1.00  0.00     0.042 C 
HETATM    6  C   UNL     1       3.303  -1.394   0.202  1.00  0.00     0.042 C 
ENDBRANCH   2   3
ENDBRANCH   1   2
BRANCH   1   7
HETATM    7  C   UNL     1       2.550   4.872  -0.709  1.00  0.00    -0.081 C 
HETATM    8  C   UNL     1       2.089   5.761   0.193  1.00  0.00     0.043 C 
HETATM    9  C   UNL     1       2.230   5.109  -2.163  1.00  0.00     0.043 C 
BRANCH   8  10
HETATM   10  C   UNL     1       2.252   5.701   1.660  1.00  0.00     0.259 C 
HETATM   11  O   UNL     1       1.774   6.571   2.381  1.00  0.00    -0.302 OA
ENDBRANCH   8  10
ENDBRANCH   1   7
TORSDOF 4
