REMARK  10 active torsions:
REMARK  status: ('A' for Active; 'I' for Inactive)
REMARK    1  A    between atoms: O_2  and  C_3 
REMARK    2  A    between atoms: C_4  and  O_27 
REMARK    3  A    between atoms: C_7  and  C_9 
REMARK    4  A    between atoms: C_10  and  C_11 
REMARK    5  A    between atoms: C_11  and  C_13 
REMARK    6  A    between atoms: C_13  and  C_14 
REMARK    7  A    between atoms: C_14  and  C_16 
REMARK    8  A    between atoms: C_17  and  C_18 
REMARK    9  A    between atoms: C_20  and  O_25 
REMARK   10  A    between atoms: C_21  and  O_24 
ROOT
HETATM    1  C   UNL     1       9.941   4.411  -0.062  1.00  0.00     0.165 C 
ENDROOT
BRANCH   1   2
HETATM    2  C   UNL     1       9.109   3.156  -0.039  1.00  0.00     0.156 C 
HETATM    3  O   UNL     1       8.338   2.928   0.892  1.00  0.00    -0.293 OA
BRANCH   2   4
HETATM    4  C   UNL     1       9.223   2.222  -1.199  1.00  0.00     0.051 C 
HETATM    5  C   UNL     1       8.469   1.114  -1.262  1.00  0.00     0.015 C 
BRANCH   5   6
HETATM    6  C   UNL     1       8.529   0.128  -2.356  1.00  0.00    -0.033 A 
HETATM    7  C   UNL     1       9.703  -0.130  -3.063  1.00  0.00     0.014 A 
HETATM    8  C   UNL     1       9.718  -1.099  -4.068  1.00  0.00     0.040 A 
HETATM    9  C   UNL     1       8.574  -1.836  -4.389  1.00  0.00     0.099 A 
HETATM   10  C   UNL     1       7.386  -1.606  -3.692  1.00  0.00     0.102 A 
HETATM   11  C   UNL     1       7.388  -0.625  -2.677  1.00  0.00     0.051 A 
BRANCH   9  12
HETATM   12  O   UNL     1       8.791  -2.739  -5.382  1.00  0.00    -0.358 OA
HETATM   13  H   UNL     1       7.959  -3.071  -5.731  1.00  0.00     0.217 HD
ENDBRANCH   9  12
BRANCH  10  14
HETATM   14  O   UNL     1       6.159  -2.201  -3.811  1.00  0.00    -0.353 OA
HETATM   15  C   UNL     1       5.920  -3.216  -4.762  1.00  0.00     0.210 C 
ENDBRANCH  10  14
ENDBRANCH   5   6
ENDBRANCH   2   4
ENDBRANCH   1   2
BRANCH   1  16
HETATM   16  C   UNL     1      11.422   4.152  -0.101  1.00  0.00     0.156 C 
HETATM   17  O   UNL     1      12.003   3.971  -1.171  1.00  0.00    -0.293 OA
BRANCH  16  18
HETATM   18  C   UNL     1      12.154   4.101   1.200  1.00  0.00     0.051 C 
HETATM   19  C   UNL     1      13.484   3.918   1.197  1.00  0.00     0.015 C 
BRANCH  19  20
HETATM   20  C   UNL     1      14.352   3.883   2.385  1.00  0.00    -0.033 A 
HETATM   21  C   UNL     1      13.920   3.452   3.647  1.00  0.00     0.051 A 
HETATM   22  C   UNL     1      14.782   3.405   4.763  1.00  0.00     0.102 A 
HETATM   23  C   UNL     1      16.111   3.801   4.589  1.00  0.00     0.099 A 
HETATM   24  C   UNL     1      16.557   4.214   3.330  1.00  0.00     0.040 A 
HETATM   25  C   UNL     1      15.692   4.248   2.236  1.00  0.00     0.014 A 
BRANCH  22  26
HETATM   26  O   UNL     1      14.122   2.966   5.875  1.00  0.00    -0.353 OA
HETATM   27  C   UNL     1      14.773   2.838   7.122  1.00  0.00     0.210 C 
ENDBRANCH  22  26
BRANCH  23  28
HETATM   28  O   UNL     1      17.087   3.846   5.540  1.00  0.00    -0.358 OA
HETATM   29  H   UNL     1      16.837   3.322   6.308  1.00  0.00     0.217 HD
ENDBRANCH  23  28
ENDBRANCH  19  20
ENDBRANCH  16  18
ENDBRANCH   1  16
TORSDOF 10
