REMARK  0 active torsions:
REMARK  status: ('A' for Active; 'I' for Inactive)
ROOT
HETATM    1  C   UNL     1       1.092  -0.157   1.602  1.00  0.00    -0.000 C 
HETATM    2 SI   UNL     1       2.713  -0.015   0.658  1.00  0.00     0.000 Si
HETATM    3  O   UNL     1       2.849   1.489  -0.046  1.00  0.00     0.000 OA
HETATM    4 SI   UNL     1       1.973   2.848  -0.451  1.00  0.00     0.000 Si
HETATM    5  O   UNL     1       2.133   3.120  -2.100  1.00  0.00     0.000 OA
HETATM    6 SI   UNL     1       1.440   2.503  -3.500  1.00  0.00     0.000 Si
HETATM    7  O   UNL     1       1.540   0.844  -3.416  1.00  0.00     0.000 OA
HETATM    8 SI   UNL     1       0.615  -0.538  -3.402  1.00  0.00     0.000 Si
HETATM    9  O   UNL     1       1.549  -1.798  -2.815  1.00  0.00     0.000 OA
HETATM   10 SI   UNL     1       2.048  -2.385  -1.326  1.00  0.00     0.000 Si
HETATM   11  O   UNL     1       2.870  -1.186  -0.516  1.00  0.00     0.000 OA
HETATM   12  C   UNL     1       0.567  -2.991  -0.323  1.00  0.00    -0.000 C 
HETATM   13  C   UNL     1       3.133  -3.913  -1.534  1.00  0.00    -0.000 C 
HETATM   14  C   UNL     1      -0.904  -0.370  -2.303  1.00  0.00    -0.000 C 
HETATM   15  C   UNL     1      -0.043  -0.867  -5.128  1.00  0.00    -0.000 C 
HETATM   16  C   UNL     1      -0.356   3.075  -3.615  1.00  0.00    -0.000 C 
HETATM   17  C   UNL     1       2.270   3.157  -5.054  1.00  0.00    -0.000 C 
HETATM   18  C   UNL     1       0.137   2.696  -0.039  1.00  0.00    -0.000 C 
HETATM   19  C   UNL     1       2.547   4.318   0.573  1.00  0.00    -0.000 C 
HETATM   20  C   UNL     1       4.058  -0.271   1.959  1.00  0.00    -0.000 C 
ENDROOT
TORSDOF 0
