REMARK  6 active torsions:
REMARK  status: ('A' for Active; 'I' for Inactive)
REMARK    1  A    between atoms: C_2  and  C_7 
REMARK    2  A    between atoms: C_7  and  C_8 
REMARK    3  A    between atoms: C_8  and  N_9 
REMARK       I    between atoms: N_9  and  C_10 
REMARK    4  A    between atoms: C_10  and  C_12 
REMARK    5  A    between atoms: C_12  and  C_13 
REMARK    6  A    between atoms: C_13  and  N_14 
ROOT
HETATM    1  C   UNL     1       1.443  -3.278   0.003  1.00  0.00     0.128 C 
ENDROOT
BRANCH   1   2
HETATM    2  C   UNL     1       1.822  -1.793  -0.075  1.00  0.00     0.078 C 
BRANCH   2   3
HETATM    3  C   UNL     1       0.611  -0.890  -0.131  1.00  0.00     0.027 A 
HETATM    4  C   UNL     1      -0.724  -1.252  -0.127  1.00  0.00     0.114 A 
HETATM    5  N   UNL     1      -1.484  -0.142  -0.181  1.00  0.00    -0.360 N 
HETATM    6  C   UNL     1      -0.603   0.877  -0.216  1.00  0.00     0.180 A 
ATOM      7  HN  UNL     1      -2.502  -0.085  -0.193  1.00  0.00     0.166 HD
HETATM    8  N   UNL     1       0.674   0.452  -0.188  1.00  0.00    -0.355 N 
HETATM    9  H   UNL     1       1.527   1.052  -0.197  1.00  0.00     0.166 HD
ENDBRANCH   2   3
ENDBRANCH   1   2
BRANCH   1  10
HETATM   10  N   UNL     1       2.612  -4.139   0.046  1.00  0.00    -0.361 N 
HETATM   11  C   UNL     1       2.481  -5.494   0.119  1.00  0.00     0.219 C 
HETATM   12  O   UNL     1       1.369  -6.003   0.146  1.00  0.00    -0.274 OA
HETATM   13  H   UNL     1       3.556  -3.722   0.014  1.00  0.00     0.162 HD
BRANCH  11  14
HETATM   14  C   UNL     1       3.690  -6.394   0.145  1.00  0.00     0.132 C 
BRANCH  14  15
HETATM   15  C   UNL     1       4.557  -6.149   1.383  1.00  0.00     0.276 C 
BRANCH  15  16
HETATM   16  N   UNL     1       5.694  -7.065   1.388  1.00  0.00     0.078 N 
HETATM   17  H   UNL     1       5.344  -8.047   1.476  1.00  0.00     0.312 HD
HETATM   18  H   UNL     1       6.281  -6.861   2.229  1.00  0.00     0.312 HD
ENDBRANCH  15  16
ENDBRANCH  14  15
ENDBRANCH  11  14
ENDBRANCH   1  10
TORSDOF 6
