REMARK  10 active torsions:
REMARK  status: ('A' for Active; 'I' for Inactive)
REMARK    1  A    between atoms: C_2  and  C_3 
REMARK    2  A    between atoms: C_3  and  C_4 
REMARK    3  A    between atoms: C_4  and  C_5 
REMARK    4  A    between atoms: C_5  and  C_6 
REMARK    5  A    between atoms: C_6  and  C_7 
REMARK    6  A    between atoms: C_7  and  C_8 
REMARK    7  A    between atoms: C_8  and  C_9 
REMARK    8  A    between atoms: C_9  and  C_10 
REMARK    9  A    between atoms: C_9  and  O_12 
REMARK   10  A    between atoms: C_10  and  O_11 
ROOT
HETATM    1  C   UNL     1       7.060   4.313  -0.593  1.00  0.00     0.002 C 
ENDROOT
BRANCH   1   2
HETATM    2  C   UNL     1       6.569   2.869  -0.480  1.00  0.00     0.000 C 
BRANCH   2   3
HETATM    3  C   UNL     1       5.041   2.834  -0.442  1.00  0.00     0.000 C 
BRANCH   3   4
HETATM    4  C   UNL     1       4.502   1.412  -0.304  1.00  0.00     0.000 C 
BRANCH   4   5
HETATM    5  C   UNL     1       2.972   1.414  -0.273  1.00  0.00    -0.000 C 
BRANCH   5   6
HETATM    6  C   UNL     1       2.411  -0.000  -0.138  1.00  0.00    -0.005 C 
HETATM    7  C   UNL     1       0.891   0.009  -0.107  1.00  0.00     0.005 C 
ENDBRANCH   5   6
ENDBRANCH   4   5
ENDBRANCH   3   4
ENDBRANCH   2   3
ENDBRANCH   1   2
BRANCH   1   8
HETATM    8  C   UNL     1       8.584   4.407  -0.612  1.00  0.00     0.034 C 
BRANCH   8   9
HETATM    9  C   UNL     1       9.091   5.848  -0.747  1.00  0.00     0.141 C 
BRANCH   9  10
HETATM   10  C   UNL     1       8.673   6.765   0.412  1.00  0.00     0.195 C 
BRANCH  10  11
HETATM   11  O   UNL     1       9.226   8.065   0.223  1.00  0.00    -0.398 OA
HETATM   12  H   UNL     1      10.111   7.924  -0.168  1.00  0.00     0.209 HD
ENDBRANCH  10  11
ENDBRANCH   9  10
BRANCH   9  13
HETATM   13  O   UNL     1      10.526   5.838  -0.805  1.00  0.00    -0.393 OA
HETATM   14  H   UNL     1      10.853   5.335  -0.039  1.00  0.00     0.210 HD
ENDBRANCH   9  13
ENDBRANCH   8   9
ENDBRANCH   1   8
TORSDOF 10
