REMARK  1 active torsions:
REMARK  status: ('A' for Active; 'I' for Inactive)
REMARK    1  A    between atoms: C_6  and  C_10 
ROOT
HETATM    1  C   UNL     1       1.055  -0.118  -0.028  1.00  0.00     0.077 C 
HETATM    2  C   UNL     1       2.547  -0.016   0.015  1.00  0.00     0.056 C 
HETATM    3  C   UNL     1       3.197   1.149   0.052  1.00  0.00     0.084 C 
HETATM    4  C   UNL     1       4.661   1.132   0.104  1.00  0.00     0.172 C 
HETATM    5  O   UNL     1       5.263   2.192   0.277  1.00  0.00    -0.292 OA
HETATM    6  C   UNL     1       5.380  -0.163  -0.067  1.00  0.00     0.228 C 
HETATM    7  C   UNL     1       4.549  -1.398   0.011  1.00  0.00     0.282 C 
HETATM    8  O   UNL     1       5.073  -2.510   0.055  1.00  0.00    -0.264 OA
HETATM    9  O   UNL     1       3.197  -1.264   0.037  1.00  0.00    -0.283 OA
ENDROOT
BRANCH   6  10
HETATM   10  C   UNL     1       6.167  -0.163  -1.351  1.00  0.00     0.144 C 
HETATM   11  O   UNL     1       5.608  -0.000  -2.438  1.00  0.00    -0.297 OA
HETATM   12  C   UNL     1       7.654  -0.389  -1.278  1.00  0.00     0.092 C 
ENDBRANCH   6  10
TORSDOF 1
