REMARK  22 active torsions:
REMARK  status: ('A' for Active; 'I' for Inactive)
REMARK    1  A    between atoms: C_1  and  C_2 
REMARK    2  A    between atoms: C_1  and  O_34 
REMARK    3  A    between atoms: C_3  and  O_33 
REMARK    4  A    between atoms: C_4  and  O_32 
REMARK    5  A    between atoms: C_5  and  O_31 
REMARK    6  A    between atoms: C_6  and  O_8 
REMARK    7  A    between atoms: O_8  and  C_9 
REMARK    8  A    between atoms: C_9  and  C_10 
REMARK    9  A    between atoms: C_11  and  O_30 
REMARK   10  A    between atoms: C_12  and  O_29 
REMARK   11  A    between atoms: C_13  and  O_28 
REMARK   12  A    between atoms: C_14  and  O_16 
REMARK   13  A    between atoms: O_16  and  C_17 
REMARK   14  A    between atoms: C_17  and  C_18 
REMARK   15  A    between atoms: C_18  and  C_19 
REMARK   16  A    between atoms: C_18  and  O_27 
REMARK   17  A    between atoms: C_19  and  C_20 
REMARK   18  A    between atoms: C_19  and  O_26 
REMARK   19  A    between atoms: C_20  and  C_21 
REMARK   20  A    between atoms: C_20  and  O_25 
REMARK   21  A    between atoms: C_21  and  C_22 
REMARK   22  A    between atoms: C_21  and  O_24 
ROOT
HETATM    1  C   UNL     1      -5.153  -0.368  -0.497  1.00  0.00     0.180 C 
HETATM    2  C   UNL     1      -5.814  -1.719  -0.194  1.00  0.00     0.180 C 
HETATM    3  C   UNL     1      -5.784  -2.642  -1.421  1.00  0.00     0.183 C 
HETATM    4  C   UNL     1      -6.377  -1.968  -2.669  1.00  0.00     0.204 C 
HETATM    5  C   UNL     1      -5.678  -0.598  -2.861  1.00  0.00     0.291 C 
HETATM    6  O   UNL     1      -5.701   0.217  -1.687  1.00  0.00    -0.348 OA
ENDROOT
BRANCH   1   7
HETATM    7  C   UNL     1      -3.618  -0.412  -0.555  1.00  0.00     0.205 C 
BRANCH   7   8
HETATM    8  O   UNL     1      -3.037   0.876  -0.822  1.00  0.00    -0.356 OA
BRANCH   8   9
HETATM    9  C   UNL     1      -3.297   1.846   0.202  1.00  0.00     0.291 C 
HETATM   10  C   UNL     1      -2.510   3.123  -0.134  1.00  0.00     0.204 C 
HETATM   11  C   UNL     1      -2.712   4.145   0.992  1.00  0.00     0.183 C 
HETATM   12  C   UNL     1      -2.334   3.537   2.355  1.00  0.00     0.180 C 
HETATM   13  C   UNL     1      -3.068   2.199   2.580  1.00  0.00     0.179 C 
HETATM   14  O   UNL     1      -2.890   1.314   1.462  1.00  0.00    -0.348 OA
BRANCH  10  15
HETATM   15  O   UNL     1      -1.103   2.804  -0.244  1.00  0.00    -0.388 OA
HETATM   16  H   UNL     1      -1.075   1.978  -0.771  1.00  0.00     0.210 HD
ENDBRANCH  10  15
BRANCH  11  17
HETATM   17  O   UNL     1      -1.925   5.309   0.726  1.00  0.00    -0.390 OA
HETATM   18  H   UNL     1      -0.998   4.995   0.706  1.00  0.00     0.210 HD
ENDBRANCH  11  17
BRANCH  12  19
HETATM   19  O   UNL     1      -0.913   3.291   2.401  1.00  0.00    -0.390 OA
HETATM   20  H   UNL     1      -0.688   2.768   1.602  1.00  0.00     0.210 HD
ENDBRANCH  12  19
BRANCH  13  21
HETATM   21  C   UNL     1      -4.559   2.345   2.916  1.00  0.00     0.198 C 
BRANCH  21  22
HETATM   22  O   UNL     1      -4.760   3.077   4.111  1.00  0.00    -0.398 OA
HETATM   23  H   UNL     1      -4.454   2.529   4.857  1.00  0.00     0.209 HD
ENDBRANCH  21  22
ENDBRANCH  13  21
ENDBRANCH   8   9
ENDBRANCH   7   8
ENDBRANCH   1   7
BRANCH   2  24
HETATM   24  O   UNL     1      -7.175  -1.481   0.224  1.00  0.00    -0.390 OA
HETATM   25  H   UNL     1      -7.553  -0.750  -0.287  1.00  0.00     0.210 HD
ENDBRANCH   2  24
BRANCH   3  26
HETATM   26  O   UNL     1      -6.501  -3.846  -1.137  1.00  0.00    -0.390 OA
HETATM   27  H   UNL     1      -7.443  -3.572  -1.105  1.00  0.00     0.210 HD
ENDBRANCH   3  26
BRANCH   5  28
HETATM   28  O   UNL     1      -6.130   0.183  -3.965  1.00  0.00    -0.356 OA
BRANCH  28  29
HETATM   29  C   UNL     1      -7.481   0.635  -3.976  1.00  0.00     0.205 C 
BRANCH  29  30
HETATM   30  C   UNL     1      -7.924   1.488  -2.766  1.00  0.00     0.173 C 
BRANCH  30  31
HETATM   31  C   UNL     1      -7.207   2.862  -2.730  1.00  0.00     0.180 C 
BRANCH  31  32
HETATM   32  C   UNL     1      -7.465   3.674  -1.441  1.00  0.00     0.184 C 
BRANCH  32  33
HETATM   33  C   UNL     1      -6.720   5.027  -1.461  1.00  0.00     0.210 C 
BRANCH  33  34
HETATM   34  C   UNL     1      -7.192   5.886  -2.627  1.00  0.00     0.265 C 
HETATM   35  O   UNL     1      -8.306   5.771  -3.140  1.00  0.00    -0.304 OA
ENDBRANCH  33  34
BRANCH  33  36
HETATM   36  O   UNL     1      -6.961   5.724  -0.242  1.00  0.00    -0.386 OA
HETATM   37  H   UNL     1      -7.901   5.572  -0.019  1.00  0.00     0.210 HD
ENDBRANCH  33  36
ENDBRANCH  32  33
BRANCH  32  38
HETATM   38  O   UNL     1      -8.855   3.892  -1.183  1.00  0.00    -0.390 OA
HETATM   39  H   UNL     1      -9.190   4.494  -1.887  1.00  0.00     0.210 HD
ENDBRANCH  32  38
ENDBRANCH  31  32
BRANCH  31  40
HETATM   40  O   UNL     1      -5.787   2.765  -2.881  1.00  0.00    -0.390 OA
HETATM   41  H   UNL     1      -5.520   1.848  -2.670  1.00  0.00     0.210 HD
ENDBRANCH  31  40
ENDBRANCH  30  31
BRANCH  30  42
HETATM   42  O   UNL     1      -9.351   1.567  -2.792  1.00  0.00    -0.391 OA
HETATM   43  H   UNL     1      -9.619   2.406  -3.206  1.00  0.00     0.210 HD
ENDBRANCH  30  42
ENDBRANCH  29  30
ENDBRANCH  28  29
ENDBRANCH   5  28
BRANCH   4  44
HETATM   44  O   UNL     1      -7.807  -1.934  -2.514  1.00  0.00    -0.388 OA
HETATM   45  H   UNL     1      -8.100  -1.060  -2.213  1.00  0.00     0.210 HD
ENDBRANCH   4  44
TORSDOF 22
