REMARK  2 active torsions:
REMARK  status: ('A' for Active; 'I' for Inactive)
REMARK    1  A    between atoms: C_2  and  N_11 
REMARK    2  A    between atoms: N_3  and  O_10 
ROOT
HETATM    1  C   UNL     1      -1.128  -0.796  -0.031  1.00  0.00     0.062 C 
HETATM    2  C   UNL     1       0.039  -1.465   0.040  1.00  0.00     0.126 C 
HETATM    3  N   UNL     1       1.209  -0.710   0.123  1.00  0.00    -0.042 N 
HETATM    4  C   UNL     1       1.205   0.676   0.047  1.00  0.00     0.703 C 
HETATM    5  N   UNL     1       2.281   1.390  -0.053  1.00  0.00    -0.232 N 
ATOM      6  HN  UNL     1       2.354   2.406  -0.096  1.00  0.00     0.174 HD
HETATM    7  N   UNL     1       0.033   1.386   0.069  1.00  0.00    -0.200 N 
ATOM      8  HN  UNL     1       0.015   2.405   0.117  1.00  0.00     0.183 HD
HETATM    9  C   UNL     1      -1.046   0.680   0.025  1.00  0.00     0.109 C 
HETATM   10  H   UNL     1       3.044   0.704  -0.079  1.00  0.00     0.174 HD
ENDROOT
BRANCH   2  11
HETATM   11  N   UNL     1       0.061  -2.853   0.018  1.00  0.00    -0.286 NA
HETATM   12  H   UNL     1      -0.871  -3.265   0.078  1.00  0.00     0.125 HD
HETATM   13  H   UNL     1       0.645  -3.234   0.756  1.00  0.00     0.125 HD
ENDBRANCH   2  11
BRANCH   3  14
HETATM   14  O   UNL     1       2.468  -1.299  -0.042  1.00  0.00    -0.268 OA
HETATM   15  H   UNL     1       2.284  -2.246   0.074  1.00  0.00     0.246 HD
ENDBRANCH   3  14
TORSDOF 2
