REMARK  9 active torsions:
REMARK  status: ('A' for Active; 'I' for Inactive)
REMARK    1  A    between atoms: C_1  and  N_2 
REMARK    2  A    between atoms: C_1  and  O_19 
REMARK       I    between atoms: N_2  and  C_3 
REMARK       I    between atoms: C_3  and  N_5 
REMARK    3  A    between atoms: N_5  and  C_6 
REMARK    4  A    between atoms: N_5  and  C_8 
REMARK    5  A    between atoms: C_6  and  O_7 
REMARK    6  A    between atoms: N_11  and  C_17 
REMARK    7  A    between atoms: N_14  and  C_15 
REMARK    8  A    between atoms: C_15  and  O_16 
REMARK    9  A    between atoms: C_17  and  O_18 
ROOT
HETATM    1  C   UNL     1      -2.729  -1.530   3.086  1.00  0.00     0.292 C 
HETATM    2  C   UNL     1      -3.172  -2.906   3.615  1.00  0.00     0.272 C 
HETATM    3  O   UNL     1      -2.862  -3.989   3.124  1.00  0.00    -0.268 OA
HETATM    4  N   UNL     1      -3.872  -2.721   4.771  1.00  0.00    -0.244 N 
HETATM    5  C   UNL     1      -3.858  -1.403   5.113  1.00  0.00     0.332 C 
HETATM    6  O   UNL     1      -4.407  -0.924   6.097  1.00  0.00    -0.246 OA
HETATM    7  N   UNL     1      -3.126  -0.686   4.187  1.00  0.00    -0.282 N 
ENDROOT
BRANCH   1   8
HETATM    8  N   UNL     1      -1.309  -1.436   2.793  1.00  0.00    -0.282 N 
HETATM    9  C   UNL     1      -0.947  -0.609   1.756  1.00  0.00     0.323 C 
HETATM   10  N   UNL     1       0.382  -0.467   1.504  1.00  0.00    -0.322 N 
HETATM   11  O   UNL     1      -1.789  -0.001   1.089  1.00  0.00    -0.247 OA
HETATM   12  H   UNL     1       1.061  -0.720   2.199  1.00  0.00     0.166 HD
BRANCH  10  13
HETATM   13  C   UNL     1       0.875   0.390   0.473  1.00  0.00     0.291 C 
BRANCH  13  14
HETATM   14  O   UNL     1       1.080   1.654   1.058  1.00  0.00    -0.382 OA
HETATM   15  H   UNL     1       0.187   2.019   1.185  1.00  0.00     0.211 HD
ENDBRANCH  13  14
ENDBRANCH  10  13
BRANCH   8  16
HETATM   16  C   UNL     1      -0.400  -2.155   3.664  1.00  0.00     0.297 C 
BRANCH  16  17
HETATM   17  O   UNL     1      -0.108  -3.407   3.086  1.00  0.00    -0.382 OA
HETATM   18  H   UNL     1      -0.935  -3.928   3.064  1.00  0.00     0.211 HD
ENDBRANCH  16  17
ENDBRANCH   8  16
ENDBRANCH   1   8
BRANCH   7  19
HETATM   19  C   UNL     1      -3.172   0.741   4.014  1.00  0.00     0.297 C 
BRANCH  19  20
HETATM   20  O   UNL     1      -3.259   1.385   5.266  1.00  0.00    -0.382 OA
HETATM   21  H   UNL     1      -3.941   0.904   5.773  1.00  0.00     0.211 HD
ENDBRANCH  19  20
ENDBRANCH   7  19
BRANCH   4  22
HETATM   22  C   UNL     1      -4.253  -3.808   5.626  1.00  0.00     0.303 C 
BRANCH  22  23
HETATM   23  O   UNL     1      -5.392  -3.472   6.387  1.00  0.00    -0.382 OA
HETATM   24  H   UNL     1      -5.266  -2.551   6.689  1.00  0.00     0.211 HD
ENDBRANCH  22  23
ENDBRANCH   4  22
TORSDOF 9
