REMARK  13 active torsions:
REMARK  status: ('A' for Active; 'I' for Inactive)
REMARK    1  A    between atoms: C_2  and  C_3 
REMARK    2  A    between atoms: C_3  and  C_4 
REMARK    3  A    between atoms: C_4  and  O_5 
REMARK    4  A    between atoms: O_5  and  C_6 
REMARK    5  A    between atoms: C_6  and  C_8 
REMARK    6  A    between atoms: C_8  and  C_9 
REMARK    7  A    between atoms: C_9  and  C_10 
REMARK    8  A    between atoms: C_10  and  C_11 
REMARK    9  A    between atoms: C_11  and  C_12 
REMARK   10  A    between atoms: C_12  and  O_14 
REMARK   11  A    between atoms: O_14  and  C_15 
REMARK   12  A    between atoms: C_15  and  C_16 
REMARK   13  A    between atoms: C_16  and  C_17 
ROOT
HETATM    1  C   UNL     1       8.392  -0.541   4.427  1.00  0.00     0.010 C 
ENDROOT
BRANCH   1   2
HETATM    2  C   UNL     1       6.860  -0.542   4.348  1.00  0.00     0.111 C 
BRANCH   2   3
HETATM    3  C   UNL     1       6.391  -0.347   2.914  1.00  0.00     0.258 C 
HETATM    4  O   UNL     1       7.116  -0.162   1.954  1.00  0.00    -0.265 OA
BRANCH   3   5
HETATM    5  O   UNL     1       5.027  -0.287   2.881  1.00  0.00    -0.321 OA
BRANCH   5   6
HETATM    6  C   UNL     1       4.517   0.918   2.289  1.00  0.00     0.178 C 
BRANCH   6   7
HETATM    7  C   UNL     1       3.724   0.645   1.018  1.00  0.00     0.026 C 
BRANCH   7   8
HETATM    8  C   UNL     1       3.158   1.938   0.422  1.00  0.00    -0.002 C 
HETATM    9  C   UNL     1       2.375   1.671  -0.854  1.00  0.00     0.005 C 
ENDBRANCH   7   8
ENDBRANCH   6   7
ENDBRANCH   5   6
ENDBRANCH   3   5
ENDBRANCH   2   3
ENDBRANCH   1   2
BRANCH   1  10
HETATM   10  C   UNL     1       8.912  -0.743   5.851  1.00  0.00     0.010 C 
BRANCH  10  11
HETATM   11  C   UNL     1      10.445  -0.764   5.923  1.00  0.00     0.111 C 
BRANCH  11  12
HETATM   12  C   UNL     1      10.923  -0.974   7.345  1.00  0.00     0.258 C 
HETATM   13  O   UNL     1      10.190  -1.068   8.329  1.00  0.00    -0.265 OA
BRANCH  12  14
HETATM   14  O   UNL     1      12.282  -0.919   7.403  1.00  0.00    -0.321 OA
BRANCH  14  15
HETATM   15  C   UNL     1      12.781   0.076   8.310  1.00  0.00     0.178 C 
BRANCH  15  16
HETATM   16  C   UNL     1      13.577  -0.536   9.455  1.00  0.00     0.026 C 
BRANCH  16  17
HETATM   17  C   UNL     1      14.137   0.543  10.387  1.00  0.00    -0.002 C 
HETATM   18  C   UNL     1      14.922  -0.064  11.539  1.00  0.00     0.005 C 
ENDBRANCH  16  17
ENDBRANCH  15  16
ENDBRANCH  14  15
ENDBRANCH  12  14
ENDBRANCH  11  12
ENDBRANCH  10  11
ENDBRANCH   1  10
TORSDOF 13
