REMARK  18 active torsions:
REMARK  status: ('A' for Active; 'I' for Inactive)
REMARK    1  A    between atoms: C_2  and  C_3 
REMARK    2  A    between atoms: C_3  and  C_4 
REMARK    3  A    between atoms: C_4  and  C_5 
REMARK    4  A    between atoms: C_5  and  C_6 
REMARK    5  A    between atoms: C_6  and  C_7 
REMARK    6  A    between atoms: C_7  and  C_8 
REMARK    7  A    between atoms: C_8  and  O_9 
REMARK    8  A    between atoms: O_9  and  C_10 
REMARK    9  A    between atoms: C_10  and  C_12 
REMARK   10  A    between atoms: C_13  and  C_14 
REMARK   11  A    between atoms: C_14  and  O_16 
REMARK   12  A    between atoms: O_16  and  C_17 
REMARK   13  A    between atoms: C_17  and  C_18 
REMARK   14  A    between atoms: C_18  and  C_19 
REMARK   15  A    between atoms: C_19  and  C_20 
REMARK   16  A    between atoms: C_20  and  C_21 
REMARK   17  A    between atoms: C_21  and  C_22 
REMARK   18  A    between atoms: C_22  and  C_23 
ROOT
HETATM    1  C   UNL     1      10.941  -1.829  -7.033  1.00  0.00     0.088 C 
HETATM    2  C   UNL     1      12.247  -1.908  -7.349  1.00  0.00     0.088 C 
ENDROOT
BRANCH   1   3
HETATM    3  C   UNL     1      10.537  -1.488  -5.647  1.00  0.00     0.283 C 
HETATM    4  O   UNL     1      11.313  -1.283  -4.731  1.00  0.00    -0.260 OA
BRANCH   3   5
HETATM    5  O   UNL     1       9.175  -1.494  -5.557  1.00  0.00    -0.318 OA
BRANCH   5   6
HETATM    6  C   UNL     1       8.634  -2.397  -4.569  1.00  0.00     0.179 C 
BRANCH   6   7
HETATM    7  C   UNL     1       7.838  -1.677  -3.480  1.00  0.00     0.027 C 
BRANCH   7   8
HETATM    8  C   UNL     1       7.252  -2.658  -2.451  1.00  0.00     0.002 C 
BRANCH   8   9
HETATM    9  C   UNL     1       6.463  -1.939  -1.350  1.00  0.00     0.000 C 
BRANCH   9  10
HETATM   10  C   UNL     1       5.886  -2.926  -0.328  1.00  0.00     0.000 C 
BRANCH  10  11
HETATM   11  C   UNL     1       5.099  -2.198   0.764  1.00  0.00    -0.000 C 
BRANCH  11  12
HETATM   12  C   UNL     1       4.522  -3.175   1.788  1.00  0.00    -0.005 C 
HETATM   13  C   UNL     1       3.744  -2.442   2.869  1.00  0.00     0.005 C 
ENDBRANCH  11  12
ENDBRANCH  10  11
ENDBRANCH   9  10
ENDBRANCH   8   9
ENDBRANCH   7   8
ENDBRANCH   6   7
ENDBRANCH   5   6
ENDBRANCH   3   5
ENDBRANCH   1   3
BRANCH   2  14
HETATM   14  C   UNL     1      12.692  -2.248  -8.716  1.00  0.00     0.283 C 
HETATM   15  O   UNL     1      11.937  -2.506  -9.659  1.00  0.00    -0.260 OA
BRANCH  14  16
HETATM   16  O   UNL     1      14.053  -2.299  -8.782  1.00  0.00    -0.318 OA
BRANCH  16  17
HETATM   17  C   UNL     1      14.582  -3.565  -9.224  1.00  0.00     0.179 C 
BRANCH  17  18
HETATM   18  C   UNL     1      15.391  -3.455 -10.519  1.00  0.00     0.027 C 
BRANCH  18  19
HETATM   19  C   UNL     1      15.966  -4.813 -10.958  1.00  0.00     0.002 C 
BRANCH  19  20
HETATM   20  C   UNL     1      16.766  -4.704 -12.263  1.00  0.00     0.000 C 
BRANCH  20  21
HETATM   21  C   UNL     1      17.336  -6.060 -12.697  1.00  0.00     0.000 C 
BRANCH  21  22
HETATM   22  C   UNL     1      18.131  -5.936 -13.999  1.00  0.00    -0.000 C 
BRANCH  22  23
HETATM   23  C   UNL     1      18.702  -7.284 -14.439  1.00  0.00    -0.005 C 
HETATM   24  C   UNL     1      19.490  -7.150 -15.732  1.00  0.00     0.005 C 
ENDBRANCH  22  23
ENDBRANCH  21  22
ENDBRANCH  20  21
ENDBRANCH  19  20
ENDBRANCH  18  19
ENDBRANCH  17  18
ENDBRANCH  16  17
ENDBRANCH  14  16
ENDBRANCH   2  14
TORSDOF 18
