REMARK  13 active torsions:
REMARK  status: ('A' for Active; 'I' for Inactive)
REMARK    1  A    between atoms: C_2  and  C_3 
REMARK    2  A    between atoms: C_3  and  C_4 
REMARK    3  A    between atoms: C_4  and  C_5 
REMARK    4  A    between atoms: C_5  and  C_6 
REMARK    5  A    between atoms: C_6  and  O_7 
REMARK    6  A    between atoms: O_7  and  C_8 
REMARK    7  A    between atoms: C_8  and  C_10 
REMARK    8  A    between atoms: C_15  and  C_16 
REMARK    9  A    between atoms: C_16  and  C_18 
REMARK   10  A    between atoms: C_19  and  O_29 
REMARK   11  A    between atoms: C_21  and  N_24 
REMARK   12  A    between atoms: N_24  and  C_25 
REMARK   13  A    between atoms: N_24  and  C_27 
ROOT
HETATM    1  C   UNL     1       8.931   4.384   3.829  1.00  0.00     0.053 C 
HETATM    2  C   UNL     1       8.300   4.584   5.069  1.00  0.00     0.018 C 
HETATM    3  C   UNL     1       8.864   5.452   6.004  1.00  0.00     0.001 C 
HETATM    4  C   UNL     1      10.057   6.112   5.720  1.00  0.00     0.001 C 
HETATM    5  C   UNL     1      10.640   5.977   4.461  1.00  0.00     0.016 C 
HETATM    6  C   UNL     1      10.046   5.164   3.491  1.00  0.00     0.031 C 
ENDROOT
BRANCH   6   7
HETATM    7  C   UNL     1      10.629   5.258   2.113  1.00  0.00     0.196 C 
HETATM    8  O   UNL     1      11.801   5.466   1.960  1.00  0.00    -0.287 OA
BRANCH   7   9
HETATM    9  C   UNL     1       9.743   5.246   0.922  1.00  0.00     0.048 A 
HETATM   10  C   UNL     1      10.137   4.827  -0.345  1.00  0.00     0.082 A 
HETATM   11  C   UNL     1       9.278   5.031  -1.449  1.00  0.00     0.066 A 
HETATM   12  C   UNL     1       8.004   5.637  -1.326  1.00  0.00     0.032 A 
HETATM   13  C   UNL     1       7.623   5.924  -0.006  1.00  0.00     0.030 A 
HETATM   14  C   UNL     1       8.475   5.781   1.089  1.00  0.00     0.020 A 
BRANCH  10  15
HETATM   15  O   UNL     1      11.344   4.238  -0.612  1.00  0.00    -0.360 OA
HETATM   16  H   UNL     1      11.804   4.057   0.228  1.00  0.00     0.217 HD
ENDBRANCH  10  15
BRANCH  12  17
HETATM   17  N   UNL     1       7.220   6.012  -2.426  1.00  0.00    -0.382 N 
BRANCH  17  18
HETATM   18  C   UNL     1       5.732   5.986  -2.469  1.00  0.00     0.118 C 
HETATM   19  C   UNL     1       4.981   7.282  -2.187  1.00  0.00     0.026 C 
ENDBRANCH  17  18
BRANCH  17  20
HETATM   20  C   UNL     1       7.899   6.494  -3.650  1.00  0.00     0.118 C 
HETATM   21  C   UNL     1       8.657   7.803  -3.451  1.00  0.00     0.026 C 
ENDBRANCH  17  20
ENDBRANCH  12  17
ENDBRANCH   7   9
ENDBRANCH   6   7
BRANCH   1  22
HETATM   22  C   UNL     1       8.431   3.263   2.989  1.00  0.00     0.294 C 
HETATM   23  O   UNL     1       7.304   2.810   3.088  1.00  0.00    -0.259 OA
BRANCH  22  24
HETATM   24  O   UNL     1       9.443   2.760   2.243  1.00  0.00    -0.317 OA
BRANCH  24  25
HETATM   25  C   UNL     1       9.729   1.368   2.442  1.00  0.00     0.179 C 
BRANCH  25  26
HETATM   26  C   UNL     1       8.721   0.464   1.753  1.00  0.00     0.027 C 
BRANCH  26  27
HETATM   27  C   UNL     1       8.702   0.692   0.240  1.00  0.00     0.002 C 
BRANCH  27  28
HETATM   28  C   UNL     1       7.683  -0.214  -0.451  1.00  0.00    -0.000 C 
BRANCH  28  29
HETATM   29  C   UNL     1       7.666   0.011  -1.964  1.00  0.00    -0.005 C 
HETATM   30  C   UNL     1       6.650  -0.892  -2.648  1.00  0.00     0.005 C 
ENDBRANCH  28  29
ENDBRANCH  27  28
ENDBRANCH  26  27
ENDBRANCH  25  26
ENDBRANCH  24  25
ENDBRANCH  22  24
ENDBRANCH   1  22
TORSDOF 13
