REMARK  19 active torsions:
REMARK  status: ('A' for Active; 'I' for Inactive)
REMARK    1  A    between atoms: C_2  and  C_3 
REMARK    2  A    between atoms: C_3  and  C_4 
REMARK    3  A    between atoms: C_4  and  C_5 
REMARK    4  A    between atoms: C_5  and  C_6 
REMARK    5  A    between atoms: C_5  and  C_8 
REMARK    6  A    between atoms: C_8  and  O_9 
REMARK    7  A    between atoms: O_9  and  C_10 
REMARK    8  A    between atoms: C_10  and  C_12 
REMARK    9  A    between atoms: C_12  and  C_13 
REMARK   10  A    between atoms: C_13  and  C_14 
REMARK   11  A    between atoms: C_14  and  C_15 
REMARK   12  A    between atoms: C_15  and  C_16 
REMARK   13  A    between atoms: C_16  and  O_18 
REMARK   14  A    between atoms: O_18  and  C_19 
REMARK   15  A    between atoms: C_19  and  C_20 
REMARK   16  A    between atoms: C_20  and  C_21 
REMARK   17  A    between atoms: C_20  and  C_23 
REMARK   18  A    between atoms: C_23  and  C_24 
REMARK   19  A    between atoms: C_24  and  C_25 
ROOT
HETATM    1  C   UNL     1      10.397  -4.161  -4.202  1.00  0.00     0.010 C 
ENDROOT
BRANCH   1   2
HETATM    2  C   UNL     1       8.870  -4.093  -4.120  1.00  0.00     0.111 C 
BRANCH   2   3
HETATM    3  C   UNL     1       8.422  -3.140  -3.036  1.00  0.00     0.258 C 
HETATM    4  O   UNL     1       9.175  -2.531  -2.288  1.00  0.00    -0.265 OA
BRANCH   3   5
HETATM    5  O   UNL     1       7.061  -3.130  -2.956  1.00  0.00    -0.321 OA
BRANCH   5   6
HETATM    6  C   UNL     1       6.521  -2.666  -1.708  1.00  0.00     0.183 C 
BRANCH   6   7
HETATM    7  C   UNL     1       6.525  -1.136  -1.536  1.00  0.00     0.010 C 
BRANCH   7   8
HETATM    8  C   UNL     1       5.674  -0.442  -2.626  1.00  0.00     0.007 C 
BRANCH   8   9
HETATM    9  C   UNL     1       5.712   1.087  -2.522  1.00  0.00     0.000 C 
BRANCH   9  10
HETATM   10  C   UNL     1       4.899   1.774  -3.617  1.00  0.00    -0.005 C 
HETATM   11  C   UNL     1       4.982   3.287  -3.471  1.00  0.00     0.005 C 
ENDBRANCH   9  10
ENDBRANCH   8   9
ENDBRANCH   7   8
BRANCH   7  12
HETATM   12  C   UNL     1       6.130  -0.762  -0.089  1.00  0.00     0.002 C 
HETATM   13  C   UNL     1       4.728  -1.177   0.338  1.00  0.00     0.005 C 
ENDBRANCH   7  12
ENDBRANCH   6   7
ENDBRANCH   5   6
ENDBRANCH   3   5
ENDBRANCH   2   3
ENDBRANCH   1   2
BRANCH   1  14
HETATM   14  C   UNL     1      10.869  -5.189  -5.231  1.00  0.00     0.010 C 
BRANCH  14  15
HETATM   15  C   UNL     1      12.396  -5.230  -5.317  1.00  0.00     0.111 C 
BRANCH  15  16
HETATM   16  C   UNL     1      12.886  -6.290  -6.272  1.00  0.00     0.258 C 
HETATM   17  O   UNL     1      12.177  -7.069  -6.904  1.00  0.00    -0.265 OA
BRANCH  16  18
HETATM   18  O   UNL     1      14.248  -6.362  -6.210  1.00  0.00    -0.321 OA
BRANCH  18  19
HETATM   19  C   UNL     1      14.715  -7.690  -5.944  1.00  0.00     0.183 C 
BRANCH  19  20
HETATM   20  C   UNL     1      15.528  -8.311  -7.091  1.00  0.00     0.010 C 
BRANCH  20  21
HETATM   21  C   UNL     1      16.719  -7.426  -7.528  1.00  0.00     0.002 C 
HETATM   22  C   UNL     1      17.782  -7.188  -6.462  1.00  0.00     0.005 C 
ENDBRANCH  20  21
BRANCH  20  23
HETATM   23  C   UNL     1      15.995  -9.739  -6.713  1.00  0.00     0.007 C 
BRANCH  23  24
HETATM   24  C   UNL     1      14.834 -10.699  -6.421  1.00  0.00     0.000 C 
BRANCH  24  25
HETATM   25  C   UNL     1      15.315 -12.093  -6.022  1.00  0.00    -0.005 C 
HETATM   26  C   UNL     1      14.133 -12.996  -5.697  1.00  0.00     0.005 C 
ENDBRANCH  24  25
ENDBRANCH  23  24
ENDBRANCH  20  23
ENDBRANCH  19  20
ENDBRANCH  18  19
ENDBRANCH  16  18
ENDBRANCH  15  16
ENDBRANCH  14  15
ENDBRANCH   1  14
TORSDOF 19
