REMARK  16 active torsions:
REMARK  status: ('A' for Active; 'I' for Inactive)
REMARK    1  A    between atoms: C_2  and  C_3 
REMARK    2  A    between atoms: C_3  and  C_4 
REMARK    3  A    between atoms: C_4  and  C_5 
REMARK    4  A    between atoms: C_5  and  C_6 
REMARK    5  A    between atoms: C_5  and  C_8 
REMARK    6  A    between atoms: C_8  and  O_9 
REMARK    7  A    between atoms: O_9  and  C_10 
REMARK    8  A    between atoms: C_10  and  C_12 
REMARK    9  A    between atoms: C_13  and  C_14 
REMARK   10  A    between atoms: C_14  and  O_16 
REMARK   11  A    between atoms: O_16  and  C_17 
REMARK   12  A    between atoms: C_17  and  C_18 
REMARK   13  A    between atoms: C_18  and  C_19 
REMARK   14  A    between atoms: C_18  and  C_21 
REMARK   15  A    between atoms: C_21  and  C_22 
REMARK   16  A    between atoms: C_22  and  C_23 
ROOT
HETATM    1  C   UNL     1       8.867   4.364   4.030  1.00  0.00     0.088 C 
HETATM    2  C   UNL     1      10.169   4.535   4.319  1.00  0.00     0.088 C 
ENDROOT
BRANCH   1   3
HETATM    3  C   UNL     1       8.493   3.404   2.969  1.00  0.00     0.283 C 
HETATM    4  O   UNL     1       9.297   2.811   2.269  1.00  0.00    -0.260 OA
BRANCH   3   5
HETATM    5  O   UNL     1       7.144   3.399   2.829  1.00  0.00    -0.318 OA
BRANCH   5   6
HETATM    6  C   UNL     1       6.645   2.893   1.573  1.00  0.00     0.183 C 
BRANCH   6   7
HETATM    7  C   UNL     1       6.625   1.354   1.467  1.00  0.00     0.010 C 
BRANCH   7   8
HETATM    8  C   UNL     1       5.746   0.728   2.573  1.00  0.00     0.007 C 
BRANCH   8   9
HETATM    9  C   UNL     1       5.657  -0.806   2.566  1.00  0.00     0.000 C 
BRANCH   9  10
HETATM   10  C   UNL     1       7.000  -1.507   2.782  1.00  0.00    -0.005 C 
HETATM   11  C   UNL     1       6.840  -3.021   2.785  1.00  0.00     0.005 C 
ENDBRANCH   9  10
ENDBRANCH   8   9
ENDBRANCH   7   8
BRANCH   7  12
HETATM   12  C   UNL     1       6.236   0.912   0.037  1.00  0.00     0.002 C 
HETATM   13  C   UNL     1       4.850   1.338  -0.433  1.00  0.00     0.005 C 
ENDBRANCH   7  12
ENDBRANCH   6   7
ENDBRANCH   5   6
ENDBRANCH   3   5
ENDBRANCH   1   3
BRANCH   2  14
HETATM   14  C   UNL     1      10.614   5.693   5.126  1.00  0.00     0.283 C 
HETATM   15  O   UNL     1       9.879   6.564   5.563  1.00  0.00    -0.260 OA
BRANCH  14  16
HETATM   16  O   UNL     1      11.973   5.717   5.093  1.00  0.00    -0.318 OA
BRANCH  16  17
HETATM   17  C   UNL     1      12.531   7.008   4.805  1.00  0.00     0.183 C 
BRANCH  17  18
HETATM   18  C   UNL     1      13.311   7.648   5.968  1.00  0.00     0.010 C 
BRANCH  18  19
HETATM   19  C   UNL     1      14.408   6.725   6.549  1.00  0.00     0.002 C 
HETATM   20  C   UNL     1      15.526   6.345   5.585  1.00  0.00     0.005 C 
ENDBRANCH  18  19
BRANCH  18  21
HETATM   21  C   UNL     1      13.909   9.014   5.537  1.00  0.00     0.007 C 
BRANCH  21  22
HETATM   22  C   UNL     1      12.850  10.039   5.109  1.00  0.00     0.000 C 
BRANCH  22  23
HETATM   23  C   UNL     1      13.470  11.365   4.668  1.00  0.00    -0.005 C 
HETATM   24  C   UNL     1      12.393  12.334   4.200  1.00  0.00     0.005 C 
ENDBRANCH  22  23
ENDBRANCH  21  22
ENDBRANCH  18  21
ENDBRANCH  17  18
ENDBRANCH  16  17
ENDBRANCH  14  16
ENDBRANCH   2  14
TORSDOF 16
