REMARK  16 active torsions:
REMARK  status: ('A' for Active; 'I' for Inactive)
REMARK    1  A    between atoms: C_2  and  C_3 
REMARK    2  A    between atoms: C_3  and  C_4 
REMARK    3  A    between atoms: C_4  and  C_5 
REMARK    4  A    between atoms: C_5  and  C_6 
REMARK    5  A    between atoms: C_5  and  C_8 
REMARK    6  A    between atoms: C_8  and  O_9 
REMARK    7  A    between atoms: O_9  and  C_10 
REMARK    8  A    between atoms: C_10  and  C_12 
REMARK    9  A    between atoms: C_17  and  C_18 
REMARK   10  A    between atoms: C_18  and  O_20 
REMARK   11  A    between atoms: O_20  and  C_21 
REMARK   12  A    between atoms: C_21  and  C_22 
REMARK   13  A    between atoms: C_22  and  C_23 
REMARK   14  A    between atoms: C_22  and  C_25 
REMARK   15  A    between atoms: C_25  and  C_26 
REMARK   16  A    between atoms: C_26  and  C_27 
ROOT
HETATM    1  C   UNL     1       9.029  -3.588  -4.332  1.00  0.00     0.055 A 
HETATM    2  C   UNL     1       8.510  -3.655  -5.645  1.00  0.00     0.018 A 
HETATM    3  C   UNL     1       8.959  -4.602  -6.559  1.00  0.00     0.001 A 
HETATM    4  C   UNL     1       9.948  -5.505  -6.179  1.00  0.00     0.001 A 
HETATM    5  C   UNL     1      10.447  -5.478  -4.874  1.00  0.00     0.018 A 
HETATM    6  C   UNL     1       9.974  -4.540  -3.926  1.00  0.00     0.055 A 
ENDROOT
BRANCH   1   7
HETATM    7  C   UNL     1       8.514  -2.500  -3.462  1.00  0.00     0.294 C 
HETATM    8  O   UNL     1       8.285  -2.585  -2.271  1.00  0.00    -0.259 OA
BRANCH   7   9
HETATM    9  O   UNL     1       8.247  -1.418  -4.233  1.00  0.00    -0.317 OA
BRANCH   9  10
HETATM   10  C   UNL     1       7.326  -0.466  -3.678  1.00  0.00     0.183 C 
BRANCH  10  11
HETATM   11  C   UNL     1       7.955   0.454  -2.618  1.00  0.00     0.010 C 
BRANCH  11  12
HETATM   12  C   UNL     1       9.138   1.243  -3.220  1.00  0.00     0.007 C 
BRANCH  12  13
HETATM   13  C   UNL     1       9.877   2.187  -2.265  1.00  0.00     0.000 C 
BRANCH  13  14
HETATM   14  C   UNL     1      10.531   1.493  -1.068  1.00  0.00    -0.005 C 
HETATM   15  C   UNL     1      11.248   2.507  -0.186  1.00  0.00     0.005 C 
ENDBRANCH  13  14
ENDBRANCH  12  13
ENDBRANCH  11  12
BRANCH  11  16
HETATM   16  C   UNL     1       6.862   1.312  -1.949  1.00  0.00     0.002 C 
HETATM   17  C   UNL     1       6.072   2.227  -2.876  1.00  0.00     0.005 C 
ENDBRANCH  11  16
ENDBRANCH  10  11
ENDBRANCH   9  10
ENDBRANCH   7   9
ENDBRANCH   1   7
BRANCH   6  18
HETATM   18  C   UNL     1      10.540  -4.695  -2.558  1.00  0.00     0.294 C 
HETATM   19  O   UNL     1      11.705  -4.996  -2.367  1.00  0.00    -0.259 OA
BRANCH  18  20
HETATM   20  O   UNL     1       9.537  -4.742  -1.646  1.00  0.00    -0.317 OA
BRANCH  20  21
HETATM   21  C   UNL     1       9.793  -5.468  -0.433  1.00  0.00     0.183 C 
BRANCH  21  22
HETATM   22  C   UNL     1      10.003  -4.588   0.820  1.00  0.00     0.010 C 
BRANCH  22  23
HETATM   23  C   UNL     1       8.846  -3.592   1.063  1.00  0.00     0.002 C 
HETATM   24  C   UNL     1       7.487  -4.234   1.320  1.00  0.00     0.005 C 
ENDBRANCH  22  23
BRANCH  22  25
HETATM   25  C   UNL     1      10.235  -5.453   2.086  1.00  0.00     0.007 C 
BRANCH  25  26
HETATM   26  C   UNL     1      11.460  -6.366   1.982  1.00  0.00     0.000 C 
BRANCH  26  27
HETATM   27  C   UNL     1      11.666  -7.206   3.242  1.00  0.00    -0.005 C 
HETATM   28  C   UNL     1      12.871  -8.121   3.080  1.00  0.00     0.005 C 
ENDBRANCH  26  27
ENDBRANCH  25  26
ENDBRANCH  22  25
ENDBRANCH  21  22
ENDBRANCH  20  21
ENDBRANCH  18  20
ENDBRANCH   6  18
TORSDOF 16
