REMARK  13 active torsions:
REMARK  status: ('A' for Active; 'I' for Inactive)
REMARK    1  A    between atoms: C_2  and  O_4 
REMARK    2  A    between atoms: O_4  and  C_5 
REMARK    3  A    between atoms: C_5  and  C_7 
REMARK    4  A    between atoms: C_7  and  C_8 
REMARK    5  A    between atoms: C_8  and  C_9 
REMARK    6  A    between atoms: C_9  and  C_10 
REMARK    7  A    between atoms: C_10  and  C_11 
REMARK    8  A    between atoms: C_11  and  C_12 
REMARK    9  A    between atoms: C_12  and  C_13 
REMARK   10  A    between atoms: C_13  and  C_14 
REMARK   11  A    between atoms: C_14  and  C_15 
REMARK   12  A    between atoms: C_15  and  O_17 
REMARK   13  A    between atoms: O_17  and  C_18 
ROOT
HETATM    1  C   UNL     1       8.359  -3.323   3.113  1.00  0.00     0.000 C 
ENDROOT
BRANCH   1   2
HETATM    2  C   UNL     1       6.826  -3.317   3.109  1.00  0.00     0.000 C 
BRANCH   2   3
HETATM    3  C   UNL     1       6.310  -2.270   2.126  1.00  0.00     0.010 C 
BRANCH   3   4
HETATM    4  C   UNL     1       4.783  -2.202   2.067  1.00  0.00     0.111 C 
BRANCH   4   5
HETATM    5  C   UNL     1       4.356  -1.142   1.073  1.00  0.00     0.259 C 
HETATM    6  O   UNL     1       5.126  -0.462   0.418  1.00  0.00    -0.265 OA
BRANCH   5   7
HETATM    7  O   UNL     1       2.992  -1.061   1.012  1.00  0.00    -0.317 OA
BRANCH   7   8
HETATM    8  C   UNL     1       2.496  -0.095   0.062  1.00  0.00     0.123 C 
HETATM    9  C   UNL     1       2.555  -0.697  -1.335  1.00  0.00     0.040 C 
HETATM   10  C   UNL     1       1.052   0.270   0.411  1.00  0.00     0.040 C 
ENDBRANCH   7   8
ENDBRANCH   5   7
ENDBRANCH   4   5
ENDBRANCH   3   4
ENDBRANCH   2   3
ENDBRANCH   1   2
BRANCH   1  11
HETATM   11  C   UNL     1       8.914  -4.361   4.084  1.00  0.00     0.000 C 
BRANCH  11  12
HETATM   12  C   UNL     1      10.446  -4.366   4.089  1.00  0.00     0.000 C 
BRANCH  12  13
HETATM   13  C   UNL     1      10.964  -5.414   5.071  1.00  0.00     0.010 C 
BRANCH  13  14
HETATM   14  C   UNL     1      12.491  -5.481   5.132  1.00  0.00     0.111 C 
BRANCH  14  15
HETATM   15  C   UNL     1      12.920  -6.539   6.124  1.00  0.00     0.259 C 
HETATM   16  O   UNL     1      12.150  -7.235   6.774  1.00  0.00    -0.265 OA
BRANCH  15  17
HETATM   17  O   UNL     1      14.280  -6.605   6.201  1.00  0.00    -0.317 OA
BRANCH  17  18
HETATM   18  C   UNL     1      14.788  -7.576   7.138  1.00  0.00     0.123 C 
HETATM   19  C   UNL     1      14.756  -8.971   6.520  1.00  0.00     0.040 C 
HETATM   20  C   UNL     1      16.223  -7.194   7.486  1.00  0.00     0.040 C 
ENDBRANCH  17  18
ENDBRANCH  15  17
ENDBRANCH  14  15
ENDBRANCH  13  14
ENDBRANCH  12  13
ENDBRANCH  11  12
ENDBRANCH   1  11
TORSDOF 13
