REMARK  31 active torsions:
REMARK  status: ('A' for Active; 'I' for Inactive)
REMARK    1  A    between atoms: C_2  and  C_3 
REMARK    2  A    between atoms: C_3  and  C_4 
REMARK    3  A    between atoms: C_4  and  C_5 
REMARK    4  A    between atoms: C_5  and  C_6 
REMARK    5  A    between atoms: C_6  and  C_7 
REMARK    6  A    between atoms: C_10  and  C_34 
REMARK    7  A    between atoms: C_11  and  C_19 
REMARK    8  A    between atoms: C_12  and  C_13 
REMARK    9  A    between atoms: C_13  and  C_14 
REMARK   10  A    between atoms: C_14  and  C_15 
REMARK   11  A    between atoms: C_15  and  C_16 
REMARK   12  A    between atoms: C_16  and  C_17 
REMARK   13  A    between atoms: C_20  and  C_21 
REMARK   14  A    between atoms: C_21  and  C_22 
REMARK   15  A    between atoms: C_22  and  C_23 
REMARK   16  A    between atoms: C_23  and  C_24 
REMARK   17  A    between atoms: C_24  and  C_25 
REMARK   18  A    between atoms: C_25  and  C_26 
REMARK   19  A    between atoms: C_26  and  C_27 
REMARK   20  A    between atoms: C_27  and  C_28 
REMARK   21  A    between atoms: C_28  and  O_30 
REMARK   22  A    between atoms: O_30  and  C_31 
REMARK   23  A    between atoms: C_34  and  C_35 
REMARK   24  A    between atoms: C_35  and  C_36 
REMARK   25  A    between atoms: C_36  and  C_37 
REMARK   26  A    between atoms: C_37  and  C_38 
REMARK   27  A    between atoms: C_38  and  C_39 
REMARK   28  A    between atoms: C_39  and  C_40 
REMARK   29  A    between atoms: C_40  and  C_41 
REMARK   30  A    between atoms: C_41  and  O_43 
REMARK   31  A    between atoms: O_43  and  C_44 
ROOT
HETATM    1  C   UNL     1       6.964   3.024  -3.137  1.00  0.00     0.012 C 
HETATM    2  C   UNL     1       6.158   3.030  -4.412  1.00  0.00    -0.025 C 
HETATM    3  C   UNL     1       5.673   4.129  -4.997  1.00  0.00    -0.025 C 
HETATM    4  C   UNL     1       5.943   5.530  -4.506  1.00  0.00     0.016 C 
HETATM    5  C   UNL     1       7.135   5.558  -3.498  1.00  0.00     0.020 C 
HETATM    6  C   UNL     1       6.956   4.423  -2.424  1.00  0.00     0.001 C 
ENDROOT
BRANCH   5   7
HETATM    7  C   UNL     1       8.480   5.433  -4.196  1.00  0.00    -0.025 C 
HETATM    8  C   UNL     1       9.464   6.340  -4.168  1.00  0.00    -0.030 C 
BRANCH   8   9
HETATM    9  C   UNL     1      10.759   6.129  -4.894  1.00  0.00     0.027 C 
BRANCH   9  10
HETATM   10  C   UNL     1      11.927   6.125  -3.914  1.00  0.00     0.004 C 
BRANCH  10  11
HETATM   11  C   UNL     1      13.244   5.857  -4.638  1.00  0.00     0.000 C 
BRANCH  11  12
HETATM   12  C   UNL     1      14.405   5.866  -3.652  1.00  0.00     0.000 C 
BRANCH  12  13
HETATM   13  C   UNL     1      15.735   5.608  -4.356  1.00  0.00     0.000 C 
BRANCH  13  14
HETATM   14  C   UNL     1      16.869   5.638  -3.340  1.00  0.00     0.010 C 
BRANCH  14  15
HETATM   15  C   UNL     1      18.230   5.394  -3.984  1.00  0.00     0.111 C 
BRANCH  15  16
HETATM   16  C   UNL     1      19.312   5.463  -2.934  1.00  0.00     0.259 C 
HETATM   17  O   UNL     1      19.123   5.706  -1.750  1.00  0.00    -0.265 OA
BRANCH  16  18
HETATM   18  O   UNL     1      20.527   5.218  -3.498  1.00  0.00    -0.317 OA
BRANCH  18  19
HETATM   19  C   UNL     1      21.640   5.257  -2.585  1.00  0.00     0.123 C 
HETATM   20  C   UNL     1      21.750   3.923  -1.853  1.00  0.00     0.040 C 
HETATM   21  C   UNL     1      22.893   5.531  -3.406  1.00  0.00     0.040 C 
ENDBRANCH  18  19
ENDBRANCH  16  18
ENDBRANCH  15  16
ENDBRANCH  14  15
ENDBRANCH  13  14
ENDBRANCH  12  13
ENDBRANCH  11  12
ENDBRANCH  10  11
ENDBRANCH   9  10
ENDBRANCH   8   9
ENDBRANCH   5   7
BRANCH   4  22
HETATM   22  C   UNL     1       6.129   6.514  -5.680  1.00  0.00     0.009 C 
BRANCH  22  23
HETATM   23  C   UNL     1       4.861   6.629  -6.529  1.00  0.00     0.001 C 
BRANCH  23  24
HETATM   24  C   UNL     1       5.046   7.587  -7.695  1.00  0.00     0.000 C 
BRANCH  24  25
HETATM   25  C   UNL     1       3.785   7.594  -8.550  1.00  0.00     0.000 C 
BRANCH  25  26
HETATM   26  C   UNL     1       3.928   8.536  -9.738  1.00  0.00     0.000 C 
BRANCH  26  27
HETATM   27  C   UNL     1       2.649   8.524 -10.563  1.00  0.00     0.010 C 
BRANCH  27  28
HETATM   28  C   UNL     1       2.738   9.458 -11.765  1.00  0.00     0.111 C 
BRANCH  28  29
HETATM   29  C   UNL     1       1.454   9.402 -12.559  1.00  0.00     0.259 C 
HETATM   30  O   UNL     1       0.503   8.682 -12.303  1.00  0.00    -0.265 OA
BRANCH  29  31
HETATM   31  O   UNL     1       1.520  10.273 -13.604  1.00  0.00    -0.317 OA
BRANCH  31  32
HETATM   32  C   UNL     1       0.342  10.312 -14.430  1.00  0.00     0.123 C 
HETATM   33  C   UNL     1      -0.704  11.216 -13.785  1.00  0.00     0.040 C 
HETATM   34  C   UNL     1       0.760  10.848 -15.792  1.00  0.00     0.040 C 
ENDBRANCH  31  32
ENDBRANCH  29  31
ENDBRANCH  28  29
ENDBRANCH  27  28
ENDBRANCH  26  27
ENDBRANCH  25  26
ENDBRANCH  24  25
ENDBRANCH  23  24
ENDBRANCH  22  23
ENDBRANCH   4  22
BRANCH   6  35
HETATM   35  C   UNL     1       5.701   4.739  -1.551  1.00  0.00     0.006 C 
BRANCH  35  36
HETATM   36  C   UNL     1       5.486   3.965  -0.238  1.00  0.00     0.000 C 
BRANCH  36  37
HETATM   37  C   UNL     1       6.704   3.875   0.678  1.00  0.00     0.000 C 
BRANCH  37  38
HETATM   38  C   UNL     1       7.043   5.242   1.248  1.00  0.00    -0.000 C 
BRANCH  38  39
HETATM   39  C   UNL     1       8.266   5.193   2.152  1.00  0.00    -0.005 C 
HETATM   40  C   UNL     1       8.533   6.576   2.718  1.00  0.00     0.005 C 
ENDBRANCH  38  39
ENDBRANCH  37  38
ENDBRANCH  36  37
ENDBRANCH  35  36
ENDBRANCH   6  35
BRANCH   1  41
HETATM   41  C   UNL     1       6.502   1.869  -2.243  1.00  0.00     0.009 C 
BRANCH  41  42
HETATM   42  C   UNL     1       6.767   0.481  -2.810  1.00  0.00     0.001 C 
BRANCH  42  43
HETATM   43  C   UNL     1       6.271  -0.586  -1.837  1.00  0.00     0.000 C 
BRANCH  43  44
HETATM   44  C   UNL     1       6.451  -1.954  -2.476  1.00  0.00    -0.000 C 
BRANCH  44  45
HETATM   45  C   UNL     1       5.978  -3.081  -1.570  1.00  0.00    -0.005 C 
HETATM   46  C   UNL     1       6.190  -4.416  -2.263  1.00  0.00     0.005 C 
ENDBRANCH  44  45
ENDBRANCH  43  44
ENDBRANCH  42  43
ENDBRANCH  41  42
ENDBRANCH   1  41
TORSDOF 31
