REMARK  2 active torsions:
REMARK  status: ('A' for Active; 'I' for Inactive)
REMARK    1  A    between atoms: O_2  and  C_3 
REMARK    2  A    between atoms: C_10  and  O_11 
ROOT
HETATM    1  C   UNL     1       2.865  -0.679  -1.203  1.00  0.00     0.176 C 
HETATM    2  C   UNL     1       3.206   0.519  -2.083  1.00  0.00     0.203 C 
HETATM    3  O   UNL     1       2.114   0.729  -2.999  1.00  0.00    -0.378 OA
HETATM    4  C   UNL     1       1.268  -0.439  -2.965  1.00  0.00     0.184 C 
HETATM    5  C   UNL     1       1.966  -1.490  -2.114  1.00  0.00     0.184 C 
HETATM    6  O   UNL     1       2.763  -2.312  -2.994  1.00  0.00    -0.378 OA
HETATM    7  C   UNL     1       2.513  -1.879  -4.344  1.00  0.00     0.203 C 
HETATM    8  C   UNL     1       1.202  -1.098  -4.330  1.00  0.00     0.176 C 
ENDROOT
BRANCH   1   9
HETATM    9  O   UNL     1       2.175  -0.219  -0.034  1.00  0.00    -0.386 OA
HETATM   10  C   UNL     1       2.068  -1.223   0.969  1.00  0.00     0.202 C 
ENDBRANCH   1   9
BRANCH   8  11
HETATM   11  O   UNL     1       0.044  -1.945  -4.364  1.00  0.00    -0.386 OA
HETATM   12  C   UNL     1      -0.126  -2.621  -5.604  1.00  0.00     0.202 C 
ENDBRANCH   8  11
TORSDOF 2
