REMARK WARNING: 32 MAX_TORS EXCEEDED!!!
REMARK  124 active torsions:
REMARK  status: ('A' for Active; 'I' for Inactive)
REMARK    1  A    between atoms: C_2  and  C_3 
REMARK    2  A    between atoms: C_3  and  C_4 
REMARK    3  A    between atoms: C_4  and  C_5 
REMARK    4  A    between atoms: C_5  and  C_6 
REMARK    5  A    between atoms: C_6  and  C_7 
REMARK    6  A    between atoms: C_7  and  C_8 
REMARK    7  A    between atoms: C_7  and  O_137 
REMARK    8  A    between atoms: C_8  and  C_9 
REMARK    9  A    between atoms: C_9  and  C_10 
REMARK   10  A    between atoms: C_10  and  C_11 
REMARK   11  A    between atoms: C_11  and  C_12 
REMARK   12  A    between atoms: C_12  and  C_13 
REMARK   13  A    between atoms: C_13  and  C_14 
REMARK   14  A    between atoms: C_14  and  C_15 
REMARK   15  A    between atoms: C_15  and  C_16 
REMARK   16  A    between atoms: C_16  and  C_17 
REMARK   17  A    between atoms: C_17  and  C_18 
REMARK   18  A    between atoms: C_18  and  O_20 
REMARK   19  A    between atoms: O_20  and  C_21 
REMARK   20  A    between atoms: C_21  and  C_22 
REMARK   21  A    between atoms: C_22  and  C_23 
REMARK   22  A    between atoms: C_22  and  C_93 
REMARK   23  A    between atoms: C_22  and  C_115 
REMARK   24  A    between atoms: C_23  and  O_24 
REMARK   25  A    between atoms: O_24  and  C_25 
REMARK   26  A    between atoms: C_25  and  C_26 
REMARK   27  A    between atoms: C_26  and  C_27 
REMARK   28  A    between atoms: C_26  and  C_49 
REMARK   29  A    between atoms: C_26  and  C_71 
REMARK   30  A    between atoms: C_27  and  O_28 
REMARK   31  A    between atoms: O_28  and  C_29 
REMARK   32  A    between atoms: C_29  and  C_31 
REMARK   33  A    between atoms: C_31  and  C_32 
REMARK   34  A    between atoms: C_32  and  C_33 
REMARK   35  A    between atoms: C_33  and  C_34 
REMARK   36  A    between atoms: C_34  and  C_35 
REMARK   37  A    between atoms: C_35  and  C_36 
REMARK   38  A    between atoms: C_36  and  C_37 
REMARK   39  A    between atoms: C_37  and  C_38 
REMARK   40  A    between atoms: C_38  and  C_39 
REMARK   41  A    between atoms: C_39  and  C_40 
REMARK   42  A    between atoms: C_40  and  C_41 
REMARK   43  A    between atoms: C_41  and  C_42 
REMARK   44  A    between atoms: C_41  and  O_48 
REMARK   45  A    between atoms: C_42  and  C_43 
REMARK   46  A    between atoms: C_43  and  C_44 
REMARK   47  A    between atoms: C_44  and  C_45 
REMARK   48  A    between atoms: C_45  and  C_46 
REMARK   49  A    between atoms: C_49  and  O_50 
REMARK   50  A    between atoms: O_50  and  C_51 
REMARK   51  A    between atoms: C_51  and  C_53 
REMARK   52  A    between atoms: C_53  and  C_54 
REMARK   53  A    between atoms: C_54  and  C_55 
REMARK   54  A    between atoms: C_55  and  C_56 
REMARK   55  A    between atoms: C_56  and  C_57 
REMARK   56  A    between atoms: C_57  and  C_58 
REMARK   57  A    between atoms: C_58  and  C_59 
REMARK   58  A    between atoms: C_59  and  C_60 
REMARK   59  A    between atoms: C_60  and  C_61 
REMARK   60  A    between atoms: C_61  and  C_62 
REMARK   61  A    between atoms: C_62  and  C_63 
REMARK   62  A    between atoms: C_63  and  C_64 
REMARK   63  A    between atoms: C_63  and  O_70 
REMARK   64  A    between atoms: C_64  and  C_65 
REMARK   65  A    between atoms: C_65  and  C_66 
REMARK   66  A    between atoms: C_66  and  C_67 
REMARK   67  A    between atoms: C_67  and  C_68 
REMARK   68  A    between atoms: C_71  and  O_72 
REMARK   69  A    between atoms: O_72  and  C_73 
REMARK   70  A    between atoms: C_73  and  C_75 
REMARK   71  A    between atoms: C_75  and  C_76 
REMARK   72  A    between atoms: C_76  and  C_77 
REMARK   73  A    between atoms: C_77  and  C_78 
REMARK   74  A    between atoms: C_78  and  C_79 
REMARK   75  A    between atoms: C_79  and  C_80 
REMARK   76  A    between atoms: C_80  and  C_81 
REMARK   77  A    between atoms: C_81  and  C_82 
REMARK   78  A    between atoms: C_82  and  C_83 
REMARK   79  A    between atoms: C_83  and  C_84 
REMARK   80  A    between atoms: C_84  and  C_85 
REMARK   81  A    between atoms: C_85  and  C_86 
REMARK   82  A    between atoms: C_85  and  O_92 
REMARK   83  A    between atoms: C_86  and  C_87 
REMARK   84  A    between atoms: C_87  and  C_88 
REMARK   85  A    between atoms: C_88  and  C_89 
REMARK   86  A    between atoms: C_89  and  C_90 
REMARK   87  A    between atoms: C_93  and  O_94 
REMARK   88  A    between atoms: O_94  and  C_95 
REMARK   89  A    between atoms: C_95  and  C_97 
REMARK   90  A    between atoms: C_97  and  C_98 
REMARK   91  A    between atoms: C_98  and  C_99 
REMARK   92  A    between atoms: C_99  and  C_100 
REMARK   93  A    between atoms: C_100  and  C_101 
REMARK   94  A    between atoms: C_101  and  C_102 
REMARK   95  A    between atoms: C_102  and  C_103 
REMARK   96  A    between atoms: C_103  and  C_104 
REMARK   97  A    between atoms: C_104  and  C_105 
REMARK   98  A    between atoms: C_105  and  C_106 
REMARK   99  A    between atoms: C_106  and  C_107 
REMARK  100  A    between atoms: C_107  and  C_108 
REMARK  101  A    between atoms: C_107  and  O_114 
REMARK  102  A    between atoms: C_108  and  C_109 
REMARK  103  A    between atoms: C_109  and  C_110 
REMARK  104  A    between atoms: C_110  and  C_111 
REMARK  105  A    between atoms: C_111  and  C_112 
REMARK  106  A    between atoms: C_115  and  O_116 
REMARK  107  A    between atoms: O_116  and  C_117 
REMARK  108  A    between atoms: C_117  and  C_119 
REMARK  109  A    between atoms: C_119  and  C_120 
REMARK  110  A    between atoms: C_120  and  C_121 
REMARK  111  A    between atoms: C_121  and  C_122 
REMARK  112  A    between atoms: C_122  and  C_123 
REMARK  113  A    between atoms: C_123  and  C_124 
REMARK  114  A    between atoms: C_124  and  C_125 
REMARK  115  A    between atoms: C_125  and  C_126 
REMARK  116  A    between atoms: C_126  and  C_127 
REMARK  117  A    between atoms: C_127  and  C_128 
REMARK  118  A    between atoms: C_128  and  C_129 
REMARK  119  A    between atoms: C_129  and  C_130 
REMARK  120  A    between atoms: C_129  and  O_136 
REMARK  121  A    between atoms: C_130  and  C_131 
REMARK  122  A    between atoms: C_131  and  C_132 
REMARK  123  A    between atoms: C_132  and  C_133 
REMARK  124  A    between atoms: C_133  and  C_134 
ROOT
HETATM    1  O   UNL     1      -7.785 -12.989   4.878  1.00  0.00    -0.389 OA
ENDROOT
BRANCH   1   2
HETATM    2  C   UNL     1      -8.142 -12.343   3.611  1.00  0.00     0.183 C 
BRANCH   2   3
HETATM    3  C   UNL     1      -7.635 -12.995   2.143  1.00  0.00     0.047 C 
BRANCH   3   4
HETATM    4  C   UNL     1      -8.046 -14.528   2.211  1.00  0.00     0.194 C 
BRANCH   4   5
HETATM    5  O   UNL     1      -7.401 -15.206   3.378  1.00  0.00    -0.320 OA
BRANCH   5   6
HETATM    6  C   UNL     1      -6.317 -16.042   3.246  1.00  0.00     0.258 C 
HETATM    7  O   UNL     1      -5.852 -16.377   2.164  1.00  0.00    -0.265 OA
BRANCH   6   8
HETATM    8  C   UNL     1      -5.764 -16.574   4.594  1.00  0.00     0.111 C 
BRANCH   8   9
HETATM    9  C   UNL     1      -4.218 -16.712   4.729  1.00  0.00     0.010 C 
BRANCH   9  10
HETATM   10  C   UNL     1      -3.673 -17.076   6.205  1.00  0.00     0.000 C 
BRANCH  10  11
HETATM   11  C   UNL     1      -2.118 -17.398   6.395  1.00  0.00     0.000 C 
BRANCH  11  12
HETATM   12  C   UNL     1      -1.116 -17.588   7.717  1.00  0.00     0.000 C 
BRANCH  12  13
HETATM   13  C   UNL     1       0.438 -17.160   7.817  1.00  0.00     0.000 C 
BRANCH  13  14
HETATM   14  C   UNL     1       0.874 -16.930   9.252  1.00  0.00     0.000 C 
BRANCH  14  15
HETATM   15  C   UNL     1       2.394 -16.758   9.364  1.00  0.00     0.000 C 
BRANCH  15  16
HETATM   16  C   UNL     1       2.860 -16.844  10.812  1.00  0.00     0.002 C 
BRANCH  16  17
HETATM   17  C   UNL     1       2.229 -18.052  11.484  1.00  0.00     0.032 C 
BRANCH  17  18
HETATM   18  C   UNL     1       2.677 -18.239  12.919  1.00  0.00     0.118 C 
BRANCH  18  19
HETATM   19  C   UNL     1       2.068 -19.507  13.517  1.00  0.00     0.032 C 
BRANCH  19  20
HETATM   20  C   UNL     1       2.402 -20.726  12.666  1.00  0.00     0.002 C 
BRANCH  20  21
HETATM   21  C   UNL     1       1.974 -22.009  13.343  1.00  0.00     0.000 C 
BRANCH  21  22
HETATM   22  C   UNL     1       2.427 -23.188  12.495  1.00  0.00    -0.000 C 
BRANCH  22  23
HETATM   23  C   UNL     1       1.978 -24.494  13.127  1.00  0.00    -0.005 C 
HETATM   24  C   UNL     1       2.425 -25.673  12.285  1.00  0.00     0.005 C 
ENDBRANCH  22  23
ENDBRANCH  21  22
ENDBRANCH  20  21
ENDBRANCH  19  20
ENDBRANCH  18  19
BRANCH  18  25
HETATM   25  O   UNL     1       2.245 -17.120  13.690  1.00  0.00    -0.396 OA
HETATM   26  H   UNL     1       1.278 -17.061  13.594  1.00  0.00     0.210 HD
ENDBRANCH  18  25
ENDBRANCH  17  18
ENDBRANCH  16  17
ENDBRANCH  15  16
ENDBRANCH  14  15
ENDBRANCH  13  14
ENDBRANCH  12  13
ENDBRANCH  11  12
ENDBRANCH  10  11
ENDBRANCH   9  10
ENDBRANCH   8   9
ENDBRANCH   6   8
ENDBRANCH   5   6
ENDBRANCH   4   5
ENDBRANCH   3   4
BRANCH   3  27
HETATM   27  C   UNL     1      -6.171 -13.085   1.583  1.00  0.00     0.194 C 
BRANCH  27  28
HETATM   28  O   UNL     1      -5.661 -12.079   0.271  1.00  0.00    -0.320 OA
BRANCH  28  29
HETATM   29  C   UNL     1      -4.686 -11.518  -0.607  1.00  0.00     0.258 C 
HETATM   30  O   UNL     1      -5.018 -10.466  -1.174  1.00  0.00    -0.265 OA
BRANCH  29  31
HETATM   31  C   UNL     1      -3.290 -12.154  -1.099  1.00  0.00     0.111 C 
BRANCH  31  32
HETATM   32  C   UNL     1      -1.860 -11.527  -1.078  1.00  0.00     0.010 C 
BRANCH  32  33
HETATM   33  C   UNL     1      -0.783 -12.597  -1.489  1.00  0.00     0.000 C 
BRANCH  33  34
HETATM   34  C   UNL     1       0.594 -11.980  -1.453  1.00  0.00     0.000 C 
BRANCH  34  35
HETATM   35  C   UNL     1       1.656 -12.845  -2.113  1.00  0.00     0.000 C 
BRANCH  35  36
HETATM   36  C   UNL     1       2.894 -11.973  -2.185  1.00  0.00     0.000 C 
BRANCH  36  37
HETATM   37  C   UNL     1       4.010 -12.649  -2.931  1.00  0.00     0.000 C 
BRANCH  37  38
HETATM   38  C   UNL     1       5.181 -11.685  -3.014  1.00  0.00     0.000 C 
BRANCH  38  39
HETATM   39  C   UNL     1       6.279 -12.352  -3.804  1.00  0.00     0.002 C 
BRANCH  39  40
HETATM   40  C   UNL     1       7.525 -11.489  -3.875  1.00  0.00     0.032 C 
BRANCH  40  41
HETATM   41  C   UNL     1       8.672 -12.234  -4.556  1.00  0.00     0.118 C 
BRANCH  41  42
HETATM   42  C   UNL     1       8.293 -12.704  -5.960  1.00  0.00     0.032 C 
BRANCH  42  43
HETATM   43  C   UNL     1       9.423 -13.476  -6.636  1.00  0.00     0.002 C 
BRANCH  43  44
HETATM   44  C   UNL     1       9.084 -13.854  -8.077  1.00  0.00     0.000 C 
BRANCH  44  45
HETATM   45  C   UNL     1       8.756 -12.639  -8.944  1.00  0.00    -0.000 C 
BRANCH  45  46
HETATM   46  C   UNL     1       8.444 -13.051 -10.375  1.00  0.00    -0.005 C 
HETATM   47  C   UNL     1       8.089 -11.836 -11.214  1.00  0.00     0.005 C 
ENDBRANCH  45  46
ENDBRANCH  44  45
ENDBRANCH  43  44
ENDBRANCH  42  43
ENDBRANCH  41  42
BRANCH  41  48
HETATM   48  O   UNL     1       9.788 -11.348  -4.637  1.00  0.00    -0.396 OA
HETATM   49  H   UNL     1       9.524 -10.604  -5.207  1.00  0.00     0.210 HD
ENDBRANCH  41  48
ENDBRANCH  40  41
ENDBRANCH  39  40
ENDBRANCH  38  39
ENDBRANCH  37  38
ENDBRANCH  36  37
ENDBRANCH  35  36
ENDBRANCH  34  35
ENDBRANCH  33  34
ENDBRANCH  32  33
ENDBRANCH  31  32
ENDBRANCH  29  31
ENDBRANCH  28  29
ENDBRANCH  27  28
ENDBRANCH   3  27
BRANCH   3  50
HETATM   50  C   UNL     1      -8.185 -12.114   1.017  1.00  0.00     0.194 C 
BRANCH  50  51
HETATM   51  O   UNL     1      -9.572 -11.894   1.109  1.00  0.00    -0.320 OA
BRANCH  51  52
HETATM   52  C   UNL     1      -9.892 -10.585   1.317  1.00  0.00     0.258 C 
HETATM   53  O   UNL     1      -9.326  -9.788   2.061  1.00  0.00    -0.265 OA
BRANCH  52  54
HETATM   54  C   UNL     1     -11.058 -10.284   0.473  1.00  0.00     0.111 C 
BRANCH  54  55
HETATM   55  C   UNL     1     -10.653  -9.242  -0.572  1.00  0.00     0.010 C 
BRANCH  55  56
HETATM   56  C   UNL     1     -11.835  -8.991  -1.480  1.00  0.00     0.000 C 
BRANCH  56  57
HETATM   57  C   UNL     1     -11.557  -7.869  -2.470  1.00  0.00     0.000 C 
BRANCH  57  58
HETATM   58  C   UNL     1     -12.790  -7.636  -3.327  1.00  0.00     0.000 C 
BRANCH  58  59
HETATM   59  C   UNL     1     -12.516  -6.499  -4.298  1.00  0.00     0.000 C 
BRANCH  59  60
HETATM   60  C   UNL     1     -13.732  -6.245  -5.170  1.00  0.00     0.000 C 
BRANCH  60  61
HETATM   61  C   UNL     1     -13.469  -5.104  -6.143  1.00  0.00     0.000 C 
BRANCH  61  62
HETATM   62  C   UNL     1     -14.732  -4.847  -6.947  1.00  0.00     0.002 C 
BRANCH  62  63
HETATM   63  C   UNL     1     -14.541  -3.756  -7.992  1.00  0.00     0.032 C 
BRANCH  63  64
HETATM   64  C   UNL     1     -15.779  -3.585  -8.880  1.00  0.00     0.118 C 
BRANCH  64  65
HETATM   65  C   UNL     1     -17.039  -3.220  -8.086  1.00  0.00     0.032 C 
BRANCH  65  66
HETATM   66  C   UNL     1     -18.268  -3.066  -8.985  1.00  0.00     0.002 C 
BRANCH  66  67
HETATM   67  C   UNL     1     -19.530  -2.656  -8.221  1.00  0.00     0.000 C 
BRANCH  67  68
HETATM   68  C   UNL     1     -19.372  -1.333  -7.470  1.00  0.00    -0.000 C 
BRANCH  68  69
HETATM   69  C   UNL     1     -20.663  -0.930  -6.764  1.00  0.00    -0.005 C 
HETATM   70  C   UNL     1     -20.483   0.381  -6.016  1.00  0.00     0.005 C 
ENDBRANCH  68  69
ENDBRANCH  67  68
ENDBRANCH  66  67
ENDBRANCH  65  66
ENDBRANCH  64  65
BRANCH  64  71
HETATM   71  O   UNL     1     -15.504  -2.553  -9.829  1.00  0.00    -0.396 OA
HETATM   72  H   UNL     1     -15.335  -1.735  -9.330  1.00  0.00     0.210 HD
ENDBRANCH  64  71
ENDBRANCH  63  64
ENDBRANCH  62  63
ENDBRANCH  61  62
ENDBRANCH  60  61
ENDBRANCH  59  60
ENDBRANCH  58  59
ENDBRANCH  57  58
ENDBRANCH  56  57
ENDBRANCH  55  56
ENDBRANCH  54  55
ENDBRANCH  52  54
ENDBRANCH  51  52
ENDBRANCH  50  51
ENDBRANCH   3  50
ENDBRANCH   2   3
ENDBRANCH   1   2
BRANCH   1  73
HETATM   73  C   UNL     1      -8.069 -12.306   6.177  1.00  0.00     0.183 C 
BRANCH  73  74
HETATM   74  C   UNL     1      -7.513 -13.131   7.516  1.00  0.00     0.047 C 
BRANCH  74  75
HETATM   75  C   UNL     1      -6.069 -12.855   8.011  1.00  0.00     0.194 C 
BRANCH  75  76
HETATM   76  O   UNL     1      -5.640 -13.738   9.067  1.00  0.00    -0.320 OA
BRANCH  76  77
HETATM   77  C   UNL     1      -4.876 -14.825   8.725  1.00  0.00     0.258 C 
HETATM   78  O   UNL     1      -5.343 -15.878   8.420  1.00  0.00    -0.265 OA
BRANCH  77  79
HETATM   79  C   UNL     1      -3.431 -14.610   9.205  1.00  0.00     0.111 C 
BRANCH  79  80
HETATM   80  C   UNL     1      -2.193 -15.051   8.341  1.00  0.00     0.010 C 
BRANCH  80  81
HETATM   81  C   UNL     1      -1.261 -14.459   7.099  1.00  0.00     0.000 C 
BRANCH  81  82
HETATM   82  C   UNL     1      -0.132 -15.078   5.879  1.00  0.00     0.000 C 
BRANCH  82  83
HETATM   83  C   UNL     1       0.140 -16.528   5.049  1.00  0.00     0.000 C 
BRANCH  83  84
HETATM   84  C   UNL     1      -0.765 -16.915   3.889  1.00  0.00     0.000 C 
BRANCH  84  85
HETATM   85  C   UNL     1      -0.620 -15.859   2.874  1.00  0.00     0.000 C 
BRANCH  85  86
HETATM   86  C   UNL     1      -1.904 -15.799   2.156  1.00  0.00     0.000 C 
BRANCH  86  87
HETATM   87  C   UNL     1      -1.571 -15.001   0.949  1.00  0.00     0.002 C 
BRANCH  87  88
HETATM   88  C   UNL     1      -2.815 -14.997   0.176  1.00  0.00     0.032 C 
BRANCH  88  89
HETATM   89  C   UNL     1      -3.908 -14.138   0.849  1.00  0.00     0.118 C 
BRANCH  89  90
HETATM   90  C   UNL     1      -3.429 -12.594   1.701  1.00  0.00     0.032 C 
BRANCH  90  91
HETATM   91  C   UNL     1      -4.220 -11.155   2.209  1.00  0.00     0.002 C 
BRANCH  91  92
HETATM   92  C   UNL     1      -4.972 -11.108   3.539  1.00  0.00     0.000 C 
BRANCH  92  93
HETATM   93  C   UNL     1      -4.157 -11.819   4.550  1.00  0.00    -0.000 C 
BRANCH  93  94
HETATM   94  C   UNL     1      -4.987 -12.936   5.082  1.00  0.00    -0.005 C 
HETATM   95  C   UNL     1      -4.103 -13.736   5.947  1.00  0.00     0.005 C 
ENDBRANCH  93  94
ENDBRANCH  92  93
ENDBRANCH  91  92
ENDBRANCH  90  91
ENDBRANCH  89  90
BRANCH  89  96
HETATM   96  O   UNL     1      -4.796 -14.289  -0.307  1.00  0.00    -0.396 OA
HETATM   97  H   UNL     1      -5.201 -13.482  -0.644  1.00  0.00     0.210 HD
ENDBRANCH  89  96
ENDBRANCH  88  89
ENDBRANCH  87  88
ENDBRANCH  86  87
ENDBRANCH  85  86
ENDBRANCH  84  85
ENDBRANCH  83  84
ENDBRANCH  82  83
ENDBRANCH  81  82
ENDBRANCH  80  81
ENDBRANCH  79  80
ENDBRANCH  77  79
ENDBRANCH  76  77
ENDBRANCH  75  76
ENDBRANCH  74  75
BRANCH  74  98
HETATM   98  C   UNL     1      -8.254 -12.781   8.854  1.00  0.00     0.194 C 
BRANCH  98  99
HETATM   99  O   UNL     1      -7.755 -11.625   9.544  1.00  0.00    -0.320 OA
BRANCH  99 100
HETATM  100  C   UNL     1      -8.291 -10.433   9.208  1.00  0.00     0.258 C 
HETATM  101  O   UNL     1      -9.223 -10.281   8.434  1.00  0.00    -0.265 OA
BRANCH 100 102
HETATM  102  C   UNL     1      -7.511  -9.343   9.892  1.00  0.00     0.111 C 
BRANCH 102 103
HETATM  103  C   UNL     1      -6.862  -8.387   8.896  1.00  0.00     0.010 C 
BRANCH 103 104
HETATM  104  C   UNL     1      -7.847  -7.722   7.928  1.00  0.00     0.000 C 
BRANCH 104 105
HETATM  105  C   UNL     1      -9.064  -7.111   8.621  1.00  0.00     0.000 C 
BRANCH 105 106
HETATM  106  C   UNL     1      -8.650  -6.031   9.607  1.00  0.00     0.000 C 
BRANCH 106 107
HETATM  107  C   UNL     1      -9.858  -5.496  10.352  1.00  0.00     0.000 C 
BRANCH 107 108
HETATM  108  C   UNL     1      -9.412  -4.398  11.298  1.00  0.00     0.000 C 
BRANCH 108 109
HETATM  109  C   UNL     1     -10.602  -3.818  12.045  1.00  0.00     0.000 C 
BRANCH 109 110
HETATM  110  C   UNL     1     -10.117  -2.671  12.912  1.00  0.00     0.002 C 
BRANCH 110 111
HETATM  111  C   UNL     1     -11.241  -2.066  13.737  1.00  0.00     0.032 C 
BRANCH 111 112
HETATM  112  C   UNL     1     -10.730  -0.983  14.691  1.00  0.00     0.118 C 
BRANCH 112 113
HETATM  113  C   UNL     1     -10.022   0.164  13.963  1.00  0.00     0.032 C 
BRANCH 113 114
HETATM  114  C   UNL     1      -9.493   1.229  14.926  1.00  0.00     0.002 C 
BRANCH 114 115
HETATM  115  C   UNL     1      -8.838   2.414  14.210  1.00  0.00     0.000 C 
BRANCH 115 116
HETATM  116  C   UNL     1      -9.781   3.128  13.239  1.00  0.00    -0.000 C 
BRANCH 116 117
HETATM  117  C   UNL     1      -9.100   4.320  12.574  1.00  0.00    -0.005 C 
HETATM  118  C   UNL     1     -10.041   5.007  11.598  1.00  0.00     0.005 C 
ENDBRANCH 116 117
ENDBRANCH 115 116
ENDBRANCH 114 115
ENDBRANCH 113 114
ENDBRANCH 112 113
BRANCH 112 119
HETATM  119  O   UNL     1     -11.851  -0.470  15.409  1.00  0.00    -0.396 OA
HETATM  120  H   UNL     1     -12.442  -0.038  14.767  1.00  0.00     0.210 HD
ENDBRANCH 112 119
ENDBRANCH 111 112
ENDBRANCH 110 111
ENDBRANCH 109 110
ENDBRANCH 108 109
ENDBRANCH 107 108
ENDBRANCH 106 107
ENDBRANCH 105 106
ENDBRANCH 104 105
ENDBRANCH 103 104
ENDBRANCH 102 103
ENDBRANCH 100 102
ENDBRANCH  99 100
ENDBRANCH  98  99
ENDBRANCH  74  98
BRANCH  74 121
HETATM  121  C   UNL     1      -7.786 -14.626   7.173  1.00  0.00     0.194 C 
BRANCH 121 122
HETATM  122  O   UNL     1      -9.194 -14.808   7.055  1.00  0.00    -0.320 OA
BRANCH 122 123
HETATM  123  C   UNL     1      -9.816 -15.067   8.243  1.00  0.00     0.258 C 
HETATM  124  O   UNL     1      -9.347 -15.584   9.245  1.00  0.00    -0.265 OA
BRANCH 123 125
HETATM  125  C   UNL     1     -11.105 -14.328   8.211  1.00  0.00     0.111 C 
BRANCH 125 126
HETATM  126  C   UNL     1     -11.979 -15.008   7.210  1.00  0.00     0.010 C 
BRANCH 126 127
HETATM  127  C   UNL     1     -13.308 -14.303   7.197  1.00  0.00     0.000 C 
BRANCH 127 128
HETATM  128  C   UNL     1     -14.193 -15.064   6.251  1.00  0.00     0.000 C 
BRANCH 128 129
HETATM  129  C   UNL     1     -15.565 -14.444   6.243  1.00  0.00     0.000 C 
BRANCH 129 130
HETATM  130  C   UNL     1     -16.437 -15.251   5.308  1.00  0.00     0.000 C 
BRANCH 130 131
HETATM  131  C   UNL     1     -17.822 -14.654   5.275  1.00  0.00     0.000 C 
BRANCH 131 132
HETATM  132  C   UNL     1     -18.713 -15.448   4.335  1.00  0.00     0.000 C 
BRANCH 132 133
HETATM  133  C   UNL     1     -20.072 -14.778   4.290  1.00  0.00     0.002 C 
BRANCH 133 134
HETATM  134  C   UNL     1     -21.058 -15.539   3.420  1.00  0.00     0.032 C 
BRANCH 134 135
HETATM  135  C   UNL     1     -22.457 -14.918   3.472  1.00  0.00     0.118 C 
BRANCH 135 136
HETATM  136  C   UNL     1     -22.473 -13.452   3.025  1.00  0.00     0.032 C 
BRANCH 136 137
HETATM  137  C   UNL     1     -23.868 -12.830   3.110  1.00  0.00     0.002 C 
BRANCH 137 138
HETATM  138  C   UNL     1     -23.912 -11.386   2.603  1.00  0.00     0.000 C 
BRANCH 138 139
HETATM  139  C   UNL     1     -23.453 -11.241   1.151  1.00  0.00    -0.000 C 
BRANCH 139 140
HETATM  140  C   UNL     1     -23.543  -9.794   0.677  1.00  0.00    -0.005 C 
HETATM  141  C   UNL     1     -23.064  -9.663  -0.759  1.00  0.00     0.005 C 
ENDBRANCH 139 140
ENDBRANCH 138 139
ENDBRANCH 137 138
ENDBRANCH 136 137
ENDBRANCH 135 136
BRANCH 135 142
HETATM  142  O   UNL     1     -23.309 -15.685   2.622  1.00  0.00    -0.396 OA
HETATM  143  H   UNL     1     -22.980 -15.595   1.711  1.00  0.00     0.210 HD
ENDBRANCH 135 142
ENDBRANCH 134 135
ENDBRANCH 133 134
ENDBRANCH 132 133
ENDBRANCH 131 132
ENDBRANCH 130 131
ENDBRANCH 129 130
ENDBRANCH 128 129
ENDBRANCH 127 128
ENDBRANCH 126 127
ENDBRANCH 125 126
ENDBRANCH 123 125
ENDBRANCH 122 123
ENDBRANCH 121 122
ENDBRANCH  74 121
ENDBRANCH  73  74
ENDBRANCH   1  73
TORSDOF 124
