REMARK  4 active torsions:
REMARK  status: ('A' for Active; 'I' for Inactive)
REMARK    1  A    between atoms: N_5  and  C_11 
REMARK    2  A    between atoms: N_8  and  C_9 
REMARK    3  A    between atoms: C_9  and  O_10 
REMARK    4  A    between atoms: C_11  and  O_12 
ROOT
HETATM    1  C   UNL     1       0.909   0.002   0.191  1.00  0.00     0.049 C 
HETATM    2  C   UNL     1       2.427   0.079   0.052  1.00  0.00     0.113 C 
HETATM    3  C   UNL     1       3.099  -1.133   0.713  1.00  0.00     0.257 C 
HETATM    4  O   UNL     1       2.709  -2.294   0.651  1.00  0.00    -0.270 OA
HETATM    5  N   UNL     1       4.234  -0.717   1.345  1.00  0.00    -0.246 N 
HETATM    6  C   UNL     1       4.140   0.625   1.573  1.00  0.00     0.331 C 
HETATM    7  O   UNL     1       4.782   1.259   2.398  1.00  0.00    -0.246 OA
HETATM    8  N   UNL     1       3.098   1.137   0.807  1.00  0.00    -0.295 N 
HETATM    9  C   UNL     1       2.860   0.128  -1.416  1.00  0.00     0.049 C 
ENDROOT
BRANCH   5  10
HETATM   10  C   UNL     1       5.065  -1.548   2.166  1.00  0.00     0.303 C 
BRANCH  10  11
HETATM   11  O   UNL     1       5.215  -2.831   1.589  1.00  0.00    -0.382 OA
HETATM   12  H   UNL     1       4.309  -3.138   1.385  1.00  0.00     0.211 HD
ENDBRANCH  10  11
ENDBRANCH   5  10
BRANCH   8  13
HETATM   13  C   UNL     1       2.489   2.385   1.167  1.00  0.00     0.296 C 
BRANCH  13  14
HETATM   14  O   UNL     1       1.914   2.956   0.016  1.00  0.00    -0.382 OA
HETATM   15  H   UNL     1       2.663   3.232  -0.537  1.00  0.00     0.211 HD
ENDBRANCH  13  14
ENDBRANCH   8  13
TORSDOF 4
