REMARK  13 active torsions:
REMARK  status: ('A' for Active; 'I' for Inactive)
REMARK    1  A    between atoms: C_2  and  C_3 
REMARK    2  A    between atoms: C_3  and  C_4 
REMARK    3  A    between atoms: C_4  and  C_5 
REMARK    4  A    between atoms: C_5  and  C_6 
REMARK    5  A    between atoms: C_6  and  C_7 
REMARK    6  A    between atoms: C_7  and  C_8 
REMARK    7  A    between atoms: C_8  and  C_9 
REMARK    8  A    between atoms: C_9  and  C_10 
REMARK    9  A    between atoms: C_10  and  C_11 
REMARK   10  A    between atoms: C_11  and  C_12 
REMARK   11  A    between atoms: C_12  and  C_13 
REMARK   12  A    between atoms: C_18  and  S_19 
REMARK   13  A    between atoms: S_19  and  O_22 
ROOT
HETATM    1  C   UNL     1      12.608   6.829  -2.349  1.00  0.00     0.040 C 
ENDROOT
BRANCH   1   2
HETATM    2  C   UNL     1      11.082   6.801  -2.337  1.00  0.00     0.005 C 
BRANCH   2   3
HETATM    3  C   UNL     1      10.573   5.445  -1.861  1.00  0.00     0.000 C 
BRANCH   3   4
HETATM    4  C   UNL     1       9.051   5.422  -1.859  1.00  0.00     0.000 C 
BRANCH   4   5
HETATM    5  C   UNL     1       8.532   4.075  -1.377  1.00  0.00     0.000 C 
BRANCH   5   6
HETATM    6  C   UNL     1       7.010   4.068  -1.373  1.00  0.00     0.000 C 
BRANCH   6   7
HETATM    7  C   UNL     1       6.487   2.724  -0.888  1.00  0.00     0.000 C 
BRANCH   7   8
HETATM    8  C   UNL     1       4.965   2.717  -0.882  1.00  0.00     0.000 C 
BRANCH   8   9
HETATM    9  C   UNL     1       4.441   1.372  -0.396  1.00  0.00     0.000 C 
BRANCH   9  10
HETATM   10  C   UNL     1       2.917   1.363  -0.389  1.00  0.00    -0.000 C 
BRANCH  10  11
HETATM   11  C   UNL     1       2.383   0.020   0.096  1.00  0.00    -0.005 C 
HETATM   12  C   UNL     1       0.865   0.011   0.103  1.00  0.00     0.005 C 
ENDBRANCH  10  11
ENDBRANCH   9  10
ENDBRANCH   8   9
ENDBRANCH   7   8
ENDBRANCH   6   7
ENDBRANCH   5   6
ENDBRANCH   4   5
ENDBRANCH   3   4
ENDBRANCH   2   3
ENDBRANCH   1   2
BRANCH   1  13
HETATM   13  C   UNL     1      13.126   8.157  -2.844  1.00  0.00    -0.035 A 
HETATM   14  C   UNL     1      13.313   8.285  -4.234  1.00  0.00     0.009 A 
HETATM   15  C   UNL     1      13.693   9.500  -4.808  1.00  0.00     0.001 A 
HETATM   16  C   UNL     1      13.868  10.623  -4.009  1.00  0.00     0.002 A 
HETATM   17  C   UNL     1      13.695  10.522  -2.630  1.00  0.00     0.026 A 
HETATM   18  C   UNL     1      13.340   9.294  -2.043  1.00  0.00     0.078 A 
BRANCH  18  19
HETATM   19  S   UNL     1      13.263   9.272  -0.262  1.00  0.00     0.130 S 
HETATM   20  O   UNL     1      14.182  10.280   0.227  1.00  0.00    -0.598 OA
HETATM   21  O   UNL     1      11.872   9.255   0.124  1.00  0.00    -0.598 OA
BRANCH  19  22
HETATM   22  O   UNL     1      13.942   7.879   0.186  1.00  0.00    -0.292 OA
HETATM   23  H   UNL     1      14.879   8.063   0.418  1.00  0.00     0.232 HD
ENDBRANCH  19  22
ENDBRANCH  18  19
ENDBRANCH   1  13
TORSDOF 13
