REMARK  4 active torsions:
REMARK  status: ('A' for Active; 'I' for Inactive)
REMARK    1  A    between atoms: N_2  and  C_5 
REMARK    2  A    between atoms: C_5  and  C_6 
REMARK    3  A    between atoms: C_5  and  C_13 
REMARK    4  A    between atoms: C_6  and  C_7 
ROOT
HETATM    1  C   UNL     1       2.465  -0.324   2.484  1.00  0.00     0.103 C 
ENDROOT
BRANCH   1   2
HETATM    2  C   UNL     1       3.039   0.480   1.296  1.00  0.00     0.294 C 
BRANCH   2   3
HETATM    3  N   UNL     1       2.538   0.002  -0.162  1.00  0.00    -0.064 N 
HETATM    4  C   UNL     1       1.034   0.033  -0.246  1.00  0.00     0.272 C 
HETATM    5  C   UNL     1       3.066  -1.373  -0.545  1.00  0.00     0.272 C 
HETATM    6  C   UNL     1       3.131   1.004  -1.154  1.00  0.00     0.272 C 
ENDBRANCH   2   3
BRANCH   2   7
HETATM    7  C   UNL     1       4.562   0.684   1.570  1.00  0.00     0.205 C 
HETATM    8  O   UNL     1       5.327  -0.162   1.031  1.00  0.00    -0.646 OA
HETATM    9  O   UNL     1       4.835   1.689   2.279  1.00  0.00    -0.646 OA
ENDBRANCH   2   7
ENDBRANCH   1   2
BRANCH   1  10
HETATM   10  C   UNL     1       2.829  -1.760   2.627  1.00  0.00     0.029 A 
HETATM   11  C   UNL     1       2.026  -2.835   2.712  1.00  0.00     0.115 A 
HETATM   12  N   UNL     1       2.803  -3.960   2.832  1.00  0.00    -0.341 N 
HETATM   13  C   UNL     1       4.151  -3.586   2.844  1.00  0.00     0.176 A 
HETATM   14  H   UNL     1       2.483  -4.915   2.914  1.00  0.00     0.167 HD
HETATM   15  S   UNL     1       5.450  -4.581   2.974  1.00  0.00    -0.041 SA
HETATM   16  N   UNL     1       4.136  -2.195   2.709  1.00  0.00    -0.335 N 
HETATM   17  H   UNL     1       4.974  -1.617   2.612  1.00  0.00     0.168 HD
ENDBRANCH   1  10
TORSDOF 4
