REMARK  29 active torsions:
REMARK  status: ('A' for Active; 'I' for Inactive)
REMARK    1  A    between atoms: C_3  and  C_5 
REMARK    2  A    between atoms: C_5  and  O_7 
REMARK    3  A    between atoms: O_7  and  C_8 
REMARK    4  A    between atoms: C_9  and  O_76 
REMARK    5  A    between atoms: C_10  and  C_74 
REMARK    6  A    between atoms: C_23  and  O_38 
REMARK    7  A    between atoms: C_24  and  C_36 
REMARK    8  A    between atoms: C_31  and  O_32 
REMARK    9  A    between atoms: C_36  and  O_37 
REMARK   10  A    between atoms: O_38  and  C_39 
REMARK   11  A    between atoms: C_40  and  O_61 
REMARK   12  A    between atoms: C_41  and  O_60 
REMARK   13  A    between atoms: C_42  and  O_48 
REMARK   14  A    between atoms: C_43  and  C_45 
REMARK   15  A    between atoms: C_45  and  O_47 
REMARK   16  A    between atoms: O_48  and  C_49 
REMARK   17  A    between atoms: C_50  and  O_59 
REMARK   18  A    between atoms: C_51  and  O_58 
REMARK   19  A    between atoms: C_52  and  O_57 
REMARK   20  A    between atoms: C_53  and  C_55 
REMARK   21  A    between atoms: C_55  and  O_56 
REMARK   22  A    between atoms: O_61  and  C_62 
REMARK   23  A    between atoms: C_63  and  O_72 
REMARK   24  A    between atoms: C_64  and  O_71 
REMARK   25  A    between atoms: C_65  and  O_70 
REMARK   26  A    between atoms: C_66  and  C_68 
REMARK   27  A    between atoms: C_68  and  O_69 
REMARK   28  A    between atoms: C_74  and  O_75 
REMARK   29  A    between atoms: O_76  and  C_77 
ROOT
HETATM    1  C   UNL     1       7.983   2.490  -0.306  1.00  0.00     0.170 C 
HETATM    2  C   UNL     1       8.344   1.253  -1.297  1.00  0.00     0.176 C 
HETATM    3  C   UNL     1       6.949   0.717  -1.343  1.00  0.00     0.043 C 
HETATM    4  C   UNL     1       6.213   2.217  -2.184  1.00  0.00     0.032 C 
HETATM    5  C   UNL     1       6.483   3.746  -1.625  1.00  0.00     0.021 C 
HETATM    6  C   UNL     1       7.920   3.806  -1.103  1.00  0.00    -0.018 C 
HETATM    7  C   UNL     1       8.759   4.092  -2.377  1.00  0.00     0.018 C 
HETATM    8  C   UNL     1       8.359   4.864  -0.098  1.00  0.00     0.018 C 
HETATM    9  C   UNL     1       5.107   2.127  -3.213  1.00  0.00    -0.069 C 
HETATM   10  C   UNL     1       4.386   3.179  -3.730  1.00  0.00    -0.022 C 
HETATM   11  C   UNL     1       3.020   3.092  -4.506  1.00  0.00     0.033 C 
HETATM   12  C   UNL     1       2.775   1.634  -4.931  1.00  0.00     0.007 C 
HETATM   13  C   UNL     1       1.363   0.831  -5.575  1.00  0.00    -0.035 C 
HETATM   14  C   UNL     1       0.051   0.863  -4.774  1.00  0.00     0.012 C 
HETATM   15  C   UNL     1      -0.267  -0.253  -3.750  1.00  0.00     0.034 C 
HETATM   16  C   UNL     1       0.130  -1.772  -3.901  1.00  0.00     0.135 C 
HETATM   17  C   UNL     1       1.233  -2.213  -4.922  1.00  0.00     0.008 C 
HETATM   18  C   UNL     1       1.659  -0.858  -5.906  1.00  0.00     0.007 C 
HETATM   19  C   UNL     1       3.105  -0.892  -5.637  1.00  0.00     0.007 C 
HETATM   20  C   UNL     1       2.961  -0.520  -4.152  1.00  0.00     0.011 C 
HETATM   21  C   UNL     1       3.307   0.817  -3.767  1.00  0.00    -0.028 C 
HETATM   22  C   UNL     1       4.820   0.700  -3.561  1.00  0.00    -0.011 C 
HETATM   23  C   UNL     1       5.137  -0.308  -2.392  1.00  0.00     0.047 C 
HETATM   24  C   UNL     1       6.620  -0.484  -2.195  1.00  0.00     0.133 C 
HETATM   25  C   UNL     1       5.604   0.062  -4.768  1.00  0.00     0.021 C 
HETATM   26  C   UNL     1       2.564   1.212  -2.445  1.00  0.00     0.016 C 
HETATM   27  C   UNL     1       2.411  -3.084  -4.026  1.00  0.00     0.020 C 
HETATM   28  C   UNL     1       1.125   1.673  -6.867  1.00  0.00     0.016 C 
ENDROOT
BRANCH  16  29
HETATM   29  O   UNL     1      -1.017  -2.567  -4.107  1.00  0.00    -0.352 OA
BRANCH  29  30
HETATM   30  C   UNL     1      -1.627  -3.114  -2.932  1.00  0.00     0.293 C 
HETATM   31  C   UNL     1      -2.352  -4.398  -3.376  1.00  0.00     0.211 C 
HETATM   32  C   UNL     1      -3.447  -4.009  -4.400  1.00  0.00     0.184 C 
HETATM   33  C   UNL     1      -4.389  -2.826  -4.035  1.00  0.00     0.195 C 
HETATM   34  C   UNL     1      -3.534  -1.745  -3.303  1.00  0.00     0.253 C 
HETATM   35  O   UNL     1      -2.556  -2.216  -2.353  1.00  0.00    -0.340 OA
BRANCH  31  36
HETATM   36  O   UNL     1      -2.755  -5.312  -2.313  1.00  0.00    -0.346 OA
BRANCH  36  37
HETATM   37  C   UNL     1      -1.611  -5.950  -1.657  1.00  0.00     0.292 C 
HETATM   38  C   UNL     1      -0.645  -6.695  -2.620  1.00  0.00     0.204 C 
HETATM   39  C   UNL     1      -1.161  -8.105  -2.901  1.00  0.00     0.183 C 
HETATM   40  C   UNL     1      -1.234  -8.893  -1.598  1.00  0.00     0.180 C 
HETATM   41  C   UNL     1      -2.213  -8.158  -0.658  1.00  0.00     0.179 C 
HETATM   42  O   UNL     1      -1.902  -6.752  -0.480  1.00  0.00    -0.348 OA
BRANCH  38  43
HETATM   43  O   UNL     1       0.694  -6.777  -2.085  1.00  0.00    -0.388 OA
HETATM   44  H   UNL     1       0.864  -6.034  -1.475  1.00  0.00     0.210 HD
ENDBRANCH  38  43
BRANCH  39  45
HETATM   45  O   UNL     1      -0.339  -8.756  -3.875  1.00  0.00    -0.390 OA
HETATM   46  H   UNL     1       0.547  -8.348  -3.844  1.00  0.00     0.210 HD
ENDBRANCH  39  45
BRANCH  40  47
HETATM   47  O   UNL     1       0.051  -9.058  -0.972  1.00  0.00    -0.390 OA
HETATM   48  H   UNL     1       0.549  -8.220  -1.046  1.00  0.00     0.210 HD
ENDBRANCH  40  47
BRANCH  41  49
HETATM   49  C   UNL     1      -2.190  -8.893   0.705  1.00  0.00     0.198 C 
BRANCH  49  50
HETATM   50  O   UNL     1      -3.108  -8.332   1.637  1.00  0.00    -0.398 OA
HETATM   51  H   UNL     1      -2.713  -7.491   1.927  1.00  0.00     0.209 HD
ENDBRANCH  49  50
ENDBRANCH  41  49
ENDBRANCH  36  37
ENDBRANCH  31  36
BRANCH  32  52
HETATM   52  O   UNL     1      -4.065  -5.160  -4.943  1.00  0.00    -0.390 OA
HETATM   53  H   UNL     1      -3.376  -5.681  -5.397  1.00  0.00     0.210 HD
ENDBRANCH  32  52
BRANCH  33  54
HETATM   54  O   UNL     1      -5.659  -3.162  -3.430  1.00  0.00    -0.347 OA
BRANCH  54  55
HETATM   55  C   UNL     1      -6.567  -3.922  -4.286  1.00  0.00     0.292 C 
HETATM   56  C   UNL     1      -6.883  -3.305  -5.684  1.00  0.00     0.204 C 
HETATM   57  C   UNL     1      -7.814  -2.086  -5.500  1.00  0.00     0.183 C 
HETATM   58  C   UNL     1      -9.102  -2.479  -4.764  1.00  0.00     0.180 C 
HETATM   59  C   UNL     1      -8.747  -3.193  -3.436  1.00  0.00     0.179 C 
HETATM   60  O   UNL     1      -7.806  -4.260  -3.607  1.00  0.00    -0.348 OA
BRANCH  56  61
HETATM   61  O   UNL     1      -7.439  -4.311  -6.566  1.00  0.00    -0.388 OA
HETATM   62  H   UNL     1      -8.235  -3.903  -6.963  1.00  0.00     0.210 HD
ENDBRANCH  56  61
BRANCH  57  63
HETATM   63  O   UNL     1      -8.108  -1.500  -6.785  1.00  0.00    -0.390 OA
HETATM   64  H   UNL     1      -9.079  -1.485  -6.906  1.00  0.00     0.210 HD
ENDBRANCH  57  63
BRANCH  58  65
HETATM   65  O   UNL     1      -9.881  -3.248  -5.701  1.00  0.00    -0.390 OA
HETATM   66  H   UNL     1     -10.471  -3.868  -5.235  1.00  0.00     0.210 HD
ENDBRANCH  58  65
BRANCH  59  67
HETATM   67  C   UNL     1     -10.003  -3.776  -2.753  1.00  0.00     0.198 C 
BRANCH  67  68
HETATM   68  O   UNL     1      -9.693  -4.418  -1.518  1.00  0.00    -0.398 OA
HETATM   69  H   UNL     1      -9.162  -5.208  -1.739  1.00  0.00     0.209 HD
ENDBRANCH  67  68
ENDBRANCH  59  67
ENDBRANCH  54  55
ENDBRANCH  33  54
BRANCH  34  70
HETATM   70  C   UNL     1      -4.308  -0.621  -2.602  1.00  0.00     0.172 C 
HETATM   71  O   UNL     1      -5.275  -0.089  -3.025  1.00  0.00    -0.648 OA
BRANCH  70  72
HETATM   72  O   UNL     1      -3.643  -0.190  -1.484  1.00  0.00    -0.774 OA
HETATM   73  H   UNL     1      -2.883  -0.786  -1.339  1.00  0.00     0.167 HD
ENDBRANCH  70  72
ENDBRANCH  34  70
ENDBRANCH  29  30
ENDBRANCH  16  29
BRANCH  17  74
HETATM   74  C   UNL     1       0.973  -3.407  -5.900  1.00  0.00     0.176 C 
BRANCH  74  75
HETATM   75  O   UNL     1       0.799  -4.673  -5.232  1.00  0.00    -0.400 OA
HETATM   76  H   UNL     1       1.687  -5.046  -5.050  1.00  0.00     0.209 HD
ENDBRANCH  74  75
ENDBRANCH  17  74
BRANCH  24  77
HETATM   77  O   UNL     1       6.820  -1.795  -1.629  1.00  0.00    -0.395 OA
HETATM   78  H   UNL     1       6.206  -1.888  -0.865  1.00  0.00     0.210 HD
ENDBRANCH  24  77
BRANCH   3  79
HETATM   79  C   UNL     1       6.958   0.022   0.134  1.00  0.00     0.179 C 
BRANCH  79  80
HETATM   80  O   UNL     1       5.770  -0.663   0.523  1.00  0.00    -0.400 OA
HETATM   81  H   UNL     1       5.700  -0.519   1.493  1.00  0.00     0.209 HD
ENDBRANCH  79  80
ENDBRANCH   3  79
BRANCH   2  82
HETATM   82  O   UNL     1       8.653   1.558  -2.685  1.00  0.00    -0.313 OA
BRANCH  82  83
HETATM   83  C   UNL     1       9.649   1.117  -3.521  1.00  0.00     0.255 C 
HETATM   84  O   UNL     1      10.628   0.516  -3.170  1.00  0.00    -0.266 OA
HETATM   85  C   UNL     1       9.348   1.537  -4.955  1.00  0.00     0.126 C 
ENDBRANCH  82  83
ENDBRANCH   2  82
BRANCH   1  86
HETATM   86  O   UNL     1       6.336   2.462   0.306  1.00  0.00    -0.309 OA
BRANCH  86  87
HETATM   87  C   UNL     1       5.405   2.037   1.223  1.00  0.00     0.289 C 
HETATM   88  O   UNL     1       5.678   1.440   2.262  1.00  0.00    -0.260 OA
BRANCH  87  89
HETATM   89  C   UNL     1       3.925   2.160   0.762  1.00  0.00     0.009 C 
HETATM   90  C   UNL     1       3.068   1.124   0.988  1.00  0.00    -0.018 C 
HETATM   91  C   UNL     1       1.577   0.962   0.720  1.00  0.00     0.036 C 
HETATM   92  C   UNL     1       3.480   3.462   0.168  1.00  0.00     0.054 C 
ENDBRANCH  87  89
ENDBRANCH  86  87
ENDBRANCH   1  86
TORSDOF 29
