REMARK  10 active torsions:
REMARK  status: ('A' for Active; 'I' for Inactive)
REMARK    1  A    between atoms: C_2  and  C_3 
REMARK    2  A    between atoms: C_3  and  C_4 
REMARK    3  A    between atoms: C_4  and  C_5 
REMARK    4  A    between atoms: C_5  and  C_6 
REMARK    5  A    between atoms: C_5  and  C_8 
REMARK    6  A    between atoms: C_8  and  O_9 
REMARK    7  A    between atoms: O_9  and  C_10 
REMARK    8  A    between atoms: C_10  and  C_12 
REMARK    9  A    between atoms: C_13  and  C_14 
REMARK   10  A    between atoms: C_17  and  O_20 
ROOT
HETATM    1  C   UNL     1       7.204   3.356   3.884  1.00  0.00     0.282 C 
HETATM    2  O   UNL     1       6.607   2.497   4.514  1.00  0.00    -0.260 OA
ENDROOT
BRANCH   1   3
HETATM    3  O   UNL     1       7.185   3.529   2.539  1.00  0.00    -0.318 OA
BRANCH   3   4
HETATM    4  C   UNL     1       6.618   2.441   1.783  1.00  0.00     0.183 C 
BRANCH   4   5
HETATM    5  C   UNL     1       5.076   2.407   1.795  1.00  0.00     0.010 C 
BRANCH   5   6
HETATM    6  C   UNL     1       4.485   3.700   1.189  1.00  0.00     0.007 C 
BRANCH   6   7
HETATM    7  C   UNL     1       2.952   3.773   1.142  1.00  0.00     0.000 C 
BRANCH   7   8
HETATM    8  C   UNL     1       2.286   3.717   2.518  1.00  0.00    -0.005 C 
HETATM    9  C   UNL     1       0.770   3.796   2.401  1.00  0.00     0.005 C 
ENDBRANCH   7   8
ENDBRANCH   6   7
ENDBRANCH   5   6
BRANCH   5  10
HETATM   10  C   UNL     1       4.561   1.109   1.131  1.00  0.00     0.002 C 
HETATM   11  C   UNL     1       4.946   0.922  -0.330  1.00  0.00     0.005 C 
ENDBRANCH   5  10
ENDBRANCH   4   5
ENDBRANCH   3   4
ENDBRANCH   1   3
BRANCH   1  12
HETATM   12  C   UNL     1       8.154   4.325   4.471  1.00  0.00     0.083 C 
HETATM   13  C   UNL     1       8.361   4.306   5.797  1.00  0.00     0.017 C 
BRANCH  13  14
HETATM   14  C   UNL     1       9.335   5.140   6.517  1.00  0.00    -0.036 A 
HETATM   15  C   UNL     1       9.053   5.507   7.840  1.00  0.00     0.014 A 
HETATM   16  C   UNL     1       9.971   6.249   8.597  1.00  0.00     0.037 A 
HETATM   17  C   UNL     1      11.189   6.629   8.040  1.00  0.00     0.068 A 
HETATM   18  C   UNL     1      11.483   6.253   6.727  1.00  0.00     0.037 A 
HETATM   19  C   UNL     1      10.567   5.511   5.971  1.00  0.00     0.014 A 
BRANCH  17  20
HETATM   20  O   UNL     1      12.168   7.352   8.664  1.00  0.00    -0.356 OA
HETATM   21  C   UNL     1      11.913   7.752  10.005  1.00  0.00     0.210 C 
ENDBRANCH  17  20
ENDBRANCH  13  14
ENDBRANCH   1  12
TORSDOF 10
