REMARK  17 active torsions:
REMARK  status: ('A' for Active; 'I' for Inactive)
REMARK    1  A    between atoms: C_2  and  C_3 
REMARK    2  A    between atoms: C_3  and  C_4 
REMARK    3  A    between atoms: C_4  and  C_5 
REMARK    4  A    between atoms: C_5  and  C_6 
REMARK    5  A    between atoms: C_6  and  C_7 
REMARK    6  A    between atoms: C_7  and  C_8 
REMARK    7  A    between atoms: C_8  and  C_9 
REMARK    8  A    between atoms: C_10  and  C_11 
REMARK    9  A    between atoms: C_11  and  C_12 
REMARK   10  A    between atoms: C_12  and  C_13 
REMARK   11  A    between atoms: C_13  and  C_14 
REMARK   12  A    between atoms: C_14  and  C_15 
REMARK   13  A    between atoms: C_15  and  C_16 
REMARK   14  A    between atoms: C_16  and  C_17 
REMARK   15  A    between atoms: C_17  and  C_18 
REMARK   16  A    between atoms: C_18  and  O_20 
REMARK   17  A    between atoms: O_20  and  C_21 
ROOT
HETATM    1  C   UNL     1      11.028   7.117  -2.122  1.00  0.00     0.027 C 
ENDROOT
BRANCH   1   2
HETATM    2  C   UNL     1      10.510   5.772  -1.731  1.00  0.00    -0.031 C 
HETATM    3  C   UNL     1       9.732   5.038  -2.538  1.00  0.00    -0.031 C 
BRANCH   3   4
HETATM    4  C   UNL     1       9.223   3.689  -2.154  1.00  0.00     0.027 C 
BRANCH   4   5
HETATM    5  C   UNL     1       9.713   2.632  -3.134  1.00  0.00     0.004 C 
BRANCH   5   6
HETATM    6  C   UNL     1       9.188   1.263  -2.729  1.00  0.00     0.000 C 
BRANCH   6   7
HETATM    7  C   UNL     1       9.674   0.202  -3.703  1.00  0.00     0.000 C 
BRANCH   7   8
HETATM    8  C   UNL     1       9.151  -1.168  -3.297  1.00  0.00     0.000 C 
BRANCH   8   9
HETATM    9  C   UNL     1       9.639  -2.230  -4.271  1.00  0.00    -0.000 C 
BRANCH   9  10
HETATM   10  C   UNL     1       9.122  -3.605  -3.872  1.00  0.00    -0.005 C 
HETATM   11  C   UNL     1       9.612  -4.661  -4.844  1.00  0.00     0.005 C 
ENDBRANCH   9  10
ENDBRANCH   8   9
ENDBRANCH   7   8
ENDBRANCH   6   7
ENDBRANCH   5   6
ENDBRANCH   4   5
ENDBRANCH   3   4
ENDBRANCH   1   2
BRANCH   1  12
HETATM   12  C   UNL     1      12.551   7.125  -2.126  1.00  0.00     0.004 C 
BRANCH  12  13
HETATM   13  C   UNL     1      13.065   8.502  -2.529  1.00  0.00     0.000 C 
BRANCH  13  14
HETATM   14  C   UNL     1      14.587   8.522  -2.535  1.00  0.00     0.000 C 
BRANCH  14  15
HETATM   15  C   UNL     1      15.105   9.902  -2.939  1.00  0.00     0.000 C 
BRANCH  15  16
HETATM   16  C   UNL     1      16.628   9.914  -2.946  1.00  0.00     0.010 C 
BRANCH  16  17
HETATM   17  C   UNL     1      17.198  11.269  -3.358  1.00  0.00     0.111 C 
BRANCH  17  18
HETATM   18  C   UNL     1      18.707  11.222  -3.338  1.00  0.00     0.258 C 
HETATM   19  O   UNL     1      19.365  10.243  -3.014  1.00  0.00    -0.265 OA
BRANCH  18  20
HETATM   20  O   UNL     1      19.226  12.449  -3.617  1.00  0.00    -0.322 OA
BRANCH  20  21
HETATM   21  C   UNL     1      20.528  12.666  -3.044  1.00  0.00     0.174 C 
HETATM   22  C   UNL     1      20.336  13.154  -1.627  1.00  0.00     0.034 C 
ENDBRANCH  20  21
ENDBRANCH  18  20
ENDBRANCH  17  18
ENDBRANCH  16  17
ENDBRANCH  15  16
ENDBRANCH  14  15
ENDBRANCH  13  14
ENDBRANCH  12  13
ENDBRANCH   1  12
TORSDOF 17
