REMARK  7 active torsions:
REMARK  status: ('A' for Active; 'I' for Inactive)
REMARK    1  A    between atoms: C_1  and  C_2 
REMARK    2  A    between atoms: C_1  and  O_12 
REMARK    3  A    between atoms: C_3  and  O_11 
REMARK    4  A    between atoms: C_4  and  O_10 
REMARK    5  A    between atoms: C_5  and  C_7 
REMARK    6  A    between atoms: C_5  and  O_9 
REMARK    7  A    between atoms: C_7  and  O_8 
ROOT
HETATM    1  C   UNL     1       0.560  -0.204   1.488  1.00  0.00     0.180 C 
HETATM    2  C   UNL     1       0.958   0.919   2.444  1.00  0.00     0.183 C 
HETATM    3  C   UNL     1       1.181   0.231   3.789  1.00  0.00     0.213 C 
HETATM    4  C   UNL     1       0.885  -1.254   3.513  1.00  0.00     0.213 C 
HETATM    5  O   UNL     1       0.997  -1.439   2.093  1.00  0.00    -0.341 OA
ENDROOT
BRANCH   4   6
HETATM    6  C   UNL     1       1.875  -2.199   4.214  1.00  0.00     0.235 C 
BRANCH   6   7
HETATM    7  O   UNL     1       3.209  -2.006   3.744  1.00  0.00    -0.395 OA
HETATM    8  H   UNL     1       3.199  -2.272   2.804  1.00  0.00     0.209 HD
ENDBRANCH   6   7
ENDBRANCH   4   6
BRANCH   4   9
HETATM    9  O   UNL     1      -0.432  -1.594   3.939  1.00  0.00    -0.362 OA
HETATM   10  H   UNL     1      -1.044  -1.007   3.462  1.00  0.00     0.213 HD
ENDBRANCH   4   9
BRANCH   3  11
HETATM   11  O   UNL     1       0.330   0.819   4.787  1.00  0.00    -0.387 OA
HETATM   12  H   UNL     1      -0.040   0.083   5.312  1.00  0.00     0.210 HD
ENDBRANCH   3  11
BRANCH   2  13
HETATM   13  O   UNL     1      -0.068   1.910   2.517  1.00  0.00    -0.390 OA
HETATM   14  H   UNL     1      -0.162   2.119   3.471  1.00  0.00     0.210 HD
ENDBRANCH   2  13
BRANCH   1  15
HETATM   15  C   UNL     1       1.187  -0.047   0.104  1.00  0.00     0.198 C 
BRANCH  15  16
HETATM   16  O   UNL     1       0.776  -1.111  -0.755  1.00  0.00    -0.398 OA
HETATM   17  H   UNL     1       1.034  -1.939  -0.310  1.00  0.00     0.209 HD
ENDBRANCH  15  16
ENDBRANCH   1  15
TORSDOF 7
