REMARK  6 active torsions:
REMARK  status: ('A' for Active; 'I' for Inactive)
REMARK    1  A    between atoms: C_1  and  O_13 
REMARK    2  A    between atoms: C_2  and  O_12 
REMARK    3  A    between atoms: C_3  and  C_9 
REMARK    4  A    between atoms: C_5  and  O_8 
REMARK    5  A    between atoms: C_6  and  O_7 
REMARK    6  A    between atoms: C_9  and  O_11 
ROOT
HETATM    1  C   UNL     1       0.666   1.254  -0.250  1.00  0.00     0.183 C 
HETATM    2  C   UNL     1       1.441   0.018   0.243  1.00  0.00     0.189 C 
HETATM    3  C   UNL     1       0.696  -1.258  -0.156  1.00  0.00     0.253 C 
HETATM    4  O   UNL     1      -0.623  -1.237   0.423  1.00  0.00    -0.340 OA
HETATM    5  C   UNL     1      -1.418  -0.189  -0.132  1.00  0.00     0.289 C 
HETATM    6  C   UNL     1      -0.807   1.194   0.193  1.00  0.00     0.204 C 
ENDROOT
BRANCH   3   7
HETATM    7  C   UNL     1       1.418  -2.504   0.342  1.00  0.00     0.172 C 
HETATM    8  O   UNL     1       2.563  -2.807   0.051  1.00  0.00    -0.648 OA
BRANCH   7   9
HETATM    9  O   UNL     1       0.624  -3.269   1.136  1.00  0.00    -0.774 OA
HETATM   10  H   UNL     1      -0.269  -2.858   1.202  1.00  0.00     0.167 HD
ENDBRANCH   7   9
ENDBRANCH   3   7
BRANCH   2  11
HETATM   11  O   UNL     1       1.556   0.122   1.670  1.00  0.00    -0.390 OA
HETATM   12  H   UNL     1       0.818  -0.345   2.098  1.00  0.00     0.210 HD
ENDBRANCH   2  11
BRANCH   1  13
HETATM   13  O   UNL     1       0.733   1.432  -1.673  1.00  0.00    -0.390 OA
HETATM   14  H   UNL     1       0.445   0.634  -2.147  1.00  0.00     0.210 HD
ENDBRANCH   1  13
BRANCH   5  15
HETATM   15  O   UNL     1      -2.725  -0.332   0.399  1.00  0.00    -0.368 OA
HETATM   16  H   UNL     1      -2.875   0.395   1.027  1.00  0.00     0.212 HD
ENDBRANCH   5  15
BRANCH   6  17
HETATM   17  O   UNL     1      -1.565   2.239  -0.424  1.00  0.00    -0.388 OA
HETATM   18  H   UNL     1      -1.076   2.509  -1.228  1.00  0.00     0.210 HD
ENDBRANCH   6  17
TORSDOF 6
