REMARK  5 active torsions:
REMARK  status: ('A' for Active; 'I' for Inactive)
REMARK    1  A    between atoms: C_1  and  C_2 
REMARK    2  A    between atoms: C_1  and  O_12 
REMARK    3  A    between atoms: C_3  and  O_11 
REMARK    4  A    between atoms: C_4  and  O_10 
REMARK    5  A    between atoms: C_5  and  O_9 
ROOT
HETATM    1  C   UNL     1       0.446  -0.961  -0.897  1.00  0.00     0.186 C 
HETATM    2  C   UNL     1      -0.206  -2.154  -0.192  1.00  0.00     0.181 C 
HETATM    3  C   UNL     1       0.877  -3.078   0.381  1.00  0.00     0.188 C 
HETATM    4  C   UNL     1       1.841  -3.516  -0.715  1.00  0.00     0.248 C 
HETATM    5  C   UNL     1       2.460  -2.292  -1.369  1.00  0.00     0.291 C 
HETATM    6  O   UNL     1       3.633  -2.248  -1.708  1.00  0.00    -0.262 OA
HETATM    7  O   UNL     1       1.580  -1.330  -1.741  1.00  0.00    -0.309 OA
ENDROOT
BRANCH   1   8
HETATM    8  C   UNL     1       0.940   0.095   0.098  1.00  0.00     0.199 C 
BRANCH   8   9
HETATM    9  O   UNL     1       1.516   1.200  -0.591  1.00  0.00    -0.398 OA
HETATM   10  H   UNL     1       2.249   0.854  -1.136  1.00  0.00     0.209 HD
ENDBRANCH   8   9
ENDBRANCH   1   8
BRANCH   2  11
HETATM   11  O   UNL     1      -1.052  -2.857  -1.116  1.00  0.00    -0.390 OA
HETATM   12  H   UNL     1      -0.501  -3.179  -1.858  1.00  0.00     0.210 HD
ENDBRANCH   2  11
BRANCH   3  13
HETATM   13  O   UNL     1       0.274  -4.226   0.987  1.00  0.00    -0.390 OA
HETATM   14  H   UNL     1      -0.214  -4.679   0.270  1.00  0.00     0.210 HD
ENDBRANCH   3  13
BRANCH   4  15
HETATM   15  O   UNL     1       1.138  -4.272  -1.712  1.00  0.00    -0.383 OA
HETATM   16  H   UNL     1       1.765  -4.419  -2.448  1.00  0.00     0.210 HD
ENDBRANCH   4  15
TORSDOF 5
