REMARK  7 active torsions:
REMARK  status: ('A' for Active; 'I' for Inactive)
REMARK    1  A    between atoms: CB_1  and  CG_2 
REMARK    2  A    between atoms: CB_1  and  CA_6 
REMARK    3  A    between atoms: CG_2  and  CD_3 
REMARK    4  A    between atoms: CD_3  and  OE2_5 
REMARK    5  A    between atoms: CA_6  and  C_7 
REMARK    6  A    between atoms: CA_6  and  N_10 
REMARK    7  A    between atoms: C_7  and  OXT_9 
ROOT
ATOM      1  CA  GLU A   1       2.591   0.083  -0.056  1.00  0.00     0.315 C 
ENDROOT
BRANCH   1   2
ATOM      2  CB  GLU A   1       1.053   0.068  -0.018  1.00  0.00     0.057 C 
BRANCH   2   3
ATOM      3  CG  GLU A   1       0.458  -1.238   0.529  1.00  0.00     0.112 C 
BRANCH   3   4
ATOM      4  CD  GLU A   1       0.905  -1.527   1.943  1.00  0.00     0.139 C 
ATOM      5  OE1 GLU A   1       1.203  -0.675   2.764  1.00  0.00    -0.650 OA
BRANCH   4   6
ATOM      6  OE2 GLU A   1       0.961  -2.847   2.221  1.00  0.00    -0.776 OA
ATOM      7  HE2 GLU A   1       0.695  -3.431   1.486  1.00  0.00     0.167 HD
ENDBRANCH   4   6
ENDBRANCH   3   4
ENDBRANCH   2   3
ENDBRANCH   1   2
BRANCH   1   8
ATOM      8  C   GLU A   1       3.152  -1.041  -0.949  1.00  0.00     0.173 C 
ATOM      9  O   GLU A   1       2.571  -1.526  -1.908  1.00  0.00    -0.648 OA
BRANCH   8  10
ATOM     10  OXT GLU A   1       4.399  -1.423  -0.589  1.00  0.00    -0.775 OA
ATOM     11  HXT GLU A   1       4.743  -0.952   0.196  1.00  0.00     0.167 HD
ENDBRANCH   8  10
ENDBRANCH   1   8
BRANCH   1  12
ATOM     12  N   GLU A   1       3.072   1.382  -0.559  1.00  0.00     0.093 N 
ATOM     13  H1  GLU A   1       2.712   1.529  -1.505  1.00  0.00     0.314 HD
ATOM     14  H2  GLU A   1       4.087   1.384  -0.648  1.00  0.00     0.314 HD
ENDBRANCH   1  12
TORSDOF 7
