REMARK  9 active torsions:
REMARK  status: ('A' for Active; 'I' for Inactive)
REMARK    1  A    between atoms: C_2  and  C_7 
REMARK    2  A    between atoms: C_7  and  C_8 
REMARK    3  A    between atoms: C_8  and  N_9 
REMARK       I    between atoms: N_9  and  C_10 
REMARK    4  A    between atoms: C_10  and  C_12 
REMARK    5  A    between atoms: C_12  and  C_13 
REMARK    6  A    between atoms: C_12  and  N_18 
REMARK    7  A    between atoms: C_13  and  C_14 
REMARK    8  A    between atoms: C_14  and  C_15 
REMARK    9  A    between atoms: C_15  and  O_17 
ROOT
HETATM    1  N   UNL     1       2.661  -4.151  -0.125  1.00  0.00    -0.359 N 
HETATM    2  C   UNL     1       2.453  -5.486   0.155  1.00  0.00     0.250 C 
HETATM    3  O   UNL     1       1.353  -5.933   0.474  1.00  0.00    -0.271 OA
HETATM    4  H   UNL     1       3.549  -3.911  -0.559  1.00  0.00     0.162 HD
ENDROOT
BRANCH   2   5
HETATM    5  C   UNL     1       3.734  -6.350   0.060  1.00  0.00     0.309 C 
BRANCH   5   6
HETATM    6  C   UNL     1       3.408  -7.834   0.318  1.00  0.00     0.055 C 
BRANCH   6   7
HETATM    7  C   UNL     1       4.613  -8.779   0.333  1.00  0.00     0.112 C 
BRANCH   7   8
HETATM    8  C   UNL     1       5.611  -8.465   1.424  1.00  0.00     0.139 C 
HETATM    9  O   UNL     1       5.497  -7.581   2.257  1.00  0.00    -0.650 OA
BRANCH   8  10
HETATM   10  O   UNL     1       6.685  -9.286   1.389  1.00  0.00    -0.776 OA
HETATM   11  H   UNL     1       6.644  -9.968   0.692  1.00  0.00     0.167 HD
ENDBRANCH   8  10
ENDBRANCH   7   8
ENDBRANCH   6   7
ENDBRANCH   5   6
BRANCH   5  12
HETATM   12  N   UNL     1       4.367  -6.130  -1.259  1.00  0.00     0.092 N 
HETATM   13  H   UNL     1       3.688  -6.349  -1.990  1.00  0.00     0.313 HD
HETATM   14  H   UNL     1       5.139  -6.779  -1.388  1.00  0.00     0.313 HD
ENDBRANCH   5  12
ENDBRANCH   2   5
BRANCH   1  15
HETATM   15  C   UNL     1       1.586  -3.181  -0.068  1.00  0.00     0.128 C 
BRANCH  15  16
HETATM   16  C   UNL     1       1.364  -2.633   1.347  1.00  0.00     0.078 C 
BRANCH  16  17
HETATM   17  C   UNL     1       0.230  -1.672   1.389  1.00  0.00     0.027 A 
HETATM   18  C   UNL     1       0.161  -0.305   1.210  1.00  0.00     0.114 A 
HETATM   19  N   UNL     1      -1.127   0.141   1.341  1.00  0.00    -0.360 N 
HETATM   20  C   UNL     1      -1.840  -0.926   1.604  1.00  0.00     0.180 A 
ATOM     21  HN  UNL     1      -1.461   1.101   1.253  1.00  0.00     0.166 HD
HETATM   22  N   UNL     1      -1.069  -2.051   1.642  1.00  0.00    -0.355 N 
HETATM   23  H   UNL     1      -1.390  -2.988   1.834  1.00  0.00     0.166 HD
ENDBRANCH  16  17
ENDBRANCH  15  16
ENDBRANCH   1  15
TORSDOF 9
