REMARK  3 active torsions:
REMARK  status: ('A' for Active; 'I' for Inactive)
REMARK    1  A    between atoms: CA_1  and  C_2 
REMARK    2  A    between atoms: CA_1  and  N_5 
REMARK    3  A    between atoms: C_2  and  OXT_4 
ROOT
ATOM      1  CA  GLY A   1       1.043   0.039   0.128  1.00  0.00     0.376 C 
ENDROOT
BRANCH   1   2
ATOM      2  C   GLY A   1       0.551  -0.795   1.308  1.00  0.00     0.168 C 
ATOM      3  O   GLY A   1      -0.515  -0.641   1.880  1.00  0.00    -0.649 OA
BRANCH   2   4
ATOM      4  OXT GLY A   1       1.447  -1.765   1.631  1.00  0.00    -0.775 OA
ATOM      5  HXT GLY A   1       2.212  -1.645   1.015  1.00  0.00     0.167 HD
ENDBRANCH   2   4
ENDBRANCH   1   2
BRANCH   1   6
ATOM      6  N   GLY A   1       2.519  -0.092   0.021  1.00  0.00     0.088 N 
ATOM      7  H1  GLY A   1       2.935   0.434   0.798  1.00  0.00     0.313 HD
ATOM      8  H2  GLY A   1       2.813   0.424  -0.813  1.00  0.00     0.313 HD
ENDBRANCH   1   6
TORSDOF 3
