REMARK  22 active torsions:
REMARK  status: ('A' for Active; 'I' for Inactive)
REMARK    1  A    between atoms: C_2  and  C_3 
REMARK    2  A    between atoms: C_3  and  C_4 
REMARK    3  A    between atoms: C_4  and  C_5 
REMARK    4  A    between atoms: C_5  and  C_6 
REMARK    5  A    between atoms: C_6  and  C_7 
REMARK    6  A    between atoms: C_7  and  C_8 
REMARK    7  A    between atoms: C_8  and  C_9 
REMARK    8  A    between atoms: C_9  and  C_10 
REMARK    9  A    between atoms: C_10  and  C_11 
REMARK   10  A    between atoms: C_11  and  C_12 
REMARK   11  A    between atoms: C_12  and  C_13 
REMARK   12  A    between atoms: C_13  and  C_14 
REMARK   13  A    between atoms: C_14  and  C_15 
REMARK   14  A    between atoms: C_15  and  C_16 
REMARK   15  A    between atoms: C_16  and  C_17 
REMARK   16  A    between atoms: C_17  and  C_18 
REMARK   17  A    between atoms: C_18  and  O_20 
REMARK   18  A    between atoms: O_20  and  C_21 
REMARK   19  A    between atoms: C_21  and  C_22 
REMARK   20  A    between atoms: C_22  and  C_23 
REMARK   21  A    between atoms: C_22  and  O_25 
REMARK   22  A    between atoms: C_23  and  O_24 
ROOT
HETATM    1  C   UNL     1      14.748   8.506   1.191  1.00  0.00     0.000 C 
ENDROOT
BRANCH   1   2
HETATM    2  C   UNL     1      13.228   8.490   1.188  1.00  0.00     0.000 C 
BRANCH   2   3
HETATM    3  C   UNL     1      12.715   7.075   0.978  1.00  0.00     0.000 C 
BRANCH   3   4
HETATM    4  C   UNL     1      11.197   7.068   0.976  1.00  0.00     0.000 C 
BRANCH   4   5
HETATM    5  C   UNL     1      10.685   5.654   0.766  1.00  0.00     0.000 C 
BRANCH   5   6
HETATM    6  C   UNL     1       9.168   5.649   0.763  1.00  0.00     0.000 C 
BRANCH   6   7
HETATM    7  C   UNL     1       8.657   4.236   0.555  1.00  0.00     0.000 C 
BRANCH   7   8
HETATM    8  C   UNL     1       7.139   4.231   0.550  1.00  0.00     0.000 C 
BRANCH   8   9
HETATM    9  C   UNL     1       6.628   2.817   0.344  1.00  0.00     0.000 C 
BRANCH   9  10
HETATM   10  C   UNL     1       5.111   2.811   0.338  1.00  0.00     0.000 C 
BRANCH  10  11
HETATM   11  C   UNL     1       4.598   1.395   0.132  1.00  0.00     0.000 C 
BRANCH  11  12
HETATM   12  C   UNL     1       3.078   1.386   0.126  1.00  0.00    -0.000 C 
BRANCH  12  13
HETATM   13  C   UNL     1       2.555  -0.028  -0.080  1.00  0.00    -0.005 C 
HETATM   14  C   UNL     1       1.039  -0.034  -0.083  1.00  0.00     0.005 C 
ENDBRANCH  12  13
ENDBRANCH  11  12
ENDBRANCH  10  11
ENDBRANCH   9  10
ENDBRANCH   8   9
ENDBRANCH   7   8
ENDBRANCH   6   7
ENDBRANCH   5   6
ENDBRANCH   4   5
ENDBRANCH   3   4
ENDBRANCH   2   3
ENDBRANCH   1   2
BRANCH   1  15
HETATM   15  C   UNL     1      15.262   9.926   1.402  1.00  0.00     0.000 C 
BRANCH  15  16
HETATM   16  C   UNL     1      16.783   9.942   1.404  1.00  0.00     0.010 C 
BRANCH  16  17
HETATM   17  C   UNL     1      17.350  11.347   1.606  1.00  0.00     0.111 C 
BRANCH  17  18
HETATM   18  C   UNL     1      18.859  11.294   1.594  1.00  0.00     0.258 C 
HETATM   19  O   UNL     1      19.509  10.253   1.470  1.00  0.00    -0.265 OA
BRANCH  18  20
HETATM   20  O   UNL     1      19.395  12.521   1.832  1.00  0.00    -0.319 OA
BRANCH  20  21
HETATM   21  C   UNL     1      20.694  12.473   2.447  1.00  0.00     0.212 C 
BRANCH  21  22
HETATM   22  C   UNL     1      21.812  12.126   1.469  1.00  0.00     0.166 C 
BRANCH  22  23
HETATM   23  C   UNL     1      21.903  13.154   0.345  1.00  0.00     0.198 C 
BRANCH  23  24
HETATM   24  O   UNL     1      22.945  12.800  -0.544  1.00  0.00    -0.398 OA
HETATM   25  H   UNL     1      23.783  12.832  -0.047  1.00  0.00     0.209 HD
ENDBRANCH  23  24
ENDBRANCH  22  23
BRANCH  22  26
HETATM   26  O   UNL     1      23.054  12.003   2.161  1.00  0.00    -0.391 OA
HETATM   27  H   UNL     1      23.333  12.876   2.487  1.00  0.00     0.210 HD
ENDBRANCH  22  26
ENDBRANCH  21  22
ENDBRANCH  20  21
ENDBRANCH  18  20
ENDBRANCH  17  18
ENDBRANCH  16  17
ENDBRANCH  15  16
ENDBRANCH   1  15
TORSDOF 22
