REMARK  22 active torsions:
REMARK  status: ('A' for Active; 'I' for Inactive)
REMARK       I    between atoms: C_2  and  N_4 
REMARK    1  A    between atoms: N_4  and  C_5 
REMARK    2  A    between atoms: C_6  and  O_51 
REMARK    3  A    between atoms: C_7  and  O_25 
REMARK    4  A    between atoms: C_8  and  C_23 
REMARK    5  A    between atoms: C_10  and  N_11 
REMARK       I    between atoms: N_11  and  C_12 
REMARK    6  A    between atoms: C_12  and  C_14 
REMARK    7  A    between atoms: C_14  and  C_15 
REMARK    8  A    between atoms: C_15  and  C_16 
REMARK    9  A    between atoms: C_15  and  N_19 
REMARK       I    between atoms: C_16  and  N_18 
REMARK       I    between atoms: N_19  and  C_20 
REMARK   10  A    between atoms: C_23  and  O_24 
REMARK   11  A    between atoms: O_25  and  C_26 
REMARK   12  A    between atoms: C_27  and  N_47 
REMARK   13  A    between atoms: C_28  and  O_46 
REMARK   14  A    between atoms: C_29  and  O_34 
REMARK   15  A    between atoms: C_30  and  C_32 
REMARK   16  A    between atoms: C_32  and  O_33 
REMARK   17  A    between atoms: O_34  and  C_35 
REMARK   18  A    between atoms: C_36  and  O_45 
REMARK   19  A    between atoms: C_37  and  O_44 
REMARK   20  A    between atoms: C_38  and  O_43 
REMARK   21  A    between atoms: C_39  and  C_41 
REMARK   22  A    between atoms: C_41  and  O_42 
REMARK       I    between atoms: N_47  and  C_48 
ROOT
HETATM    1  O   UNL     1       7.357  -0.259  -0.219  1.00  0.00    -0.348 OA
ENDROOT
BRANCH   1   2
HETATM    2  C   UNL     1       6.919  -0.146  -1.581  1.00  0.00     0.186 C 
HETATM    3  C   UNL     1       5.432   0.015  -1.609  1.00  0.00     0.176 C 
HETATM    4  C   UNL     1       4.533  -1.209  -1.529  1.00  0.00     0.164 C 
HETATM    5  C   UNL     1       4.889  -2.124  -2.707  1.00  0.00     0.249 C 
HETATM    6  O   UNL     1       6.307  -2.386  -2.676  1.00  0.00    -0.354 OA
HETATM    7  C   UNL     1       7.272  -1.311  -2.556  1.00  0.00     0.179 C 
BRANCH   3   8
HETATM    8  O   UNL     1       5.052   0.955  -2.635  1.00  0.00    -0.391 OA
HETATM    9  H   UNL     1       4.111   0.766  -2.869  1.00  0.00     0.210 HD
ENDBRANCH   3   8
BRANCH   4  10
HETATM   10  N   UNL     1       3.170  -0.650  -1.408  1.00  0.00    -0.350 N 
HETATM   11  C   UNL     1       2.006  -1.362  -1.323  1.00  0.00     0.214 C 
HETATM   12  C   UNL     1       0.792  -0.487  -1.071  1.00  0.00     0.117 C 
HETATM   13  O   UNL     1       1.947  -2.572  -1.407  1.00  0.00    -0.274 OA
HETATM   14  H   UNL     1       3.101   0.313  -1.094  1.00  0.00     0.163 HD
ENDBRANCH   4  10
BRANCH   5  15
HETATM   15  N   UNL     1       4.506  -1.578  -3.996  1.00  0.00    -0.333 N 
HETATM   16  C   UNL     1       3.384  -1.984  -4.686  1.00  0.00     0.222 C 
HETATM   17  O   UNL     1       2.727  -2.989  -4.444  1.00  0.00    -0.273 OA
HETATM   18  H   UNL     1       4.849  -0.658  -4.218  1.00  0.00     0.165 HD
BRANCH  16  19
HETATM   19  C   UNL     1       3.020  -1.065  -5.835  1.00  0.00     0.137 C 
BRANCH  19  20
HETATM   20  C   UNL     1       1.565  -0.624  -5.717  1.00  0.00     0.185 C 
BRANCH  20  21
HETATM   21  C   UNL     1       1.291   0.243  -4.457  1.00  0.00     0.238 C 
HETATM   22  O   UNL     1       2.176   0.604  -3.648  1.00  0.00    -0.271 OA
HETATM   23  N   UNL     1      -0.015   0.565  -4.276  1.00  0.00    -0.368 N 
HETATM   24  H   UNL     1      -0.670   0.491  -5.053  1.00  0.00     0.159 HD
HETATM   25  H   UNL     1      -0.243   1.230  -3.552  1.00  0.00     0.159 HD
ENDBRANCH  20  21
BRANCH  20  26
HETATM   26  N   UNL     1       1.107   0.191  -6.854  1.00  0.00    -0.348 N 
HETATM   27  C   UNL     1       1.652   1.437  -7.092  1.00  0.00     0.214 C 
HETATM   28  O   UNL     1       2.521   1.943  -6.389  1.00  0.00    -0.274 OA
HETATM   29  C   UNL     1       1.058   2.179  -8.252  1.00  0.00     0.117 C 
HETATM   30  H   UNL     1       0.606  -0.274  -7.601  1.00  0.00     0.163 HD
ENDBRANCH  20  26
ENDBRANCH  19  20
ENDBRANCH  16  19
ENDBRANCH   5  15
BRANCH   7  31
HETATM   31  C   UNL     1       7.552  -0.735  -3.967  1.00  0.00     0.198 C 
BRANCH  31  32
HETATM   32  O   UNL     1       8.703   0.102  -3.977  1.00  0.00    -0.398 OA
HETATM   33  H   UNL     1       8.403   1.028  -3.960  1.00  0.00     0.209 HD
ENDBRANCH  31  32
ENDBRANCH   7  31
ENDBRANCH   1   2
BRANCH   1  34
HETATM   34  C   UNL     1       7.388   0.941   0.638  1.00  0.00     0.286 C 
HETATM   35  C   UNL     1       6.069   1.570   1.191  1.00  0.00     0.170 C 
HETATM   36  C   UNL     1       5.532   2.770   0.373  1.00  0.00     0.177 C 
HETATM   37  C   UNL     1       6.519   3.574  -0.490  1.00  0.00     0.186 C 
HETATM   38  C   UNL     1       8.022   3.221  -0.254  1.00  0.00     0.180 C 
HETATM   39  O   UNL     1       8.355   1.927   0.285  1.00  0.00    -0.349 OA
BRANCH  35  40
HETATM   40  N   UNL     1       4.983   0.621   1.500  1.00  0.00    -0.349 N 
HETATM   41  C   UNL     1       5.143  -0.475   2.309  1.00  0.00     0.214 C 
HETATM   42  O   UNL     1       6.152  -0.679   2.970  1.00  0.00    -0.274 OA
HETATM   43  C   UNL     1       3.966  -1.418   2.303  1.00  0.00     0.117 C 
HETATM   44  H   UNL     1       4.059   0.847   1.148  1.00  0.00     0.163 HD
ENDBRANCH  35  40
BRANCH  36  45
HETATM   45  O   UNL     1       4.411   2.388  -0.484  1.00  0.00    -0.391 OA
HETATM   46  H   UNL     1       4.775   2.205  -1.379  1.00  0.00     0.210 HD
ENDBRANCH  36  45
BRANCH  37  47
HETATM   47  O   UNL     1       6.184   5.015  -0.441  1.00  0.00    -0.348 OA
BRANCH  47  48
HETATM   48  C   UNL     1       4.804   5.363  -0.794  1.00  0.00     0.292 C 
HETATM   49  C   UNL     1       4.508   5.456  -2.309  1.00  0.00     0.204 C 
HETATM   50  C   UNL     1       4.660   6.869  -2.861  1.00  0.00     0.183 C 
HETATM   51  C   UNL     1       3.780   7.819  -2.066  1.00  0.00     0.180 C 
HETATM   52  C   UNL     1       4.047   7.724  -0.551  1.00  0.00     0.179 C 
HETATM   53  O   UNL     1       4.230   6.410   0.000  1.00  0.00    -0.348 OA
BRANCH  49  54
HETATM   54  O   UNL     1       5.272   4.547  -3.114  1.00  0.00    -0.388 OA
HETATM   55  H   UNL     1       4.920   3.659  -2.927  1.00  0.00     0.210 HD
ENDBRANCH  49  54
BRANCH  50  56
HETATM   56  O   UNL     1       6.007   7.322  -2.858  1.00  0.00    -0.390 OA
HETATM   57  H   UNL     1       6.485   6.772  -3.506  1.00  0.00     0.210 HD
ENDBRANCH  50  56
BRANCH  51  58
HETATM   58  O   UNL     1       2.401   7.499  -2.330  1.00  0.00    -0.390 OA
HETATM   59  H   UNL     1       2.249   7.618  -3.286  1.00  0.00     0.210 HD
ENDBRANCH  51  58
BRANCH  52  60
HETATM   60  C   UNL     1       5.193   8.639  -0.098  1.00  0.00     0.198 C 
BRANCH  60  61
HETATM   61  O   UNL     1       5.276   8.714   1.329  1.00  0.00    -0.398 OA
HETATM   62  H   UNL     1       4.447   8.365   1.699  1.00  0.00     0.209 HD
ENDBRANCH  60  61
ENDBRANCH  52  60
ENDBRANCH  47  48
ENDBRANCH  37  47
BRANCH  38  63
HETATM   63  C   UNL     1       8.823   3.217  -1.587  1.00  0.00     0.198 C 
BRANCH  63  64
HETATM   64  O   UNL     1       8.804   4.429  -2.313  1.00  0.00    -0.398 OA
HETATM   65  H   UNL     1       7.949   4.495  -2.774  1.00  0.00     0.209 HD
ENDBRANCH  63  64
ENDBRANCH  38  63
ENDBRANCH   1  34
TORSDOF 22
