REMARK  3 active torsions:
REMARK  status: ('A' for Active; 'I' for Inactive)
REMARK    1  A    between atoms: C_11  and  O_12 
REMARK    2  A    between atoms: C_24  and  C_28 
REMARK    3  A    between atoms: C_28  and  O_30 
ROOT
HETATM    1  C   UNL     1      12.833  -6.664   0.842  1.00  0.00     0.018 C 
HETATM    2  C   UNL     1      12.171  -6.034  -0.404  1.00  0.00    -0.017 C 
HETATM    3  C   UNL     1      11.251  -4.862   0.010  1.00  0.00     0.005 C 
HETATM    4  C   UNL     1      10.360  -5.175   1.248  1.00  0.00     0.007 C 
HETATM    5  C   UNL     1       9.653  -3.959   1.950  1.00  0.00     0.011 C 
HETATM    6  C   UNL     1       8.485  -3.647   1.016  1.00  0.00    -0.025 C 
HETATM    7  C   UNL     1       9.684  -3.066  -0.491  1.00  0.00     0.072 C 
HETATM    8  C   UNL     1      10.644  -4.088  -1.222  1.00  0.00    -0.029 C 
HETATM    9  C   UNL     1      11.907  -3.426  -1.918  1.00  0.00     0.013 C 
HETATM   10  C   UNL     1      12.891  -4.528  -2.401  1.00  0.00     0.033 C 
HETATM   11  C   UNL     1      13.342  -5.404  -1.229  1.00  0.00     0.126 C 
HETATM   12  C   UNL     1      10.000  -4.704  -2.547  1.00  0.00     0.016 C 
HETATM   13  C   UNL     1       8.988  -1.806  -1.704  1.00  0.00     0.133 C 
HETATM   14  O   UNL     1       9.642  -1.322  -2.613  1.00  0.00    -0.298 OA
HETATM   15  C   UNL     1       7.253  -1.312  -1.616  1.00  0.00     0.084 C 
HETATM   16  C   UNL     1       6.322  -1.839  -0.624  1.00  0.00     0.006 C 
HETATM   17  C   UNL     1       6.951  -2.558   0.934  1.00  0.00    -0.032 C 
HETATM   18  C   UNL     1       8.025  -2.084   0.248  1.00  0.00     0.011 C 
HETATM   19  C   UNL     1       7.602  -3.671  -0.945  1.00  0.00     0.010 C 
HETATM   20  C   UNL     1       6.359  -3.880  -1.830  1.00  0.00    -0.040 C 
HETATM   21  C   UNL     1       5.383  -2.924  -1.205  1.00  0.00     0.000 C 
HETATM   22  C   UNL     1       4.326  -2.507  -2.215  1.00  0.00     0.025 C 
HETATM   23  C   UNL     1       4.863  -1.948  -3.558  1.00  0.00     0.042 C 
HETATM   24  C   UNL     1       5.791  -2.977  -4.226  1.00  0.00     0.021 C 
HETATM   25  C   UNL     1       6.794  -3.638  -3.321  1.00  0.00     0.011 C 
HETATM   26  C   UNL     1       3.681  -1.773  -4.516  1.00  0.00     0.026 C 
HETATM   27  C   UNL     1       5.928  -5.384  -1.782  1.00  0.00     0.015 C 
HETATM   28  C   UNL     1       6.541  -1.702   2.133  1.00  0.00     0.016 C 
HETATM   29  C   UNL     1       7.498  -4.822   1.575  1.00  0.00     0.016 C 
HETATM   30  C   UNL     1      11.353  -7.161  -1.070  1.00  0.00     0.018 C 
ENDROOT
BRANCH  23  31
HETATM   31  C   UNL     1       5.347  -0.497  -3.385  1.00  0.00     0.148 C 
HETATM   32  O   UNL     1       4.759   0.316  -2.669  1.00  0.00    -0.649 OA
BRANCH  31  33
HETATM   33  O   UNL     1       6.439  -0.113  -4.076  1.00  0.00    -0.776 OA
HETATM   34  H   UNL     1       6.993  -0.806  -4.477  1.00  0.00     0.167 HD
ENDBRANCH  31  33
ENDBRANCH  23  31
BRANCH  11  35
HETATM   35  O   UNL     1      14.257  -6.376  -1.679  1.00  0.00    -0.395 OA
HETATM   36  H   UNL     1      13.832  -6.928  -2.353  1.00  0.00     0.210 HD
ENDBRANCH  11  35
TORSDOF 3
