REMARK  11 active torsions:
REMARK  status: ('A' for Active; 'I' for Inactive)
REMARK    1  A    between atoms: C_1  and  C_2 
REMARK    2  A    between atoms: C_1  and  O_17 
REMARK    3  A    between atoms: C_2  and  C_3 
REMARK    4  A    between atoms: C_2  and  O_16 
REMARK    5  A    between atoms: C_3  and  O_4 
REMARK    6  A    between atoms: O_4  and  C_5 
REMARK    7  A    between atoms: C_6  and  O_15 
REMARK    8  A    between atoms: C_7  and  C_11 
REMARK    9  A    between atoms: C_11  and  C_12 
REMARK   10  A    between atoms: C_11  and  O_14 
REMARK   11  A    between atoms: C_12  and  O_13 
ROOT
HETATM    1  C   UNL     1       3.011  -2.477   2.786  1.00  0.00     0.176 A 
HETATM    2  C   UNL     1       2.787  -3.440   3.690  1.00  0.00     0.115 A 
HETATM    3  C   UNL     1       3.831  -3.452   4.752  1.00  0.00     0.222 A 
HETATM    4  O   UNL     1       4.650  -2.326   4.433  1.00  0.00    -0.301 OA
HETATM    5  C   UNL     1       4.222  -1.768   3.264  1.00  0.00     0.320 A 
HETATM    6  O   UNL     1       4.750  -0.818   2.714  1.00  0.00    -0.257 OA
ENDROOT
BRANCH   1   7
HETATM    7  O   UNL     1       2.374  -2.062   1.657  1.00  0.00    -0.341 OA
BRANCH   7   8
HETATM    8  C   UNL     1       1.195  -2.739   1.236  1.00  0.00     0.209 C 
BRANCH   8   9
HETATM    9  C   UNL     1       0.669  -2.112  -0.061  1.00  0.00     0.166 C 
BRANCH   9  10
HETATM   10  C   UNL     1       1.715  -2.161  -1.186  1.00  0.00     0.198 C 
BRANCH  10  11
HETATM   11  O   UNL     1       1.196  -1.649  -2.411  1.00  0.00    -0.398 OA
HETATM   12  H   UNL     1       0.280  -1.960  -2.512  1.00  0.00     0.209 HD
ENDBRANCH  10  11
ENDBRANCH   9  10
BRANCH   9  13
HETATM   13  O   UNL     1       0.258  -0.764   0.187  1.00  0.00    -0.391 OA
HETATM   14  H   UNL     1       1.067  -0.236   0.327  1.00  0.00     0.210 HD
ENDBRANCH   9  13
ENDBRANCH   8   9
ENDBRANCH   7   8
ENDBRANCH   1   7
BRANCH   2  15
HETATM   15  O   UNL     1       1.775  -4.353   3.784  1.00  0.00    -0.359 OA
HETATM   16  H   UNL     1       1.351  -4.487   2.924  1.00  0.00     0.217 HD
ENDBRANCH   2  15
BRANCH   3  17
HETATM   17  C   UNL     1       4.686  -4.739   4.743  1.00  0.00     0.177 C 
BRANCH  17  18
HETATM   18  C   UNL     1       5.750  -4.708   5.845  1.00  0.00     0.198 C 
BRANCH  18  19
HETATM   19  O   UNL     1       6.506  -5.920   5.805  1.00  0.00    -0.398 OA
HETATM   20  H   UNL     1       5.858  -6.631   5.626  1.00  0.00     0.209 HD
ENDBRANCH  18  19
ENDBRANCH  17  18
BRANCH  17  21
HETATM   21  O   UNL     1       3.915  -5.939   4.947  1.00  0.00    -0.390 OA
HETATM   22  H   UNL     1       3.144  -5.719   5.502  1.00  0.00     0.210 HD
ENDBRANCH  17  21
ENDBRANCH   3  17
TORSDOF 11
