REMARK  10 active torsions:
REMARK  status: ('A' for Active; 'I' for Inactive)
REMARK    1  A    between atoms: N_2  and  C_5 
REMARK    2  A    between atoms: C_5  and  C_6 
REMARK    3  A    between atoms: C_6  and  O_7 
REMARK    4  A    between atoms: O_7  and  P_8 
REMARK    5  A    between atoms: P_8  and  O_11 
REMARK    6  A    between atoms: O_11  and  C_12 
REMARK    7  A    between atoms: C_12  and  C_13 
REMARK    8  A    between atoms: C_13  and  C_14 
REMARK    9  A    between atoms: C_13  and  O_16 
REMARK   10  A    between atoms: C_14  and  O_15 
ROOT
HETATM    1  P   UNL     1       6.287  -2.253   2.473  1.00  0.00     0.408 P 
HETATM    2  O   UNL     1       6.071  -1.028   3.328  1.00  0.00    -0.624 OA
HETATM    3  O   UNL     1       5.881  -3.606   2.976  1.00  0.00    -0.624 OA
ENDROOT
BRANCH   1   4
HETATM    4  O   UNL     1       5.466  -2.037   1.087  1.00  0.00    -0.288 OA
BRANCH   4   5
HETATM    5  C   UNL     1       4.657  -0.885   0.914  1.00  0.00     0.209 C 
BRANCH   5   6
HETATM    6  C   UNL     1       3.130  -1.134   1.011  1.00  0.00     0.262 C 
BRANCH   6   7
HETATM    7  N   UNL     1       2.427  -0.936   2.381  1.00  0.00    -0.077 N 
HETATM    8  C   UNL     1       0.908  -0.953   2.179  1.00  0.00     0.271 C 
HETATM    9  C   UNL     1       2.797   0.387   3.027  1.00  0.00     0.271 C 
HETATM   10  C   UNL     1       2.778  -2.079   3.328  1.00  0.00     0.271 C 
ENDBRANCH   6   7
ENDBRANCH   5   6
ENDBRANCH   4   5
ENDBRANCH   1   4
BRANCH   1  11
HETATM   11  O   UNL     1       7.857  -2.285   1.967  1.00  0.00    -0.287 OA
BRANCH  11  12
HETATM   12  C   UNL     1       8.702  -3.007   2.869  1.00  0.00     0.215 C 
BRANCH  12  13
HETATM   13  C   UNL     1      10.229  -2.825   2.752  1.00  0.00     0.166 C 
BRANCH  13  14
HETATM   14  C   UNL     1      10.866  -3.203   1.411  1.00  0.00     0.198 C 
BRANCH  14  15
HETATM   15  O   UNL     1      12.296  -3.296   1.544  1.00  0.00    -0.398 OA
HETATM   16  H   UNL     1      12.537  -2.876   2.390  1.00  0.00     0.209 HD
ENDBRANCH  14  15
ENDBRANCH  13  14
BRANCH  13  17
HETATM   17  O   UNL     1      10.657  -1.502   3.101  1.00  0.00    -0.391 OA
HETATM   18  H   UNL     1      10.107  -0.890   2.574  1.00  0.00     0.210 HD
ENDBRANCH  13  17
ENDBRANCH  12  13
ENDBRANCH  11  12
ENDBRANCH   1  11
TORSDOF 10
