REMARK  12 active torsions:
REMARK  status: ('A' for Active; 'I' for Inactive)
REMARK    1  A    between atoms: C_3  and  N_17 
REMARK    2  A    between atoms: C_4  and  N_14 
REMARK    3  A    between atoms: C_6  and  N_7 
REMARK    4  A    between atoms: N_7  and  C_8 
REMARK    5  A    between atoms: N_7  and  C_11 
REMARK    6  A    between atoms: C_8  and  C_9 
REMARK    7  A    between atoms: C_9  and  O_10 
REMARK    8  A    between atoms: C_11  and  C_12 
REMARK    9  A    between atoms: C_12  and  O_13 
REMARK   10  A    between atoms: N_17  and  C_18 
REMARK   11  A    between atoms: C_18  and  C_19 
REMARK   12  A    between atoms: C_19  and  O_20 
ROOT
HETATM    1  C   UNL     1       1.372  -0.193  -0.008  1.00  0.00     0.025 A 
HETATM    2  C   UNL     1       0.541  -1.325  -0.078  1.00  0.00     0.028 A 
HETATM    3  C   UNL     1      -0.855  -1.219  -0.046  1.00  0.00     0.041 A 
HETATM    4  C   UNL     1      -1.368   0.100   0.037  1.00  0.00     0.125 A 
HETATM    5  C   UNL     1      -0.521   1.240   0.120  1.00  0.00     0.061 A 
HETATM    6  C   UNL     1       0.865   1.115   0.080  1.00  0.00     0.013 A 
ENDROOT
BRANCH   6   7
HETATM    7  N   UNL     1       1.769   2.195   0.070  1.00  0.00    -0.279 NA
BRANCH   7   8
HETATM    8  C   UNL     1       1.342   3.532   0.572  1.00  0.00     0.121 C 
BRANCH   8   9
HETATM    9  C   UNL     1       1.130   3.592   2.090  1.00  0.00     0.179 C 
BRANCH   9  10
HETATM   10  O   UNL     1       2.315   3.256   2.808  1.00  0.00    -0.400 OA
HETATM   11  H   UNL     1       2.364   2.283   2.800  1.00  0.00     0.209 HD
ENDBRANCH   9  10
ENDBRANCH   8   9
ENDBRANCH   7   8
BRANCH   7  12
HETATM   12  C   UNL     1       2.498   2.293  -1.236  1.00  0.00     0.121 C 
BRANCH  12  13
HETATM   13  C   UNL     1       4.007   2.454  -1.009  1.00  0.00     0.179 C 
BRANCH  13  14
HETATM   14  O   UNL     1       4.534   1.328  -0.311  1.00  0.00    -0.400 OA
HETATM   15  H   UNL     1       4.015   1.289   0.515  1.00  0.00     0.209 HD
ENDBRANCH  13  14
ENDBRANCH  12  13
ENDBRANCH   7  12
ENDBRANCH   6   7
BRANCH   4  16
HETATM   16  N   UNL     1      -2.824   0.348   0.054  1.00  0.00    -0.114 N 
HETATM   17  O   UNL     1      -3.591  -0.625   0.120  1.00  0.00    -0.532 OA
HETATM   18  O   UNL     1      -3.210   1.526   0.027  1.00  0.00    -0.532 OA
ENDBRANCH   4  16
BRANCH   3  19
HETATM   19  N   UNL     1      -1.666  -2.352  -0.260  1.00  0.00    -0.289 NA
HETATM   20  H   UNL     1      -2.639  -2.166   0.016  1.00  0.00     0.127 HD
BRANCH  19  21
HETATM   21  C   UNL     1      -1.218  -3.682   0.187  1.00  0.00     0.118 C 
BRANCH  21  22
HETATM   22  C   UNL     1      -2.328  -4.715  -0.070  1.00  0.00     0.178 C 
BRANCH  22  23
HETATM   23  O   UNL     1      -2.646  -4.777  -1.459  1.00  0.00    -0.400 OA
HETATM   24  H   UNL     1      -2.706  -3.850  -1.760  1.00  0.00     0.209 HD
ENDBRANCH  22  23
ENDBRANCH  21  22
ENDBRANCH  19  21
ENDBRANCH   3  19
TORSDOF 12
