REMARK  5 active torsions:
REMARK  status: ('A' for Active; 'I' for Inactive)
REMARK    1  A    between atoms: C_4  and  N_11 
REMARK    2  A    between atoms: C_5  and  N_7 
REMARK    3  A    between atoms: N_7  and  C_8 
REMARK    4  A    between atoms: C_8  and  C_9 
REMARK    5  A    between atoms: C_9  and  O_10 
ROOT
HETATM    1  C   UNL     1       1.360  -0.215   0.021  1.00  0.00     0.002 A 
HETATM    2  C   UNL     1       0.557  -1.340  -0.095  1.00  0.00     0.003 A 
HETATM    3  C   UNL     1      -0.825  -1.189  -0.152  1.00  0.00     0.038 A 
HETATM    4  C   UNL     1      -1.407   0.099  -0.100  1.00  0.00     0.123 A 
HETATM    5  C   UNL     1      -0.608   1.266   0.004  1.00  0.00     0.041 A 
HETATM    6  C   UNL     1       0.784   1.057   0.086  1.00  0.00     0.026 A 
ENDROOT
BRANCH   5   7
HETATM    7  N   UNL     1      -1.136   2.567   0.174  1.00  0.00    -0.289 NA
HETATM    8  H   UNL     1      -2.109   2.617  -0.155  1.00  0.00     0.127 HD
BRANCH   7   9
HETATM    9  C   UNL     1      -0.323   3.710  -0.281  1.00  0.00     0.118 C 
BRANCH   9  10
HETATM   10  C   UNL     1      -1.071   5.032  -0.084  1.00  0.00     0.178 C 
BRANCH  10  11
HETATM   11  O   UNL     1      -1.352   5.245   1.298  1.00  0.00    -0.400 OA
HETATM   12  H   UNL     1      -1.631   4.378   1.651  1.00  0.00     0.209 HD
ENDBRANCH  10  11
ENDBRANCH   9  10
ENDBRANCH   7   9
ENDBRANCH   5   7
BRANCH   4  13
HETATM   13  N   UNL     1      -2.877   0.165  -0.209  1.00  0.00    -0.114 N 
HETATM   14  O   UNL     1      -3.503  -0.904  -0.284  1.00  0.00    -0.532 OA
HETATM   15  O   UNL     1      -3.419   1.283  -0.253  1.00  0.00    -0.532 OA
ENDBRANCH   4  13
TORSDOF 5
