REMARK  16 active torsions:
REMARK  status: ('A' for Active; 'I' for Inactive)
REMARK    1  A    between atoms: CB_2  and  CA_4 
REMARK    2  A    between atoms: CA_4  and  C_5 
REMARK    3  A    between atoms: CA_4  and  N_7 
REMARK       I    between atoms: C_5  and  N_9 
REMARK       I    between atoms: N_7  and  C_43 
REMARK    4  A    between atoms: N_9  and  CA_10 
REMARK    5  A    between atoms: CA_10  and  C_12 
REMARK       I    between atoms: C_12  and  N_15 
REMARK    6  A    between atoms: CA_19  and  C_20 
REMARK       I    between atoms: C_20  and  N_22 
REMARK    7  A    between atoms: N_22  and  CA_23 
REMARK    8  A    between atoms: CA_23  and  CB_24 
REMARK    9  A    between atoms: CA_23  and  C_31 
REMARK   10  A    between atoms: CB_24  and  CG_25 
REMARK       I    between atoms: C_31  and  N_34 
REMARK   11  A    between atoms: CA_38  and  C_39 
REMARK   12  A    between atoms: C_39  and  OXT_41 
REMARK   13  A    between atoms: C_43  and  CA_45 
REMARK   14  A    between atoms: CA_45  and  CB_46 
REMARK   15  A    between atoms: CA_45  and  N_53 
REMARK   16  A    between atoms: CB_46  and  CG_47 
ROOT
ATOM      1  C   ALA A   3      -0.804  -0.153   4.186  1.00  0.00     0.243 C 
ATOM      2  O   ALA A   3       0.344   0.297   4.265  1.00  0.00    -0.271 OA
ATOM      3  N   PRO A   4      -1.662  -0.149   5.273  1.00  0.00    -0.337 N 
ATOM      4  CD  PRO A   4      -1.346   0.524   6.522  1.00  0.00     0.127 C 
ATOM      5  CG  PRO A   4      -1.687  -0.537   7.551  1.00  0.00     0.022 C 
ATOM      6  CB  PRO A   4      -2.913  -1.243   6.964  1.00  0.00     0.037 C 
ATOM      7  CA  PRO A   4      -2.921  -0.867   5.459  1.00  0.00     0.179 C 
ENDROOT
BRANCH   1   8
ATOM      8  CA  ALA A   3      -1.355  -0.631   2.799  1.00  0.00     0.172 C 
ATOM      9  CB  ALA A   3      -0.600  -1.827   2.239  1.00  0.00     0.042 C 
BRANCH   8  10
ATOM     10  N   ALA A   3      -1.277   0.470   1.825  1.00  0.00    -0.346 N 
ATOM     11  C   VAL A   2      -1.789   1.709   2.145  1.00  0.00     0.241 C 
ATOM     12  O   VAL A   2      -2.359   1.868   3.218  1.00  0.00    -0.271 OA
ATOM     13  H   ALA A   3      -0.951   0.287   0.886  1.00  0.00     0.163 HD
BRANCH  11  14
ATOM     14  CA  VAL A   2      -1.789   2.766   1.020  1.00  0.00     0.180 C 
BRANCH  14  15
ATOM     15  CB  VAL A   2      -1.669   4.204   1.656  1.00  0.00     0.009 C 
ATOM     16  CG1 VAL A   2      -0.480   4.295   2.650  1.00  0.00     0.012 C 
ATOM     17  CG2 VAL A   2      -1.402   5.359   0.671  1.00  0.00     0.012 C 
ENDBRANCH  14  15
BRANCH  14  18
ATOM     18  N   VAL A   2      -3.062   2.314   0.343  1.00  0.00    -0.346 N 
ATOM     19  C   PHE A   1      -4.116   3.100  -0.009  1.00  0.00     0.240 C 
ATOM     20  O   PHE A   1      -3.847   4.254  -0.392  1.00  0.00    -0.271 OA
ATOM     21  H   VAL A   2      -2.985   1.432  -0.143  1.00  0.00     0.163 HD
BRANCH  19  22
ATOM     22  CA  PHE A   1      -5.779   2.473  -0.239  1.00  0.00     0.171 C 
BRANCH  22  23
ATOM     23  CB  PHE A   1      -5.347   1.181  -1.423  1.00  0.00     0.072 C 
BRANCH  23  24
ATOM     24  CG  PHE A   1      -6.233   0.805  -2.658  1.00  0.00    -0.056 A 
ATOM     25  CD1 PHE A   1      -6.510   1.756  -3.661  1.00  0.00     0.007 A 
ATOM     26  CE1 PHE A   1      -7.762   1.751  -4.297  1.00  0.00     0.001 A 
ATOM     27  CZ  PHE A   1      -8.742   0.831  -3.920  1.00  0.00     0.000 A 
ATOM     28  CE2 PHE A   1      -8.438  -0.169  -2.998  1.00  0.00     0.001 A 
ATOM     29  CD2 PHE A   1      -7.149  -0.262  -2.457  1.00  0.00     0.007 A 
ENDBRANCH  23  24
ENDBRANCH  22  23
BRANCH  22  30
ATOM     30  N   PHE A   1      -7.512   3.224   0.650  1.00  0.00    -0.418 N 
ATOM     31  H1  PHE A   1      -7.448   3.308   1.654  1.00  0.00     0.150 HD
ATOM     32  H2  PHE A   1      -8.433   3.499   0.259  1.00  0.00     0.150 HD
ENDBRANCH  22  30
ENDBRANCH  19  22
ENDBRANCH  14  18
ENDBRANCH  11  14
ENDBRANCH   8  10
ENDBRANCH   1   8
BRANCH   7  33
ATOM     33  C   PRO A   4      -4.123   0.073   5.211  1.00  0.00     0.241 C 
ATOM     34  O   PRO A   4      -4.630   0.722   6.123  1.00  0.00    -0.271 OA
ATOM     35  N   PHE A   5      -4.559   0.146   3.910  1.00  0.00    -0.346 N 
ATOM     36  H   PHE A   5      -3.800   0.262   3.255  1.00  0.00     0.163 HD
BRANCH  35  37
ATOM     37  CA  PHE A   5      -5.756   0.892   3.517  1.00  0.00     0.181 C 
BRANCH  37  38
ATOM     38  CB  PHE A   5      -6.877   1.005   4.567  1.00  0.00     0.073 C 
BRANCH  38  39
ATOM     39  CG  PHE A   5      -7.286  -0.278   5.273  1.00  0.00    -0.056 A 
ATOM     40  CD1 PHE A   5      -7.492  -0.256   6.663  1.00  0.00     0.007 A 
ATOM     41  CE1 PHE A   5      -7.892  -1.403   7.349  1.00  0.00     0.001 A 
ATOM     42  CZ  PHE A   5      -8.102  -2.589   6.652  1.00  0.00     0.000 A 
ATOM     43  CE2 PHE A   5      -7.874  -2.635   5.278  1.00  0.00     0.001 A 
ATOM     44  CD2 PHE A   5      -7.467  -1.488   4.592  1.00  0.00     0.007 A 
ENDBRANCH  38  39
ENDBRANCH  37  38
BRANCH  37  45
ATOM     45  C   PHE A   5      -5.485   2.306   2.923  1.00  0.00     0.243 C 
ATOM     46  O   PHE A   5      -4.692   3.125   3.407  1.00  0.00    -0.271 OA
ATOM     47  N   PRO A   6      -6.160   2.650   1.793  1.00  0.00    -0.336 N 
ATOM     48  CD  PRO A   6      -7.400   1.409   1.021  1.00  0.00     0.127 C 
ATOM     49  CA  PRO A   6      -6.047   4.325   0.773  1.00  0.00     0.185 C 
ATOM     50  CG  PRO A   6      -7.865   2.112  -0.793  1.00  0.00     0.022 C 
ATOM     51  CB  PRO A   6      -7.058   3.991  -1.001  1.00  0.00     0.038 C 
BRANCH  49  52
ATOM     52  C   PRO A   6      -6.570   5.705   1.195  1.00  0.00     0.163 C 
ATOM     53  O   PRO A   6      -7.672   5.977   1.651  1.00  0.00    -0.648 OA
BRANCH  52  54
ATOM     54  OXT PRO A   6      -5.625   6.660   0.924  1.00  0.00    -0.775 OA
ATOM     55  HXT PRO A   6      -4.780   6.266   0.599  1.00  0.00     0.167 HD
ENDBRANCH  52  54
ENDBRANCH  49  52
ENDBRANCH  37  45
ENDBRANCH  35  37
ENDBRANCH   7  33
TORSDOF 16
