REMARK  24 active torsions:
REMARK  status: ('A' for Active; 'I' for Inactive)
REMARK    1  A    between atoms: CG1_2  and  CB_3 
REMARK    2  A    between atoms: CB_3  and  CA_5 
REMARK    3  A    between atoms: CA_5  and  C_6 
REMARK    4  A    between atoms: CA_5  and  N_8 
REMARK       I    between atoms: C_6  and  N_11 
REMARK    5  A    between atoms: N_11  and  CA_12 
REMARK    6  A    between atoms: CA_12  and  CB_13 
REMARK    7  A    between atoms: CA_12  and  C_18 
REMARK    8  A    between atoms: CB_13  and  CG_14 
REMARK    9  A    between atoms: CG_14  and  CD_15 
REMARK       I    between atoms: CD_15  and  NE2_17 
REMARK       I    between atoms: C_18  and  N_23 
REMARK   10  A    between atoms: N_23  and  CA_24 
REMARK   11  A    between atoms: CA_24  and  C_26 
REMARK       I    between atoms: C_26  and  N_29 
REMARK   12  A    between atoms: N_29  and  CA_30 
REMARK   13  A    between atoms: CA_30  and  CB_31 
REMARK   14  A    between atoms: CA_30  and  C_33 
REMARK   15  A    between atoms: CB_31  and  SG_32 
REMARK       I    between atoms: C_33  and  N_37 
REMARK   16  A    between atoms: N_37  and  CA_38 
REMARK   17  A    between atoms: CA_38  and  CB_39 
REMARK   18  A    between atoms: CA_38  and  C_47 
REMARK   19  A    between atoms: CB_39  and  CG_40 
REMARK   20  A    between atoms: CG_40  and  CD_41 
REMARK   21  A    between atoms: CD_41  and  NE_42 
REMARK       I    between atoms: CZ_44  and  NH1_45 
REMARK       I    between atoms: CZ_44  and  NH2_46 
REMARK       I    between atoms: C_47  and  N_54 
REMARK   22  A    between atoms: N_54  and  CA_55 
REMARK   23  A    between atoms: CA_55  and  C_56 
REMARK   24  A    between atoms: C_56  and  OXT_58 
ROOT
ATOM      1  C   ALA A   3       5.015   3.631   6.690  1.00  0.00     0.240 C 
ATOM      2  O   ALA A   3       5.332   4.719   7.173  1.00  0.00    -0.271 OA
ATOM      3  N   CYS A   4       5.131   2.442   7.412  1.00  0.00    -0.345 N 
ATOM      4  H   CYS A   4       4.618   1.640   7.058  1.00  0.00     0.163 HD
ENDROOT
BRANCH   3   5
ATOM      5  CA  CYS A   4       5.652   2.450   8.805  1.00  0.00     0.185 C 
BRANCH   5   6
ATOM      6  CB  CYS A   4       4.804   3.350   9.759  1.00  0.00     0.105 C 
BRANCH   6   7
ATOM      7  SG  CYS A   4       3.079   2.781   9.975  1.00  0.00    -0.180 SA
ATOM      8  HG  CYS A   4       2.943   2.208   8.772  1.00  0.00     0.101 HD
ENDBRANCH   6   7
ENDBRANCH   5   6
BRANCH   5   9
ATOM      9  C   CYS A   4       5.996   1.095   9.567  1.00  0.00     0.241 C 
ATOM     10  O   CYS A   4       6.154   1.111  10.791  1.00  0.00    -0.271 OA
ATOM     11  N   ARG A   5       6.265  -0.053   8.842  1.00  0.00    -0.346 N 
ATOM     12  H   ARG A   5       6.222   0.031   7.836  1.00  0.00     0.163 HD
BRANCH  11  13
ATOM     13  CA  ARG A   5       6.480  -1.465   9.443  1.00  0.00     0.176 C 
BRANCH  13  14
ATOM     14  CB  ARG A   5       5.591  -1.664  10.707  1.00  0.00     0.036 C 
BRANCH  14  15
ATOM     15  CG  ARG A   5       5.542  -3.112  11.188  1.00  0.00     0.022 C 
BRANCH  15  16
ATOM     16  CD  ARG A   5       6.939  -3.617  11.462  1.00  0.00     0.121 C 
BRANCH  16  17
ATOM     17  NE  ARG A   5       6.842  -5.040  11.720  1.00  0.00    -0.372 N 
ATOM     18  CZ  ARG A   5       7.922  -5.730  11.544  1.00  0.00     0.121 C 
ATOM     19  NH1 ARG A   5       9.171  -5.305  11.227  1.00  0.00    -0.279 NA
ATOM     20  NH2 ARG A   5       7.879  -7.046  11.772  1.00  0.00    -0.279 NA
ATOM     21 HH11 ARG A   5       9.333  -4.303  11.412  1.00  0.00     0.126 HD
ATOM     22 HH12 ARG A   5       9.875  -5.832  11.705  1.00  0.00     0.126 HD
ATOM     23 HH21 ARG A   5       6.927  -7.375  11.821  1.00  0.00     0.126 HD
ATOM     24 HH22 ARG A   5       8.446  -7.584  11.136  1.00  0.00     0.126 HD
ATOM     25  HE  ARG A   5       5.970  -5.474  12.024  1.00  0.00     0.161 HD
ENDBRANCH  16  17
ENDBRANCH  15  16
ENDBRANCH  14  15
ENDBRANCH  13  14
BRANCH  13  26
ATOM     26  C   ARG A   5       5.877  -2.502   8.470  1.00  0.00     0.240 C 
ATOM     27  O   ARG A   5       4.782  -2.061   8.127  1.00  0.00    -0.271 OA
ATOM     28  N   GLY A   6       6.497  -3.686   7.965  1.00  0.00    -0.349 N 
ATOM     29  H   GLY A   6       7.178  -4.055   8.614  1.00  0.00     0.163 HD
BRANCH  28  30
ATOM     30  CA  GLY A   6       6.097  -4.897   6.909  1.00  0.00     0.232 C 
BRANCH  30  31
ATOM     31  C   GLY A   6       6.101  -4.965   5.299  1.00  0.00     0.158 C 
ATOM     32  O   GLY A   6       6.926  -4.428   4.577  1.00  0.00    -0.649 OA
BRANCH  31  33
ATOM     33  OXT GLY A   6       5.101  -5.723   4.744  1.00  0.00    -0.775 OA
ATOM     34  HXT GLY A   6       4.359  -6.042   5.297  1.00  0.00     0.167 HD
ENDBRANCH  31  33
ENDBRANCH  30  31
ENDBRANCH  28  30
ENDBRANCH  13  26
ENDBRANCH  11  13
ENDBRANCH   5   9
ENDBRANCH   3   5
BRANCH   1  35
ATOM     35  CA  ALA A   3       4.379   3.580   5.273  1.00  0.00     0.172 C 
ATOM     36  CB  ALA A   3       2.880   3.885   5.283  1.00  0.00     0.042 C 
BRANCH  35  37
ATOM     37  N   ALA A   3       4.706   2.373   4.525  1.00  0.00    -0.346 N 
ATOM     38  C   GLN A   2       3.909   1.251   4.519  1.00  0.00     0.241 C 
ATOM     39  O   GLN A   2       2.945   1.137   5.272  1.00  0.00    -0.271 OA
ATOM     40  H   ALA A   3       5.547   2.389   3.956  1.00  0.00     0.163 HD
BRANCH  38  41
ATOM     41  CA  GLN A   2       4.442   0.124   3.639  1.00  0.00     0.177 C 
BRANCH  41  42
ATOM     42  N   GLN A   2       4.555  -0.953   4.558  1.00  0.00    -0.346 N 
ATOM     43  C   ILE A   1       3.528  -1.779   4.982  1.00  0.00     0.251 C 
ATOM     44  O   ILE A   1       2.397  -1.854   4.595  1.00  0.00    -0.271 OA
ATOM     45  H   GLN A   2       5.492  -1.260   4.807  1.00  0.00     0.163 HD
BRANCH  43  46
ATOM     46  CA  ILE A   1       4.141  -2.831   5.943  1.00  0.00     0.312 C 
BRANCH  46  47
ATOM     47  CB  ILE A   1       2.964  -3.308   7.098  1.00  0.00     0.023 C 
ATOM     48  CG2 ILE A   1       2.063  -2.144   7.580  1.00  0.00     0.012 C 
BRANCH  47  49
ATOM     49  CG1 ILE A   1       3.247  -4.149   8.425  1.00  0.00     0.002 C 
ATOM     50  CD1 ILE A   1       2.072  -4.833   9.123  1.00  0.00     0.005 C 
ENDBRANCH  47  49
ENDBRANCH  46  47
BRANCH  46  51
ATOM     51  N   ILE A   1       5.587  -2.286   5.980  1.00  0.00     0.092 N 
ATOM     52  H1  ILE A   1       5.501  -1.478   6.609  1.00  0.00     0.313 HD
ATOM     53  H2  ILE A   1       6.296  -2.872   6.400  1.00  0.00     0.313 HD
ENDBRANCH  46  51
ENDBRANCH  43  46
ENDBRANCH  41  42
BRANCH  41  54
ATOM     54  CB  GLN A   2       3.632  -0.418   2.494  1.00  0.00     0.044 C 
BRANCH  54  55
ATOM     55  CG  GLN A   2       3.539   0.547   1.359  1.00  0.00     0.105 C 
BRANCH  55  56
ATOM     56  CD  GLN A   2       4.922   0.791   0.828  1.00  0.00     0.215 C 
ATOM     57  OE1 GLN A   2       5.652   1.673   1.261  1.00  0.00    -0.274 OA
ATOM     58  NE2 GLN A   2       5.347  -0.127  -0.083  1.00  0.00    -0.370 N 
ATOM     59 1HE2 GLN A   2       4.858  -1.003  -0.225  1.00  0.00     0.159 HD
ATOM     60 2HE2 GLN A   2       6.308  -0.068  -0.390  1.00  0.00     0.159 HD
ENDBRANCH  55  56
ENDBRANCH  54  55
ENDBRANCH  41  54
ENDBRANCH  38  41
ENDBRANCH  35  37
ENDBRANCH   1  35
TORSDOF 24
