REMARK  7 active torsions:
REMARK  status: ('A' for Active; 'I' for Inactive)
REMARK    1  A    between atoms: C_2  and  C_3 
REMARK    2  A    between atoms: C_3  and  C_4 
REMARK    3  A    between atoms: C_4  and  C_5 
REMARK    4  A    between atoms: C_5  and  C_6 
REMARK    5  A    between atoms: C_6  and  C_7 
REMARK    6  A    between atoms: C_8  and  O_14 
REMARK    7  A    between atoms: C_10  and  O_13 
ROOT
HETATM    1  C   UNL     1       7.102   3.111  -2.918  1.00  0.00    -0.025 A 
HETATM    2  C   UNL     1       7.306   4.469  -2.638  1.00  0.00     0.074 A 
HETATM    3  C   UNL     1       7.828   5.334  -3.601  1.00  0.00     0.073 A 
HETATM    4  C   UNL     1       8.135   4.844  -4.865  1.00  0.00     0.068 A 
HETATM    5  C   UNL     1       7.917   3.510  -5.179  1.00  0.00     0.037 A 
HETATM    6  C   UNL     1       7.400   2.648  -4.211  1.00  0.00     0.012 A 
ENDROOT
BRANCH   1   7
HETATM    7  C   UNL     1       6.568   2.124  -1.908  1.00  0.00     0.041 C 
BRANCH   7   8
HETATM    8  C   UNL     1       5.041   2.072  -1.917  1.00  0.00     0.005 C 
BRANCH   8   9
HETATM    9  C   UNL     1       4.516   1.048  -0.910  1.00  0.00     0.000 C 
BRANCH   9  10
HETATM   10  C   UNL     1       2.988   1.002  -0.925  1.00  0.00    -0.000 C 
BRANCH  10  11
HETATM   11  C   UNL     1       2.447  -0.016   0.077  1.00  0.00    -0.005 C 
HETATM   12  C   UNL     1       0.927  -0.052   0.055  1.00  0.00     0.005 C 
ENDBRANCH  10  11
ENDBRANCH   9  10
ENDBRANCH   8   9
ENDBRANCH   7   8
ENDBRANCH   1   7
BRANCH   2  13
HETATM   13  O   UNL     1       7.015   5.037  -1.430  1.00  0.00    -0.360 OA
HETATM   14  H   UNL     1       6.542   4.396  -0.878  1.00  0.00     0.217 HD
ENDBRANCH   2  13
BRANCH   4  15
HETATM   15  O   UNL     1       8.654   5.651  -5.834  1.00  0.00    -0.361 OA
HETATM   16  H   UNL     1       8.773   6.539  -5.460  1.00  0.00     0.217 HD
ENDBRANCH   4  15
TORSDOF 7
