REMARK  16 active torsions:
REMARK  status: ('A' for Active; 'I' for Inactive)
REMARK    1  A    between atoms: C_2  and  C_3 
REMARK    2  A    between atoms: C_3  and  C_4 
REMARK    3  A    between atoms: C_4  and  C_5 
REMARK    4  A    between atoms: C_5  and  C_6 
REMARK    5  A    between atoms: C_6  and  C_7 
REMARK    6  A    between atoms: C_7  and  C_8 
REMARK    7  A    between atoms: C_8  and  C_9 
REMARK    8  A    between atoms: C_9  and  C_10 
REMARK    9  A    between atoms: C_10  and  C_11 
REMARK   10  A    between atoms: C_11  and  C_12 
REMARK   11  A    between atoms: C_12  and  O_14 
REMARK   12  A    between atoms: O_14  and  C_15 
REMARK   13  A    between atoms: C_15  and  C_16 
REMARK   14  A    between atoms: C_16  and  C_17 
REMARK   15  A    between atoms: C_17  and  C_18 
REMARK   16  A    between atoms: C_18  and  C_19 
ROOT
HETATM    1  C   UNL     1      10.539   4.225  -3.903  1.00  0.00     0.010 C 
ENDROOT
BRANCH   1   2
HETATM    2  C   UNL     1       9.019   4.215  -3.892  1.00  0.00     0.000 C 
BRANCH   2   3
HETATM    3  C   UNL     1       8.505   3.161  -2.920  1.00  0.00     0.000 C 
BRANCH   3   4
HETATM    4  C   UNL     1       6.986   3.151  -2.913  1.00  0.00     0.000 C 
BRANCH   4   5
HETATM    5  C   UNL     1       6.474   2.102  -1.942  1.00  0.00     0.000 C 
BRANCH   5   6
HETATM    6  C   UNL     1       4.955   2.094  -1.940  1.00  0.00     0.000 C 
BRANCH   6   7
HETATM    7  C   UNL     1       4.444   1.046  -0.968  1.00  0.00     0.000 C 
BRANCH   7   8
HETATM    8  C   UNL     1       2.926   1.036  -0.967  1.00  0.00    -0.000 C 
BRANCH   8   9
HETATM    9  C   UNL     1       2.406  -0.011   0.007  1.00  0.00    -0.005 C 
HETATM   10  C   UNL     1       0.891  -0.017   0.007  1.00  0.00     0.005 C 
ENDBRANCH   8   9
ENDBRANCH   7   8
ENDBRANCH   6   7
ENDBRANCH   5   6
ENDBRANCH   4   5
ENDBRANCH   3   4
ENDBRANCH   2   3
ENDBRANCH   1   2
BRANCH   1  11
HETATM   11  C   UNL     1      11.099   5.266  -4.874  1.00  0.00     0.111 C 
BRANCH  11  12
HETATM   12  C   UNL     1      12.614   5.242  -4.854  1.00  0.00     0.258 C 
HETATM   13  O   UNL     1      13.291   4.511  -4.127  1.00  0.00    -0.265 OA
BRANCH  12  14
HETATM   14  O   UNL     1      13.133   6.200  -5.670  1.00  0.00    -0.321 OA
BRANCH  14  15
HETATM   15  C   UNL     1      14.039   7.106  -5.016  1.00  0.00     0.178 C 
BRANCH  15  16
HETATM   16  C   UNL     1      15.454   7.025  -5.571  1.00  0.00     0.027 C 
BRANCH  16  17
HETATM   17  C   UNL     1      16.370   8.045  -4.890  1.00  0.00     0.002 C 
BRANCH  17  18
HETATM   18  C   UNL     1      17.790   7.951  -5.438  1.00  0.00    -0.000 C 
BRANCH  18  19
HETATM   19  C   UNL     1      18.703   8.965  -4.759  1.00  0.00    -0.005 C 
HETATM   20  C   UNL     1      20.111   8.861  -5.312  1.00  0.00     0.005 C 
ENDBRANCH  18  19
ENDBRANCH  17  18
ENDBRANCH  16  17
ENDBRANCH  15  16
ENDBRANCH  14  15
ENDBRANCH  12  14
ENDBRANCH  11  12
ENDBRANCH   1  11
TORSDOF 16
