REMARK  4 active torsions:
REMARK  status: ('A' for Active; 'I' for Inactive)
REMARK    1  A    between atoms: C_2  and  C_3 
REMARK    2  A    between atoms: C_2  and  O_8 
REMARK    3  A    between atoms: C_3  and  C_4 
REMARK    4  A    between atoms: C_4  and  O_7 
ROOT
HETATM    1  C   UNL     1       2.946  -1.412  -0.427  1.00  0.00     0.068 C 
ENDROOT
BRANCH   1   2
HETATM    2  C   UNL     1       2.547   0.026  -0.052  1.00  0.00     0.117 C 
HETATM    3  C   UNL     1       2.986   1.039  -1.102  1.00  0.00     0.039 C 
BRANCH   2   4
HETATM    4  O   UNL     1       3.136   0.379   1.201  1.00  0.00    -0.396 OA
HETATM    5  H   UNL     1       4.102   0.369   1.082  1.00  0.00     0.210 HD
ENDBRANCH   2   4
ENDBRANCH   1   2
BRANCH   1   6
HETATM    6  C   UNL     1       2.532  -2.488   0.606  1.00  0.00     0.053 C 
HETATM    7  C   UNL     1       1.013  -2.593   0.762  1.00  0.00     0.045 C 
HETATM    8  C   UNL     1       3.097  -3.855   0.207  1.00  0.00     0.045 C 
BRANCH   6   9
HETATM    9  O   UNL     1       3.095  -2.179   1.886  1.00  0.00    -0.391 OA
HETATM   10  H   UNL     1       2.845  -1.254   2.093  1.00  0.00     0.210 HD
ENDBRANCH   6   9
ENDBRANCH   1   6
TORSDOF 4
