REMARK  5 active torsions:
REMARK  status: ('A' for Active; 'I' for Inactive)
REMARK    1  A    between atoms: CG_2  and  CB_7 
REMARK    2  A    between atoms: CB_7  and  CA_8 
REMARK    3  A    between atoms: CA_8  and  C_9 
REMARK    4  A    between atoms: CA_8  and  N_12 
REMARK    5  A    between atoms: C_9  and  OXT_11 
ROOT
ATOM      1  CB  HIS A   1       1.964  -1.683  -0.041  1.00  0.00     0.105 C 
ENDROOT
BRANCH   1   2
ATOM      2  CG  HIS A   1       0.801  -0.771   0.159  1.00  0.00     0.028 A 
ATOM      3  CD2 HIS A   1       0.160  -0.321   1.293  1.00  0.00     0.114 A 
ATOM      4  NE2 HIS A   1      -0.902   0.478   0.964  1.00  0.00    -0.360 N 
ATOM      5  CE1 HIS A   1      -0.886   0.564  -0.345  1.00  0.00     0.180 A 
ATOM      6  HE2 HIS A   1      -1.566   0.915   1.603  1.00  0.00     0.166 HD
ATOM      7  ND1 HIS A   1       0.136  -0.165  -0.881  1.00  0.00    -0.355 N 
ATOM      8  HD1 HIS A   1       0.343  -0.255  -1.869  1.00  0.00     0.166 HD
ENDBRANCH   1   2
BRANCH   1   9
ATOM      9  CA  HIS A   1       1.558  -3.165  -0.099  1.00  0.00     0.320 C 
BRANCH   9  10
ATOM     10  C   HIS A   1       0.630  -3.419  -1.299  1.00  0.00     0.174 C 
ATOM     11  O   HIS A   1       1.033  -3.671  -2.429  1.00  0.00    -0.648 OA
BRANCH  10  12
ATOM     12  OXT HIS A   1      -0.688  -3.316  -1.015  1.00  0.00    -0.775 OA
ATOM     13  HXT HIS A   1      -0.885  -3.055  -0.092  1.00  0.00     0.167 HD
ENDBRANCH  10  12
ENDBRANCH   9  10
BRANCH   9  14
ATOM     14  N   HIS A   1       2.770  -4.010  -0.235  1.00  0.00     0.093 N 
ATOM     15  H1  HIS A   1       3.176  -3.825  -1.159  1.00  0.00     0.314 HD
ATOM     16  H2  HIS A   1       2.483  -4.989  -0.292  1.00  0.00     0.314 HD
ENDBRANCH   9  14
ENDBRANCH   1   9
TORSDOF 5
