REMARK  27 active torsions:
REMARK  status: ('A' for Active; 'I' for Inactive)
REMARK    1  A    between atoms: C_2  and  C_3 
REMARK    2  A    between atoms: C_3  and  O_4 
REMARK    3  A    between atoms: C_3  and  O_5 
REMARK    4  A    between atoms: O_5  and  C_6 
REMARK    5  A    between atoms: C_7  and  O_70 
REMARK    6  A    between atoms: C_10  and  C_68 
REMARK    7  A    between atoms: C_14  and  O_67 
REMARK    8  A    between atoms: C_15  and  O_66 
REMARK    9  A    between atoms: C_17  and  C_19 
REMARK   10  A    between atoms: C_19  and  O_20 
REMARK   11  A    between atoms: C_23  and  O_65 
REMARK   12  A    between atoms: C_24  and  O_64 
REMARK   13  A    between atoms: C_26  and  C_28 
REMARK   14  A    between atoms: C_28  and  O_29 
REMARK   15  A    between atoms: C_32  and  O_63 
REMARK   16  A    between atoms: C_33  and  O_62 
REMARK   17  A    between atoms: C_35  and  C_37 
REMARK   18  A    between atoms: C_37  and  O_38 
REMARK   19  A    between atoms: C_41  and  O_61 
REMARK   20  A    between atoms: C_42  and  O_60 
REMARK   21  A    between atoms: C_44  and  C_46 
REMARK   22  A    between atoms: C_46  and  O_47 
REMARK   23  A    between atoms: C_50  and  O_59 
REMARK   24  A    between atoms: C_51  and  O_58 
REMARK   25  A    between atoms: C_54  and  C_56 
REMARK   26  A    between atoms: C_56  and  O_57 
REMARK   27  A    between atoms: C_68  and  O_69 
ROOT
HETATM    1  C   UNL     1       4.452  -3.830   0.169  1.00  0.00     0.189 C 
HETATM    2  C   UNL     1       5.393  -2.632   0.075  1.00  0.00     0.205 C 
HETATM    3  C   UNL     1       4.362  -1.988  -0.636  1.00  0.00     0.292 C 
HETATM    4  O   UNL     1       4.441  -3.056  -1.983  1.00  0.00    -0.348 OA
HETATM    5  C   UNL     1       4.480  -4.672  -1.773  1.00  0.00     0.180 C 
HETATM    6  C   UNL     1       5.113  -4.990  -0.421  1.00  0.00     0.187 C 
HETATM    7  O   UNL     1       4.792  -6.067   0.462  1.00  0.00    -0.348 OA
HETATM    8  C   UNL     1       5.401  -6.099   1.817  1.00  0.00     0.292 C 
HETATM    9  C   UNL     1       5.129  -5.085   2.951  1.00  0.00     0.204 C 
HETATM   10  C   UNL     1       5.995  -3.837   3.080  1.00  0.00     0.183 C 
HETATM   11  C   UNL     1       7.430  -3.909   2.619  1.00  0.00     0.187 C 
HETATM   12  C   UNL     1       7.707  -5.255   1.787  1.00  0.00     0.180 C 
HETATM   13  O   UNL     1       6.781  -6.355   1.876  1.00  0.00    -0.348 OA
HETATM   14  O   UNL     1       8.314  -3.295   3.571  1.00  0.00    -0.348 OA
HETATM   15  C   UNL     1       8.361  -1.825   3.799  1.00  0.00     0.292 C 
HETATM   16  C   UNL     1       7.207  -0.878   4.298  1.00  0.00     0.204 C 
HETATM   17  C   UNL     1       6.313  -0.277   3.186  1.00  0.00     0.183 C 
HETATM   18  C   UNL     1       7.023   0.212   1.886  1.00  0.00     0.187 C 
HETATM   19  C   UNL     1       8.288  -0.681   1.644  1.00  0.00     0.180 C 
HETATM   20  O   UNL     1       9.053  -1.102   2.773  1.00  0.00    -0.348 OA
HETATM   21  O   UNL     1       7.239   1.628   1.799  1.00  0.00    -0.348 OA
HETATM   22  C   UNL     1       6.295   2.517   1.100  1.00  0.00     0.292 C 
HETATM   23  C   UNL     1       4.950   2.818   1.751  1.00  0.00     0.204 C 
HETATM   24  C   UNL     1       3.904   1.758   1.425  1.00  0.00     0.183 C 
HETATM   25  C   UNL     1       3.610   1.463  -0.083  1.00  0.00     0.187 C 
HETATM   26  C   UNL     1       5.053   1.516  -0.815  1.00  0.00     0.180 C 
HETATM   27  O   UNL     1       6.092   2.386  -0.312  1.00  0.00    -0.348 OA
HETATM   28  O   UNL     1       2.490   2.052  -0.798  1.00  0.00    -0.348 OA
HETATM   29  C   UNL     1       1.037   1.715  -0.640  1.00  0.00     0.292 C 
HETATM   30  C   UNL     1       0.417   1.981   0.730  1.00  0.00     0.204 C 
HETATM   31  C   UNL     1       0.520   0.766   1.597  1.00  0.00     0.183 C 
HETATM   32  C   UNL     1       0.086  -0.559   1.038  1.00  0.00     0.187 C 
HETATM   33  C   UNL     1      -0.045  -0.578  -0.494  1.00  0.00     0.180 C 
HETATM   34  O   UNL     1       0.419   0.558  -1.291  1.00  0.00    -0.348 OA
HETATM   35  O   UNL     1      -0.743  -1.322   1.916  1.00  0.00    -0.348 OA
HETATM   36  C   UNL     1       0.012  -2.213   2.772  1.00  0.00     0.292 C 
HETATM   37  C   UNL     1       1.059  -1.526   3.736  1.00  0.00     0.204 C 
HETATM   38  C   UNL     1       2.496  -1.387   3.165  1.00  0.00     0.183 C 
HETATM   39  C   UNL     1       2.900  -2.352   1.987  1.00  0.00     0.187 C 
HETATM   40  O   UNL     1       3.152  -1.648   0.519  1.00  0.00    -0.348 OA
HETATM   41  C   UNL     1       1.894  -3.636   2.159  1.00  0.00     0.180 C 
HETATM   42  O   UNL     1       0.547  -3.221   1.914  1.00  0.00    -0.348 OA
ENDROOT
BRANCH   1  43
HETATM   43  O   UNL     1       2.937  -3.760  -0.286  1.00  0.00    -0.351 OA
BRANCH  43  44
HETATM   44  C   UNL     1       2.130  -3.159  -1.425  1.00  0.00     0.257 C 
BRANCH  44  45
HETATM   45  C   UNL     1       2.283  -1.798  -2.360  1.00  0.00     0.056 C 
HETATM   46  C   UNL     1       2.808  -1.748  -3.807  1.00  0.00     0.010 C 
ENDBRANCH  44  45
BRANCH  44  47
HETATM   47  O   UNL     1       1.464  -4.157  -2.185  1.00  0.00    -0.371 OA
HETATM   48  H   UNL     1       1.849  -4.128  -3.069  1.00  0.00     0.212 HD
ENDBRANCH  44  47
ENDBRANCH  43  44
ENDBRANCH   1  43
BRANCH   2  49
HETATM   49  O   UNL     1       6.596  -2.749  -0.698  1.00  0.00    -0.388 OA
HETATM   50  H   UNL     1       6.334  -2.839  -1.636  1.00  0.00     0.210 HD
ENDBRANCH   2  49
BRANCH   5  51
HETATM   51  C   UNL     1       4.978  -5.440  -2.981  1.00  0.00     0.198 C 
BRANCH  51  52
HETATM   52  O   UNL     1       6.382  -5.349  -3.082  1.00  0.00    -0.398 OA
HETATM   53  H   UNL     1       6.579  -4.969  -3.954  1.00  0.00     0.209 HD
ENDBRANCH  51  52
ENDBRANCH   5  51
BRANCH   9  54
HETATM   54  O   UNL     1       5.168  -5.711   4.249  1.00  0.00    -0.388 OA
HETATM   55  H   UNL     1       5.470  -5.017   4.880  1.00  0.00     0.210 HD
ENDBRANCH   9  54
BRANCH  38  56
HETATM   56  O   UNL     1       3.441  -1.629   4.257  1.00  0.00    -0.390 OA
HETATM   57  H   UNL     1       2.864  -1.577   5.074  1.00  0.00     0.210 HD
ENDBRANCH  38  56
BRANCH  41  58
HETATM   58  C   UNL     1       1.853  -4.535   3.466  1.00  0.00     0.198 C 
BRANCH  58  59
HETATM   59  O   UNL     1       1.212  -5.776   3.186  1.00  0.00    -0.398 OA
HETATM   60  H   UNL     1       1.890  -6.447   2.970  1.00  0.00     0.209 HD
ENDBRANCH  58  59
ENDBRANCH  41  58
BRANCH  10  61
HETATM   61  O   UNL     1       5.767  -3.267   4.370  1.00  0.00    -0.390 OA
HETATM   62  H   UNL     1       4.891  -2.813   4.376  1.00  0.00     0.210 HD
ENDBRANCH  10  61
BRANCH  12  63
HETATM   63  C   UNL     1       9.064  -5.934   1.897  1.00  0.00     0.198 C 
BRANCH  63  64
HETATM   64  O   UNL     1       8.986  -7.190   1.231  1.00  0.00    -0.398 OA
HETATM   65  H   UNL     1       8.060  -7.505   1.384  1.00  0.00     0.209 HD
ENDBRANCH  63  64
ENDBRANCH  12  63
BRANCH  37  66
HETATM   66  O   UNL     1       1.222  -2.143   5.045  1.00  0.00    -0.388 OA
HETATM   67  H   UNL     1       0.435  -2.679   5.256  1.00  0.00     0.210 HD
ENDBRANCH  37  66
BRANCH  16  68
HETATM   68  O   UNL     1       7.760   0.268   5.010  1.00  0.00    -0.388 OA
HETATM   69  H   UNL     1       7.854   1.011   4.381  1.00  0.00     0.210 HD
ENDBRANCH  16  68
BRANCH  31  70
HETATM   70  O   UNL     1      -0.062   1.072   2.863  1.00  0.00    -0.390 OA
HETATM   71  H   UNL     1       0.514   1.746   3.266  1.00  0.00     0.210 HD
ENDBRANCH  31  70
BRANCH  33  72
HETATM   72  C   UNL     1      -0.986  -1.650  -1.158  1.00  0.00     0.198 C 
BRANCH  72  73
HETATM   73  O   UNL     1      -2.228  -1.868  -0.529  1.00  0.00    -0.398 OA
HETATM   74  H   UNL     1      -2.226  -2.831  -0.268  1.00  0.00     0.209 HD
ENDBRANCH  72  73
ENDBRANCH  33  72
BRANCH  17  75
HETATM   75  O   UNL     1       5.446   0.732   3.737  1.00  0.00    -0.390 OA
HETATM   76  H   UNL     1       5.398   0.577   4.702  1.00  0.00     0.210 HD
ENDBRANCH  17  75
BRANCH  19  77
HETATM   77  C   UNL     1       9.290  -0.224   0.601  1.00  0.00     0.198 C 
BRANCH  77  78
HETATM   78  O   UNL     1       8.696  -0.291  -0.713  1.00  0.00    -0.398 OA
HETATM   79  H   UNL     1       8.594  -1.239  -0.919  1.00  0.00     0.209 HD
ENDBRANCH  77  78
ENDBRANCH  19  77
BRANCH  30  80
HETATM   80  O   UNL     1      -0.981   2.309   0.650  1.00  0.00    -0.388 OA
HETATM   81  H   UNL     1      -1.345   2.095   1.536  1.00  0.00     0.210 HD
ENDBRANCH  30  80
BRANCH  23  82
HETATM   82  O   UNL     1       4.417   4.082   1.300  1.00  0.00    -0.388 OA
HETATM   83  H   UNL     1       3.448   4.044   1.438  1.00  0.00     0.210 HD
ENDBRANCH  23  82
BRANCH  24  84
HETATM   84  O   UNL     1       2.795   2.098   2.253  1.00  0.00    -0.390 OA
HETATM   85  H   UNL     1       3.127   2.017   3.171  1.00  0.00     0.210 HD
ENDBRANCH  24  84
BRANCH  26  86
HETATM   86  C   UNL     1       4.978   1.697  -2.340  1.00  0.00     0.198 C 
BRANCH  86  87
HETATM   87  O   UNL     1       6.253   1.430  -2.940  1.00  0.00    -0.398 OA
HETATM   88  H   UNL     1       6.521   2.231  -3.426  1.00  0.00     0.209 HD
ENDBRANCH  86  87
ENDBRANCH  26  86
TORSDOF 27
