REMARK  9 active torsions:
REMARK  status: ('A' for Active; 'I' for Inactive)
REMARK    1  A    between atoms: C_3  and  C_10 
REMARK    2  A    between atoms: C_11  and  C_12 
REMARK    3  A    between atoms: C_13  and  C_14 
REMARK    4  A    between atoms: C_15  and  C_16 
REMARK    5  A    between atoms: C_17  and  C_18 
REMARK    6  A    between atoms: C_18  and  O_20 
REMARK    7  A    between atoms: O_20  and  C_21 
REMARK    8  A    between atoms: C_21  and  C_22 
REMARK    9  A    between atoms: C_22  and  C_24 
ROOT
HETATM    1  C   UNL     1      -1.155  -5.320   1.362  1.00  0.00     0.001 C 
HETATM    2  C   UNL     1      -1.546  -4.464   2.319  1.00  0.00     0.007 C 
ENDROOT
BRANCH   1   3
HETATM    3  C   UNL     1       0.214  -5.764   1.236  1.00  0.00     0.007 C 
HETATM    4  C   UNL     1       1.311  -4.991   1.094  1.00  0.00    -0.062 C 
HETATM    5  C   UNL     1       2.653  -5.663   1.010  1.00  0.00     0.048 C 
BRANCH   4   6
HETATM    6  C   UNL     1       1.310  -3.541   0.949  1.00  0.00     0.007 C 
HETATM    7  C   UNL     1       0.702  -2.968  -0.114  1.00  0.00     0.009 C 
BRANCH   7   8
HETATM    8  C   UNL     1       0.540  -1.580  -0.584  1.00  0.00    -0.048 C 
HETATM    9  C   UNL     1      -0.178  -1.415  -1.744  1.00  0.00    -0.077 C 
HETATM   10  C   UNL     1      -0.984  -2.464  -2.496  1.00  0.00     0.044 C 
HETATM   11  C   UNL     1      -0.255  -0.102  -2.487  1.00  0.00     0.034 C 
HETATM   12  C   UNL     1       0.837   0.852  -2.057  1.00  0.00     0.005 C 
HETATM   13  C   UNL     1       0.740   1.005  -0.550  1.00  0.00     0.014 C 
HETATM   14  C   UNL     1       1.114  -0.327   0.190  1.00  0.00    -0.020 C 
HETATM   15  C   UNL     1       0.519  -0.187   1.616  1.00  0.00     0.020 C 
HETATM   16  C   UNL     1       2.654  -0.303   0.362  1.00  0.00     0.020 C 
ENDBRANCH   7   8
ENDBRANCH   4   6
ENDBRANCH   1   3
BRANCH   2  17
HETATM   17  C   UNL     1      -2.882  -3.944   2.525  1.00  0.00    -0.056 C 
HETATM   18  C   UNL     1      -3.310  -3.439   3.704  1.00  0.00     0.089 C 
HETATM   19  C   UNL     1      -3.837  -3.932   1.338  1.00  0.00     0.048 C 
BRANCH  18  20
HETATM   20  C   UNL     1      -2.723  -3.276   5.070  1.00  0.00     0.283 C 
HETATM   21  O   UNL     1      -3.481  -3.167   6.029  1.00  0.00    -0.260 OA
BRANCH  20  22
HETATM   22  O   UNL     1      -1.365  -3.222   5.160  1.00  0.00    -0.311 OA
BRANCH  22  23
HETATM   23  C   UNL     1      -0.819  -3.359   6.485  1.00  0.00     0.258 C 
BRANCH  23  24
HETATM   24  C   UNL     1       0.362  -2.477   7.020  1.00  0.00     0.158 C 
HETATM   25  O   UNL     1       1.398  -3.024   7.416  1.00  0.00    -0.295 OA
BRANCH  24  26
HETATM   26  C   UNL     1       0.200  -0.942   7.136  1.00  0.00     0.012 C 
HETATM   27  C   UNL     1      -1.105  -0.619   7.872  1.00  0.00     0.022 C 
HETATM   28  C   UNL     1       1.345  -0.265   7.934  1.00  0.00     0.022 C 
HETATM   29  C   UNL     1       0.233  -0.356   5.724  1.00  0.00     0.022 C 
ENDBRANCH  24  26
ENDBRANCH  23  24
ENDBRANCH  22  23
ENDBRANCH  20  22
ENDBRANCH  18  20
ENDBRANCH   2  17
TORSDOF 9
