REMARK WARNING: 32 MAX_TORS EXCEEDED!!!
REMARK  45 active torsions:
REMARK  status: ('A' for Active; 'I' for Inactive)
REMARK    1  A    between atoms: C_2  and  C_3 
REMARK    2  A    between atoms: C_3  and  C_4 
REMARK    3  A    between atoms: C_4  and  C_5 
REMARK    4  A    between atoms: C_5  and  C_6 
REMARK    5  A    between atoms: C_6  and  C_7 
REMARK    6  A    between atoms: C_7  and  C_8 
REMARK    7  A    between atoms: C_8  and  C_9 
REMARK    8  A    between atoms: C_9  and  C_10 
REMARK    9  A    between atoms: C_10  and  C_11 
REMARK   10  A    between atoms: C_11  and  C_12 
REMARK   11  A    between atoms: C_12  and  C_13 
REMARK   12  A    between atoms: C_13  and  C_14 
REMARK   13  A    between atoms: C_14  and  C_15 
REMARK   14  A    between atoms: C_15  and  C_16 
REMARK   15  A    between atoms: C_16  and  C_17 
REMARK   16  A    between atoms: C_17  and  C_18 
REMARK       I    between atoms: C_18  and  N_20 
REMARK   17  A    between atoms: N_20  and  C_21 
REMARK   18  A    between atoms: N_20  and  C_24 
REMARK   19  A    between atoms: C_21  and  C_22 
REMARK   20  A    between atoms: C_22  and  O_23 
REMARK   21  A    between atoms: C_24  and  C_25 
REMARK   22  A    between atoms: C_25  and  C_26 
REMARK   23  A    between atoms: C_25  and  O_51 
REMARK   24  A    between atoms: C_26  and  N_27 
REMARK   25  A    between atoms: N_27  and  C_28 
REMARK   26  A    between atoms: N_27  and  C_31 
REMARK   27  A    between atoms: C_28  and  C_29 
REMARK   28  A    between atoms: C_29  and  O_30 
REMARK   29  A    between atoms: C_31  and  O_32 
REMARK   30  A    between atoms: C_31  and  C_34 
REMARK   31  A    between atoms: C_34  and  C_35 
REMARK   32  A    between atoms: C_35  and  C_36 
REMARK   33  A    between atoms: C_36  and  C_37 
REMARK   34  A    between atoms: C_37  and  C_38 
REMARK   35  A    between atoms: C_38  and  C_39 
REMARK   36  A    between atoms: C_39  and  C_40 
REMARK   37  A    between atoms: C_40  and  C_41 
REMARK   38  A    between atoms: C_41  and  C_42 
REMARK   39  A    between atoms: C_42  and  C_43 
REMARK   40  A    between atoms: C_43  and  C_44 
REMARK   41  A    between atoms: C_44  and  C_45 
REMARK   42  A    between atoms: C_45  and  C_46 
REMARK   43  A    between atoms: C_46  and  C_47 
REMARK   44  A    between atoms: C_47  and  C_48 
REMARK   45  A    between atoms: C_48  and  C_49 
ROOT
HETATM    1  C   UNL     1      21.532   3.240  13.752  1.00  0.00     0.154 C 
ENDROOT
BRANCH   1   2
HETATM    2  C   UNL     1      20.802   2.857  12.311  1.00  0.00     0.159 C 
BRANCH   2   3
HETATM    3  N   UNL     1      19.218   3.012  11.971  1.00  0.00    -0.348 N 
HETATM    4  C   UNL     1      18.636   4.256  12.005  1.00  0.00     0.219 C 
HETATM    5  O   UNL     1      17.489   4.513  11.566  1.00  0.00    -0.273 OA
BRANCH   4   6
HETATM    6  C   UNL     1      19.521   5.212  12.717  1.00  0.00     0.103 C 
BRANCH   6   7
HETATM    7  C   UNL     1      19.508   6.614  12.282  1.00  0.00     0.009 C 
BRANCH   7   8
HETATM    8  C   UNL     1      18.130   7.126  12.552  1.00  0.00     0.000 C 
BRANCH   8   9
HETATM    9  C   UNL     1      18.181   8.543  12.120  1.00  0.00     0.000 C 
BRANCH   9  10
HETATM   10  C   UNL     1      16.859   9.207  12.323  1.00  0.00     0.000 C 
BRANCH  10  11
HETATM   11  C   UNL     1      17.064  10.623  11.849  1.00  0.00     0.000 C 
BRANCH  11  12
HETATM   12  C   UNL     1      15.779  11.380  11.998  1.00  0.00     0.000 C 
BRANCH  12  13
HETATM   13  C   UNL     1      15.993  12.795  11.520  1.00  0.00     0.000 C 
BRANCH  13  14
HETATM   14  C   UNL     1      14.696  13.555  11.682  1.00  0.00     0.000 C 
BRANCH  14  15
HETATM   15  C   UNL     1      14.893  14.979  11.207  1.00  0.00     0.000 C 
BRANCH  15  16
HETATM   16  C   UNL     1      13.600  15.752  11.364  1.00  0.00     0.000 C 
BRANCH  16  17
HETATM   17  C   UNL     1      13.784  17.183  10.890  1.00  0.00     0.000 C 
BRANCH  17  18
HETATM   18  C   UNL     1      12.486  17.957  11.049  1.00  0.00     0.000 C 
BRANCH  18  19
HETATM   19  C   UNL     1      12.669  19.392  10.577  1.00  0.00     0.000 C 
BRANCH  19  20
HETATM   20  C   UNL     1      11.370  20.170  10.735  1.00  0.00    -0.000 C 
BRANCH  20  21
HETATM   21  C   UNL     1      11.543  21.609  10.266  1.00  0.00    -0.005 C 
HETATM   22  C   UNL     1      10.247  22.382  10.427  1.00  0.00     0.005 C 
ENDBRANCH  20  21
ENDBRANCH  19  20
ENDBRANCH  18  19
ENDBRANCH  17  18
ENDBRANCH  16  17
ENDBRANCH  15  16
ENDBRANCH  14  15
ENDBRANCH  13  14
ENDBRANCH  12  13
ENDBRANCH  11  12
ENDBRANCH  10  11
ENDBRANCH   9  10
ENDBRANCH   8   9
ENDBRANCH   7   8
ENDBRANCH   6   7
ENDBRANCH   4   6
BRANCH   3  23
HETATM   23  C   UNL     1      18.479   1.939  11.209  1.00  0.00     0.151 C 
BRANCH  23  24
HETATM   24  C   UNL     1      16.937   1.609  10.830  1.00  0.00     0.183 C 
BRANCH  24  25
HETATM   25  O   UNL     1      16.136   2.543  10.125  1.00  0.00    -0.399 OA
HETATM   26  H   UNL     1      16.046   3.298  10.716  1.00  0.00     0.209 HD
ENDBRANCH  24  25
ENDBRANCH  23  24
ENDBRANCH   3  23
ENDBRANCH   2   3
ENDBRANCH   1   2
BRANCH   1  27
HETATM   27  C   UNL     1      21.095   2.379  14.918  1.00  0.00     0.158 C 
BRANCH  27  28
HETATM   28  N   UNL     1      21.763   2.724  16.192  1.00  0.00    -0.361 N 
BRANCH  28  29
HETATM   29  C   UNL     1      23.153   2.104  16.480  1.00  0.00     0.150 C 
BRANCH  29  30
HETATM   30  C   UNL     1      23.531   0.474  16.165  1.00  0.00     0.183 C 
BRANCH  30  31
HETATM   31  O   UNL     1      23.631   0.027  14.793  1.00  0.00    -0.399 OA
HETATM   32  H   UNL     1      22.809  -0.485  14.608  1.00  0.00     0.209 HD
ENDBRANCH  30  31
ENDBRANCH  29  30
ENDBRANCH  28  29
BRANCH  28  33
HETATM   33  C   UNL     1      21.139   3.805  16.880  1.00  0.00     0.113 C 
BRANCH  33  34
HETATM   34  O   UNL     1      21.649   4.338  17.970  1.00  0.00    -0.349 OA
ATOM     35  HO  UNL     1      21.233   5.059  18.429  1.00  0.00     0.219 HD
ENDBRANCH  33  34
BRANCH  33  36
HETATM   36  C   UNL     1      19.758   4.317  16.452  1.00  0.00     0.084 C 
BRANCH  36  37
HETATM   37  C   UNL     1      18.552   3.584  17.032  1.00  0.00     0.008 C 
BRANCH  37  38
HETATM   38  C   UNL     1      18.459   3.729  18.544  1.00  0.00     0.000 C 
BRANCH  38  39
HETATM   39  C   UNL     1      17.241   2.964  19.039  1.00  0.00     0.000 C 
BRANCH  39  40
HETATM   40  C   UNL     1      17.086   3.051  20.548  1.00  0.00     0.000 C 
BRANCH  40  41
HETATM   41  C   UNL     1      15.852   2.269  20.973  1.00  0.00     0.000 C 
BRANCH  41  42
HETATM   42  C   UNL     1      15.678   2.341  22.478  1.00  0.00     0.000 C 
BRANCH  42  43
HETATM   43  C   UNL     1      14.445   1.558  22.894  1.00  0.00     0.000 C 
BRANCH  43  44
HETATM   44  C   UNL     1      14.272   1.631  24.400  1.00  0.00     0.000 C 
BRANCH  44  45
HETATM   45  C   UNL     1      13.040   0.848  24.816  1.00  0.00     0.000 C 
BRANCH  45  46
HETATM   46  C   UNL     1      12.864   0.920  26.322  1.00  0.00     0.000 C 
BRANCH  46  47
HETATM   47  C   UNL     1      11.633   0.137  26.747  1.00  0.00     0.000 C 
BRANCH  47  48
HETATM   48  C   UNL     1      11.459   0.209  28.255  1.00  0.00     0.000 C 
BRANCH  48  49
HETATM   49  C   UNL     1      10.226  -0.575  28.678  1.00  0.00     0.000 C 
BRANCH  49  50
HETATM   50  C   UNL     1      10.049  -0.507  30.188  1.00  0.00    -0.000 C 
BRANCH  50  51
HETATM   51  C   UNL     1       8.818  -1.291  30.623  1.00  0.00    -0.005 C 
HETATM   52  C   UNL     1       8.646  -1.219  32.129  1.00  0.00     0.005 C 
ENDBRANCH  50  51
ENDBRANCH  49  50
ENDBRANCH  48  49
ENDBRANCH  47  48
ENDBRANCH  46  47
ENDBRANCH  45  46
ENDBRANCH  44  45
ENDBRANCH  43  44
ENDBRANCH  42  43
ENDBRANCH  41  42
ENDBRANCH  40  41
ENDBRANCH  39  40
ENDBRANCH  38  39
ENDBRANCH  37  38
ENDBRANCH  36  37
ENDBRANCH  33  36
ENDBRANCH  28  33
ENDBRANCH  27  28
ENDBRANCH   1  27
BRANCH   1  53
HETATM   53  O   UNL     1      22.968   3.235  13.629  1.00  0.00    -0.392 OA
HETATM   54  H   UNL     1      23.231   2.375  13.318  1.00  0.00     0.210 HD
ENDBRANCH   1  53
TORSDOF 45
