REMARK WARNING: 32 MAX_TORS EXCEEDED!!!
REMARK  39 active torsions:
REMARK  status: ('A' for Active; 'I' for Inactive)
REMARK    1  A    between atoms: C_2  and  C_3 
REMARK    2  A    between atoms: C_3  and  C_4 
REMARK    3  A    between atoms: C_4  and  C_5 
REMARK    4  A    between atoms: C_5  and  C_6 
REMARK    5  A    between atoms: C_6  and  C_7 
REMARK    6  A    between atoms: C_7  and  C_8 
REMARK    7  A    between atoms: C_8  and  C_9 
REMARK    8  A    between atoms: C_9  and  C_10 
REMARK    9  A    between atoms: C_10  and  C_11 
REMARK   10  A    between atoms: C_11  and  C_12 
REMARK   11  A    between atoms: C_12  and  C_13 
REMARK   12  A    between atoms: C_13  and  C_14 
REMARK   13  A    between atoms: C_14  and  C_15 
REMARK   14  A    between atoms: C_15  and  C_16 
REMARK       I    between atoms: C_16  and  N_18 
REMARK   15  A    between atoms: N_18  and  C_19 
REMARK   16  A    between atoms: N_18  and  C_22 
REMARK   17  A    between atoms: C_19  and  C_20 
REMARK   18  A    between atoms: C_20  and  O_21 
REMARK   19  A    between atoms: C_22  and  C_23 
REMARK   20  A    between atoms: C_23  and  C_24 
REMARK   21  A    between atoms: C_23  and  O_46 
REMARK   22  A    between atoms: C_24  and  N_25 
REMARK   23  A    between atoms: N_25  and  C_26 
REMARK       I    between atoms: N_25  and  C_29 
REMARK   24  A    between atoms: C_26  and  C_27 
REMARK   25  A    between atoms: C_27  and  O_28 
REMARK   26  A    between atoms: C_29  and  C_31 
REMARK   27  A    between atoms: C_31  and  C_32 
REMARK   28  A    between atoms: C_32  and  C_33 
REMARK   29  A    between atoms: C_33  and  C_34 
REMARK   30  A    between atoms: C_34  and  C_35 
REMARK   31  A    between atoms: C_35  and  C_36 
REMARK   32  A    between atoms: C_36  and  C_37 
REMARK   33  A    between atoms: C_37  and  C_38 
REMARK   34  A    between atoms: C_38  and  C_39 
REMARK   35  A    between atoms: C_39  and  C_40 
REMARK   36  A    between atoms: C_40  and  C_41 
REMARK   37  A    between atoms: C_41  and  C_42 
REMARK   38  A    between atoms: C_42  and  C_43 
REMARK   39  A    between atoms: C_43  and  C_44 
ROOT
HETATM    1  C   UNL     1      19.535   9.227  -8.493  1.00  0.00     0.154 C 
ENDROOT
BRANCH   1   2
HETATM    2  C   UNL     1      18.748   8.199  -7.545  1.00  0.00     0.159 C 
BRANCH   2   3
HETATM    3  N   UNL     1      18.678   8.076  -5.934  1.00  0.00    -0.348 N 
HETATM    4  C   UNL     1      17.875   7.118  -5.387  1.00  0.00     0.219 C 
HETATM    5  O   UNL     1      17.808   6.847  -4.149  1.00  0.00    -0.273 OA
BRANCH   4   6
HETATM    6  C   UNL     1      17.099   6.336  -6.410  1.00  0.00     0.103 C 
BRANCH   6   7
HETATM    7  C   UNL     1      16.281   5.157  -6.014  1.00  0.00     0.009 C 
BRANCH   7   8
HETATM    8  C   UNL     1      15.692   4.611  -7.288  1.00  0.00     0.000 C 
BRANCH   8   9
HETATM    9  C   UNL     1      14.888   3.435  -6.858  1.00  0.00     0.000 C 
BRANCH   9  10
HETATM   10  C   UNL     1      14.219   2.760  -8.010  1.00  0.00     0.000 C 
BRANCH  10  11
HETATM   11  C   UNL     1      13.472   1.596  -7.418  1.00  0.00     0.000 C 
BRANCH  11  12
HETATM   12  C   UNL     1      12.753   0.887  -8.525  1.00  0.00     0.000 C 
BRANCH  12  13
HETATM   13  C   UNL     1      12.012  -0.286  -7.934  1.00  0.00     0.000 C 
BRANCH  13  14
HETATM   14  C   UNL     1      11.293  -1.021  -9.037  1.00  0.00     0.000 C 
BRANCH  14  15
HETATM   15  C   UNL     1      10.529  -2.187  -8.447  1.00  0.00     0.000 C 
BRANCH  15  16
HETATM   16  C   UNL     1       9.816  -2.936  -9.554  1.00  0.00     0.000 C 
BRANCH  16  17
HETATM   17  C   UNL     1       9.049  -4.108  -8.970  1.00  0.00     0.000 C 
BRANCH  17  18
HETATM   18  C   UNL     1       8.325  -4.860 -10.076  1.00  0.00    -0.000 C 
BRANCH  18  19
HETATM   19  C   UNL     1       7.552  -6.037  -9.498  1.00  0.00    -0.005 C 
HETATM   20  C   UNL     1       6.834  -6.787 -10.607  1.00  0.00     0.005 C 
ENDBRANCH  18  19
ENDBRANCH  17  18
ENDBRANCH  16  17
ENDBRANCH  15  16
ENDBRANCH  14  15
ENDBRANCH  13  14
ENDBRANCH  12  13
ENDBRANCH  11  12
ENDBRANCH  10  11
ENDBRANCH   9  10
ENDBRANCH   8   9
ENDBRANCH   7   8
ENDBRANCH   6   7
ENDBRANCH   4   6
BRANCH   3  21
HETATM   21  C   UNL     1      19.331   9.056  -5.043  1.00  0.00     0.151 C 
BRANCH  21  22
HETATM   22  C   UNL     1      19.684   9.005  -3.499  1.00  0.00     0.183 C 
BRANCH  22  23
HETATM   23  O   UNL     1      20.303   7.854  -2.958  1.00  0.00    -0.399 OA
HETATM   24  H   UNL     1      19.536   7.217  -2.847  1.00  0.00     0.209 HD
ENDBRANCH  22  23
ENDBRANCH  21  22
ENDBRANCH   3  21
ENDBRANCH   2   3
ENDBRANCH   1   2
BRANCH   1  25
HETATM   25  C   UNL     1      18.983  10.653  -8.503  1.00  0.00     0.159 C 
BRANCH  25  26
HETATM   26  N   UNL     1      19.687  11.579  -9.429  1.00  0.00    -0.348 N 
HETATM   27  C   UNL     1      20.463  12.563  -8.684  1.00  0.00     0.219 C 
HETATM   28  O   UNL     1      20.514  12.724  -7.446  1.00  0.00    -0.273 OA
BRANCH  26  29
HETATM   29  C   UNL     1      19.785  11.237 -10.934  1.00  0.00     0.151 C 
BRANCH  29  30
HETATM   30  C   UNL     1      18.494  11.138 -11.947  1.00  0.00     0.183 C 
BRANCH  30  31
HETATM   31  O   UNL     1      17.480  10.164 -11.667  1.00  0.00    -0.399 OA
HETATM   32  H   UNL     1      17.546   9.455 -12.380  1.00  0.00     0.209 HD
ENDBRANCH  30  31
ENDBRANCH  29  30
ENDBRANCH  26  29
BRANCH  27  33
HETATM   33  C   UNL     1      21.248  13.607  -9.510  1.00  0.00     0.103 C 
BRANCH  33  34
HETATM   34  C   UNL     1      22.003  14.670  -8.675  1.00  0.00     0.009 C 
BRANCH  34  35
HETATM   35  C   UNL     1      23.111  14.096  -7.783  1.00  0.00     0.000 C 
BRANCH  35  36
HETATM   36  C   UNL     1      23.820  15.224  -7.041  1.00  0.00     0.000 C 
BRANCH  36  37
HETATM   37  C   UNL     1      24.930  14.720  -6.125  1.00  0.00     0.000 C 
BRANCH  37  38
HETATM   38  C   UNL     1      25.590  15.904  -5.425  1.00  0.00     0.000 C 
BRANCH  38  39
HETATM   39  C   UNL     1      26.701  15.433  -4.503  1.00  0.00     0.000 C 
BRANCH  39  40
HETATM   40  C   UNL     1      27.350  16.623  -3.811  1.00  0.00     0.000 C 
BRANCH  40  41
HETATM   41  C   UNL     1      28.461  16.149  -2.890  1.00  0.00     0.000 C 
BRANCH  41  42
HETATM   42  C   UNL     1      29.109  17.336  -2.197  1.00  0.00     0.000 C 
BRANCH  42  43
HETATM   43  C   UNL     1      30.220  16.862  -1.276  1.00  0.00     0.000 C 
BRANCH  43  44
HETATM   44  C   UNL     1      30.870  18.048  -0.581  1.00  0.00     0.000 C 
BRANCH  44  45
HETATM   45  C   UNL     1      31.985  17.576   0.341  1.00  0.00    -0.000 C 
BRANCH  45  46
HETATM   46  C   UNL     1      32.641  18.755   1.043  1.00  0.00    -0.005 C 
HETATM   47  C   UNL     1      33.754  18.281   1.964  1.00  0.00     0.005 C 
ENDBRANCH  45  46
ENDBRANCH  44  45
ENDBRANCH  43  44
ENDBRANCH  42  43
ENDBRANCH  41  42
ENDBRANCH  40  41
ENDBRANCH  39  40
ENDBRANCH  38  39
ENDBRANCH  37  38
ENDBRANCH  36  37
ENDBRANCH  35  36
ENDBRANCH  34  35
ENDBRANCH  33  34
ENDBRANCH  27  33
ENDBRANCH  25  26
ENDBRANCH   1  25
BRANCH   1  48
HETATM   48  O   UNL     1      20.978   9.223  -8.318  1.00  0.00    -0.392 OA
HETATM   49  H   UNL     1      21.128   8.909  -7.439  1.00  0.00     0.210 HD
ENDBRANCH   1  48
TORSDOF 39
