REMARK  2 active torsions:
REMARK  status: ('A' for Active; 'I' for Inactive)
REMARK    1  A    between atoms: C_1  and  C_2 
REMARK    2  A    between atoms: C_1  and  C_6 
ROOT
HETATM    1  C   UNL     1       0.779   0.168  -0.030  1.00  0.00     0.383 C 
HETATM    2  F   UNL     1       1.945   0.879  -0.049  1.00  0.00    -0.230 F 
ENDROOT
BRANCH   1   3
HETATM    3  C   UNL     1       0.693  -0.738  -1.218  1.00  0.00     0.426 C 
HETATM    4  F   UNL     1      -0.424  -1.499  -1.201  1.00  0.00    -0.168 F 
HETATM    5  F   UNL     1       0.638  -0.007  -2.362  1.00  0.00    -0.168 F 
HETATM    6  F   UNL     1       1.750  -1.567  -1.324  1.00  0.00    -0.168 F 
ENDBRANCH   1   3
BRANCH   1   7
HETATM    7  C   UNL     1       0.676  -0.642   1.223  1.00  0.00     0.426 C 
HETATM    8  F   UNL     1      -0.439  -1.406   1.249  1.00  0.00    -0.168 F 
HETATM    9  F   UNL     1       1.732  -1.459   1.409  1.00  0.00    -0.168 F 
HETATM   10  F   UNL     1       0.600   0.176   2.305  1.00  0.00    -0.168 F 
ENDBRANCH   1   7
TORSDOF 2
