REMARK  7 active torsions:
REMARK  status: ('A' for Active; 'I' for Inactive)
REMARK    1  A    between atoms: N_3  and  C_10 
REMARK    2  A    between atoms: N_6  and  C_7 
REMARK    3  A    between atoms: C_7  and  C_8 
REMARK    4  A    between atoms: C_8  and  O_9 
REMARK    5  A    between atoms: C_10  and  C_11 
REMARK    6  A    between atoms: C_11  and  S_12 
REMARK    7  A    between atoms: S_12  and  O_15 
ROOT
HETATM    1  C   UNL     1       0.716  -1.216   0.170  1.00  0.00     0.302 C 
HETATM    2  C   UNL     1      -0.803  -1.154  -0.155  1.00  0.00     0.302 C 
HETATM    3  N   UNL     1      -1.476   0.086   0.310  1.00  0.00     0.092 N 
HETATM    4  C   UNL     1      -0.695   1.244  -0.180  1.00  0.00     0.302 C 
HETATM    5  C   UNL     1       0.812   1.185   0.167  1.00  0.00     0.302 C 
HETATM    6  N   UNL     1       1.495  -0.039  -0.301  1.00  0.00     0.093 N 
ENDROOT
BRANCH   3   7
HETATM    7  C   UNL     1      -1.622   0.079   1.784  1.00  0.00     0.289 C 
BRANCH   7   8
HETATM    8  C   UNL     1      -2.395   1.285   2.299  1.00  0.00     0.185 C 
BRANCH   8   9
HETATM    9  S   UNL     1      -2.521   1.238   4.074  1.00  0.00     0.095 S 
HETATM   10  O   UNL     1      -3.286   0.081   4.478  1.00  0.00    -0.601 OA
HETATM   11  O   UNL     1      -1.244   1.573   4.659  1.00  0.00    -0.601 OA
BRANCH   9  12
HETATM   12  O   UNL     1      -3.509   2.494   4.244  1.00  0.00    -0.296 OA
HETATM   13  H   UNL     1      -4.397   2.157   4.494  1.00  0.00     0.232 HD
ENDBRANCH   9  12
ENDBRANCH   8   9
ENDBRANCH   7   8
ENDBRANCH   3   7
BRANCH   6  14
HETATM   14  C   UNL     1       1.642  -0.080  -1.776  1.00  0.00     0.298 C 
BRANCH  14  15
HETATM   15  C   UNL     1       2.512   1.050  -2.354  1.00  0.00     0.194 C 
BRANCH  15  16
HETATM   16  O   UNL     1       3.812   1.048  -1.777  1.00  0.00    -0.399 OA
HETATM   17  H   UNL     1       3.672   1.017  -0.811  1.00  0.00     0.209 HD
ENDBRANCH  15  16
ENDBRANCH  14  15
ENDBRANCH   6  14
TORSDOF 7
