REMARK  7 active torsions:
REMARK  status: ('A' for Active; 'I' for Inactive)
REMARK    1  A    between atoms: C_4  and  N_10 
REMARK    2  A    between atoms: C_5  and  C_7 
REMARK    3  A    between atoms: C_7  and  O_9 
REMARK       I    between atoms: N_10  and  C_11 
REMARK    4  A    between atoms: C_11  and  C_13 
REMARK    5  A    between atoms: C_13  and  C_14 
REMARK    6  A    between atoms: C_14  and  C_15 
REMARK    7  A    between atoms: C_18  and  O_21 
ROOT
HETATM    1  N   UNL     1      -2.782   0.238  -0.270  1.00  0.00    -0.326 N 
HETATM    2  C   UNL     1      -3.709  -0.795  -0.238  1.00  0.00     0.222 C 
HETATM    3  O   UNL     1      -3.425  -1.981  -0.104  1.00  0.00    -0.273 OA
HETATM    4  H   UNL     1      -3.100   1.157  -0.578  1.00  0.00     0.169 HD
ENDROOT
BRANCH   1   5
HETATM    5  C   UNL     1      -1.386   0.102  -0.029  1.00  0.00     0.051 A 
HETATM    6  C   UNL     1      -0.863  -1.019   0.631  1.00  0.00     0.030 A 
HETATM    7  C   UNL     1       0.512  -1.179   0.820  1.00  0.00     0.002 A 
HETATM    8  C   UNL     1       1.397  -0.212   0.363  1.00  0.00     0.001 A 
HETATM    9  C   UNL     1       0.904   0.938  -0.252  1.00  0.00     0.020 A 
HETATM   10  C   UNL     1      -0.481   1.102  -0.447  1.00  0.00     0.064 A 
BRANCH  10  11
HETATM   11  C   UNL     1      -0.985   2.347  -1.077  1.00  0.00     0.178 C 
HETATM   12  O   UNL     1      -2.047   2.859  -0.761  1.00  0.00    -0.646 OA
BRANCH  11  13
HETATM   13  O   UNL     1      -0.201   2.826  -2.066  1.00  0.00    -0.773 OA
HETATM   14  H   UNL     1       0.502   2.220  -2.369  1.00  0.00     0.167 HD
ENDBRANCH  11  13
ENDBRANCH  10  11
ENDBRANCH   1   5
BRANCH   2  15
HETATM   15  C   UNL     1      -5.145  -0.360  -0.477  1.00  0.00     0.108 C 
BRANCH  15  16
HETATM   16  C   UNL     1      -6.085  -1.368   0.190  1.00  0.00     0.048 C 
BRANCH  16  17
HETATM   17  C   UNL     1      -7.551  -1.088  -0.019  1.00  0.00    -0.058 A 
HETATM   18  C   UNL     1      -8.231  -1.658  -1.105  1.00  0.00     0.010 A 
HETATM   19  C   UNL     1      -9.606  -1.465  -1.264  1.00  0.00     0.037 A 
HETATM   20  C   UNL     1     -10.299  -0.693  -0.338  1.00  0.00     0.065 A 
HETATM   21  C   UNL     1      -9.639  -0.109   0.736  1.00  0.00     0.037 A 
HETATM   22  C   UNL     1      -8.265  -0.301   0.895  1.00  0.00     0.010 A 
BRANCH  20  23
HETATM   23  O   UNL     1     -11.642  -0.489  -0.446  1.00  0.00    -0.361 OA
HETATM   24  H   UNL     1     -11.959  -0.943  -1.244  1.00  0.00     0.217 HD
ENDBRANCH  20  23
ENDBRANCH  16  17
ENDBRANCH  15  16
ENDBRANCH   2  15
TORSDOF 7
