REMARK  9 active torsions:
REMARK  status: ('A' for Active; 'I' for Inactive)
REMARK    1  A    between atoms: C_7  and  C_10 
REMARK    2  A    between atoms: C_10  and  C_11 
REMARK       I    between atoms: C_11  and  N_14 
REMARK    3  A    between atoms: N_14  and  CA_15 
REMARK    4  A    between atoms: CA_15  and  CB_16 
REMARK    5  A    between atoms: CA_15  and  C_21 
REMARK    6  A    between atoms: CB_16  and  CG_17 
REMARK    7  A    between atoms: CG_17  and  CD_18 
REMARK    8  A    between atoms: CD_18  and  OE2_20 
REMARK    9  A    between atoms: C_21  and  OXT_23 
ROOT
HETATM    1  C   UNK A   0      -0.950  -3.732  -0.571  1.00  0.00     0.222 C 
HETATM    2  O   UNK A   0      -0.034  -3.508  -1.365  1.00  0.00    -0.273 OA
ATOM      3  N   GLU A   1      -1.063  -4.931   0.098  1.00  0.00    -0.346 N 
ATOM      4  H   GLU A   1      -1.884  -5.120   0.666  1.00  0.00     0.163 HD
ENDROOT
BRANCH   1   5
HETATM    5  C   UNK A   0      -1.976  -2.675  -0.198  1.00  0.00     0.143 C 
BRANCH   5   6
HETATM    6  C   UNK A   0      -3.259  -2.754  -0.964  1.00  0.00    -0.022 A 
HETATM    7  C   UNK A   0      -3.469  -2.592  -2.378  1.00  0.00    -0.001 A 
HETATM    8  C   UNK A   0      -4.843  -2.677  -2.610  1.00  0.00     0.042 A 
HETATM    9  C   UNK A   0      -2.624  -2.365  -3.487  1.00  0.00     0.014 A 
HETATM   10  C   UNK A   0      -5.414  -2.564  -3.884  1.00  0.00     0.030 A 
HETATM   11  N   UNK A   0      -5.450  -2.871  -1.392  1.00  0.00    -0.365 N 
HETATM   12  C   UNK A   0      -4.555  -2.353  -4.964  1.00  0.00     0.002 A 
HETATM   13  C   UNK A   0      -3.180  -2.251  -4.770  1.00  0.00     0.001 A 
HETATM   14  C   UNK A   0      -4.513  -2.914  -0.398  1.00  0.00     0.097 A 
HETATM   15  H   UNK A   0      -6.448  -2.947  -1.259  1.00  0.00     0.165 HD
ENDBRANCH   5   6
ENDBRANCH   1   5
BRANCH   3  16
ATOM     16  CA  GLU A   1      -0.093  -6.010  -0.100  1.00  0.00     0.182 C 
BRANCH  16  17
ATOM     17  CB  GLU A   1       1.096  -5.862   0.873  1.00  0.00     0.046 C 
BRANCH  17  18
ATOM     18  CG  GLU A   1       2.157  -6.950   0.745  1.00  0.00     0.112 C 
BRANCH  18  19
ATOM     19  CD  GLU A   1       2.719  -6.992  -0.649  1.00  0.00     0.139 C 
ATOM     20  OE1 GLU A   1       2.144  -7.569  -1.564  1.00  0.00    -0.650 OA
BRANCH  19  21
ATOM     21  OE2 GLU A   1       3.843  -6.266  -0.816  1.00  0.00    -0.776 OA
ATOM     22  HE2 GLU A   1       4.148  -5.796  -0.020  1.00  0.00     0.167 HD
ENDBRANCH  19  21
ENDBRANCH  18  19
ENDBRANCH  17  18
ENDBRANCH  16  17
BRANCH  16  23
ATOM     23  C   GLU A   1      -0.815  -7.343   0.131  1.00  0.00     0.163 C 
ATOM     24  O   GLU A   1      -1.433  -7.604   1.153  1.00  0.00    -0.648 OA
BRANCH  23  25
ATOM     25  OXT GLU A   1      -0.723  -8.206  -0.904  1.00  0.00    -0.775 OA
ATOM     26  HXT GLU A   1      -0.161  -7.899  -1.651  1.00  0.00     0.167 HD
ENDBRANCH  23  25
ENDBRANCH  16  23
ENDBRANCH   3  16
TORSDOF 9
