REMARK  6 active torsions:
REMARK  status: ('A' for Active; 'I' for Inactive)
REMARK    1  A    between atoms: C_2  and  C_3 
REMARK    2  A    between atoms: C_3  and  C_4 
REMARK    3  A    between atoms: C_4  and  N_5 
REMARK       I    between atoms: N_5  and  C_6 
REMARK    4  A    between atoms: C_6  and  O_8 
REMARK    5  A    between atoms: O_8  and  C_9 
REMARK    6  A    between atoms: C_9  and  C_10 
ROOT
HETATM    1  C   UNL     1       4.479  -5.292  -3.983  1.00  0.00    -0.068 C 
HETATM    2  C   UNL     1       3.490  -5.356  -4.657  1.00  0.00    -0.028 C 
HETATM    3  I   UNL     1       1.798  -5.445  -5.858  1.00  0.00     0.018 I 
ENDROOT
BRANCH   1   4
HETATM    4  C   UNL     1       5.720  -5.181  -3.204  1.00  0.00     0.275 C 
BRANCH   4   5
HETATM    5  O   UNL     1       5.481  -4.632  -1.897  1.00  0.00    -0.292 OA
BRANCH   5   6
HETATM    6  C   UNL     1       5.309  -3.289  -1.877  1.00  0.00     0.361 C 
HETATM    7  N   UNL     1       5.069  -2.878  -0.599  1.00  0.00    -0.337 N 
HETATM    8  H   UNL     1       5.066  -3.599   0.111  1.00  0.00     0.164 HD
HETATM    9  O   UNL     1       5.343  -2.556  -2.853  1.00  0.00    -0.238 OA
BRANCH   7  10
HETATM   10  C   UNL     1       4.559  -1.560  -0.298  1.00  0.00     0.125 C 
BRANCH  10  11
HETATM   11  C   UNL     1       3.028  -1.517  -0.309  1.00  0.00     0.019 C 
BRANCH  11  12
HETATM   12  C   UNL     1       2.403  -2.382   0.790  1.00  0.00    -0.003 C 
HETATM   13  C   UNL     1       0.884  -2.299   0.773  1.00  0.00     0.005 C 
ENDBRANCH  11  12
ENDBRANCH  10  11
ENDBRANCH   7  10
ENDBRANCH   5   6
ENDBRANCH   4   5
ENDBRANCH   1   4
TORSDOF 6
