REMARK  5 active torsions:
REMARK  status: ('A' for Active; 'I' for Inactive)
REMARK    1  A    between atoms: C_2  and  C_4 
REMARK    2  A    between atoms: C_4  and  O_5 
REMARK    3  A    between atoms: O_5  and  C_6 
REMARK    4  A    between atoms: C_6  and  C_8 
REMARK    5  A    between atoms: C_11  and  O_14 
ROOT
HETATM    1  C   UNL     1       6.529  -1.118  -2.419  1.00  0.00     0.039 A 
HETATM    2  C   UNL     1       7.240  -0.258  -1.567  1.00  0.00     0.020 A 
HETATM    3  C   UNL     1       8.636  -0.302  -1.521  1.00  0.00     0.037 A 
HETATM    4  C   UNL     1       9.317  -1.208  -2.327  1.00  0.00     0.065 A 
HETATM    5  C   UNL     1       8.627  -2.060  -3.184  1.00  0.00     0.037 A 
HETATM    6  C   UNL     1       7.231  -2.013  -3.237  1.00  0.00     0.020 A 
ENDROOT
BRANCH   1   7
HETATM    7  C   UNL     1       5.044  -1.050  -2.533  1.00  0.00     0.293 C 
HETATM    8  O   UNL     1       4.417  -1.462  -3.491  1.00  0.00    -0.259 OA
BRANCH   7   9
HETATM    9  O   UNL     1       4.536  -0.419  -1.444  1.00  0.00    -0.317 OA
BRANCH   9  10
HETATM   10  C   UNL     1       3.204   0.098  -1.571  1.00  0.00     0.183 C 
BRANCH  10  11
HETATM   11  C   UNL     1       2.162  -0.736  -0.818  1.00  0.00     0.002 C 
HETATM   12  C   UNL     1       2.484  -0.851   0.672  1.00  0.00     0.011 C 
HETATM   13  C   UNL     1       0.782  -0.098  -1.006  1.00  0.00     0.011 C 
ENDBRANCH  10  11
ENDBRANCH   9  10
ENDBRANCH   7   9
ENDBRANCH   1   7
BRANCH   4  14
HETATM   14  O   UNL     1      10.677  -1.286  -2.310  1.00  0.00    -0.361 OA
HETATM   15  H   UNL     1      11.020  -0.653  -1.658  1.00  0.00     0.217 HD
ENDBRANCH   4  14
TORSDOF 5
