REMARK  8 active torsions:
REMARK  status: ('A' for Active; 'I' for Inactive)
REMARK    1  A    between atoms: C_2  and  C_3 
REMARK    2  A    between atoms: C_3  and  C_4 
REMARK    3  A    between atoms: C_4  and  C_5 
REMARK    4  A    between atoms: C_5  and  C_6 
REMARK    5  A    between atoms: C_6  and  C_7 
REMARK    6  A    between atoms: C_7  and  C_8 
REMARK    7  A    between atoms: C_8  and  C_9 
REMARK    8  A    between atoms: C_9  and  C_10 
ROOT
HETATM    1  C   UNL     1       6.570   0.022   2.843  1.00  0.00     0.000 C 
ENDROOT
BRANCH   1   2
HETATM    2  C   UNL     1       5.045   0.032   2.816  1.00  0.00     0.000 C 
BRANCH   2   3
HETATM    3  C   UNL     1       4.525  -0.022   1.380  1.00  0.00     0.000 C 
BRANCH   3   4
HETATM    4  C   UNL     1       2.999  -0.012   1.353  1.00  0.00    -0.000 C 
BRANCH   4   5
HETATM    5  C   UNL     1       2.468  -0.067  -0.077  1.00  0.00    -0.005 C 
HETATM    6  C   UNL     1       0.948  -0.056  -0.097  1.00  0.00     0.005 C 
ENDBRANCH   4   5
ENDBRANCH   3   4
ENDBRANCH   2   3
ENDBRANCH   1   2
BRANCH   1   7
HETATM    7  C   UNL     1       7.103   0.072   4.274  1.00  0.00     0.000 C 
BRANCH   7   8
HETATM    8  C   UNL     1       8.631   0.074   4.271  1.00  0.00     0.000 C 
BRANCH   8   9
HETATM    9  C   UNL     1       9.198   0.137   5.691  1.00  0.00     0.004 C 
BRANCH   9  10
HETATM   10  C   UNL     1      10.737   0.121   5.725  1.00  0.00    -0.023 C 
HETATM   11  C   UNL     1      11.350   1.315   4.990  1.00  0.00     0.009 C 
HETATM   12  C   UNL     1      11.221   0.106   7.176  1.00  0.00     0.009 C 
ENDBRANCH   9  10
ENDBRANCH   8   9
ENDBRANCH   7   8
ENDBRANCH   1   7
TORSDOF 8
