REMARK  5 active torsions:
REMARK  status: ('A' for Active; 'I' for Inactive)
REMARK    1  A    between atoms: CG1_2  and  CB_3 
REMARK    2  A    between atoms: CB_3  and  CA_5 
REMARK    3  A    between atoms: CA_5  and  C_6 
REMARK    4  A    between atoms: CA_5  and  N_9 
REMARK    5  A    between atoms: C_6  and  OXT_8 
ROOT
ATOM      1  CA  ILE A   1       4.603  -1.387  -0.307  1.00  0.00     0.318 C 
ENDROOT
BRANCH   1   2
ATOM      2  CB  ILE A   1       3.049  -1.416  -0.358  1.00  0.00     0.024 C 
ATOM      3  CG2 ILE A   1       2.565  -1.803  -1.767  1.00  0.00     0.012 C 
BRANCH   2   4
ATOM      4  CG1 ILE A   1       2.435  -0.060   0.068  1.00  0.00     0.002 C 
ATOM      5  CD1 ILE A   1       0.910  -0.044   0.109  1.00  0.00     0.005 C 
ENDBRANCH   2   4
ENDBRANCH   1   2
BRANCH   1   6
ATOM      6  C   ILE A   1       5.154  -1.083   1.108  1.00  0.00     0.174 C 
ATOM      7  O   ILE A   1       5.394  -1.940   1.946  1.00  0.00    -0.648 OA
BRANCH   6   8
ATOM      8  OXT ILE A   1       5.394   0.229   1.334  1.00  0.00    -0.775 OA
ATOM      9  HXT ILE A   1       5.193   0.814   0.580  1.00  0.00     0.167 HD
ENDBRANCH   6   8
ENDBRANCH   1   6
BRANCH   1  10
ATOM     10  N   ILE A   1       5.157  -2.694  -0.736  1.00  0.00     0.093 N 
ATOM     11  H1  ILE A   1       4.853  -3.395  -0.051  1.00  0.00     0.314 HD
ATOM     12  H2  ILE A   1       6.173  -2.676  -0.622  1.00  0.00     0.314 HD
ENDBRANCH   1  10
TORSDOF 5
