REMARK  16 active torsions:
REMARK  status: ('A' for Active; 'I' for Inactive)
REMARK    1  A    between atoms: C_2  and  C_3 
REMARK    2  A    between atoms: C_3  and  C_4 
REMARK    3  A    between atoms: C_4  and  C_5 
REMARK    4  A    between atoms: C_5  and  C_6 
REMARK    5  A    between atoms: C_6  and  C_7 
REMARK    6  A    between atoms: C_7  and  C_8 
REMARK    7  A    between atoms: C_8  and  C_9 
REMARK    8  A    between atoms: C_9  and  C_10 
REMARK    9  A    between atoms: C_10  and  C_11 
REMARK   10  A    between atoms: C_11  and  C_12 
REMARK   11  A    between atoms: C_12  and  C_13 
REMARK   12  A    between atoms: C_13  and  C_14 
REMARK   13  A    between atoms: C_14  and  C_15 
REMARK   14  A    between atoms: C_15  and  C_16 
REMARK   15  A    between atoms: C_16  and  O_18 
REMARK   16  A    between atoms: O_18  and  C_19 
ROOT
HETATM    1  C   UNL     1      11.234   5.273  -4.820  1.00  0.00     0.000 C 
ENDROOT
BRANCH   1   2
HETATM    2  C   UNL     1      10.723   4.214  -3.850  1.00  0.00     0.000 C 
BRANCH   2   3
HETATM    3  C   UNL     1       9.201   4.199  -3.832  1.00  0.00     0.000 C 
BRANCH   3   4
HETATM    4  C   UNL     1       8.685   3.143  -2.864  1.00  0.00     0.000 C 
BRANCH   4   5
HETATM    5  C   UNL     1       7.162   3.135  -2.848  1.00  0.00     0.000 C 
BRANCH   5   6
HETATM    6  C   UNL     1       6.642   2.078  -1.882  1.00  0.00     0.000 C 
BRANCH   6   7
HETATM    7  C   UNL     1       5.119   2.068  -1.868  1.00  0.00     0.000 C 
BRANCH   7   8
HETATM    8  C   UNL     1       4.595   1.013  -0.901  1.00  0.00     0.000 C 
BRANCH   8   9
HETATM    9  C   UNL     1       3.070   1.003  -0.889  1.00  0.00    -0.000 C 
BRANCH   9  10
HETATM   10  C   UNL     1       2.535  -0.049   0.077  1.00  0.00    -0.005 C 
HETATM   11  C   UNL     1       1.016  -0.054   0.090  1.00  0.00     0.005 C 
ENDBRANCH   9  10
ENDBRANCH   8   9
ENDBRANCH   7   8
ENDBRANCH   6   7
ENDBRANCH   5   6
ENDBRANCH   4   5
ENDBRANCH   3   4
ENDBRANCH   2   3
ENDBRANCH   1   2
BRANCH   1  12
HETATM   12  C   UNL     1      12.756   5.290  -4.842  1.00  0.00     0.000 C 
BRANCH  12  13
HETATM   13  C   UNL     1      13.282   6.348  -5.809  1.00  0.00     0.000 C 
BRANCH  13  14
HETATM   14  C   UNL     1      14.805   6.338  -5.806  1.00  0.00     0.010 C 
BRANCH  14  15
HETATM   15  C   UNL     1      15.402   7.374  -6.755  1.00  0.00     0.111 C 
BRANCH  15  16
HETATM   16  C   UNL     1      16.907   7.311  -6.701  1.00  0.00     0.259 C 
HETATM   17  O   UNL     1      17.550   6.537  -6.000  1.00  0.00    -0.265 OA
BRANCH  16  18
HETATM   18  O   UNL     1      17.456   8.237  -7.535  1.00  0.00    -0.317 OA
BRANCH  18  19
HETATM   19  C   UNL     1      18.896   8.270  -7.544  1.00  0.00     0.123 C 
HETATM   20  C   UNL     1      19.439   7.152  -8.429  1.00  0.00     0.040 C 
HETATM   21  C   UNL     1      19.328   9.627  -8.086  1.00  0.00     0.040 C 
ENDBRANCH  18  19
ENDBRANCH  16  18
ENDBRANCH  15  16
ENDBRANCH  14  15
ENDBRANCH  13  14
ENDBRANCH  12  13
ENDBRANCH   1  12
TORSDOF 16
