REMARK  1 active torsions:
REMARK  status: ('A' for Active; 'I' for Inactive)
REMARK    1  A    between atoms: C_2  and  O_4 
ROOT
HETATM    1  C   UNL     1       0.894   0.018  -0.030  1.00  0.00     0.039 C 
HETATM    2  C   UNL     1       2.414  -0.012  -0.022  1.00  0.00     0.110 C 
HETATM    3  C   UNL     1       2.950  -1.360   0.435  1.00  0.00     0.039 C 
ENDROOT
BRANCH   2   4
HETATM    4  O   UNL     1       2.897   0.266  -1.333  1.00  0.00    -0.396 OA
HETATM    5  H   UNL     1       2.565  -0.429  -1.927  1.00  0.00     0.209 HD
ENDBRANCH   2   4
TORSDOF 1
