REMARK  18 active torsions:
REMARK  status: ('A' for Active; 'I' for Inactive)
REMARK    1  A    between atoms: C_2  and  C_4 
REMARK    2  A    between atoms: C_4  and  C_5 
REMARK    3  A    between atoms: C_5  and  C_6 
REMARK    4  A    between atoms: C_6  and  C_7 
REMARK    5  A    between atoms: C_7  and  C_8 
REMARK    6  A    between atoms: C_8  and  C_9 
REMARK    7  A    between atoms: C_9  and  C_10 
REMARK    8  A    between atoms: C_10  and  C_11 
REMARK    9  A    between atoms: C_11  and  C_12 
REMARK   10  A    between atoms: C_12  and  C_13 
REMARK   11  A    between atoms: C_13  and  C_14 
REMARK   12  A    between atoms: C_14  and  C_15 
REMARK   13  A    between atoms: C_15  and  C_16 
REMARK   14  A    between atoms: C_16  and  C_17 
REMARK   15  A    between atoms: C_17  and  C_18 
REMARK       I    between atoms: C_18  and  N_20 
REMARK   16  A    between atoms: N_20  and  C_21 
REMARK   17  A    between atoms: C_21  and  C_22 
REMARK   18  A    between atoms: C_22  and  O_24 
ROOT
HETATM    1  C   UNL     1      12.616   5.978   3.932  1.00  0.00     0.000 C 
ENDROOT
BRANCH   1   2
HETATM    2  C   UNL     1      11.094   5.975   3.929  1.00  0.00     0.000 C 
BRANCH   2   3
HETATM    3  C   UNL     1      10.570   4.775   3.156  1.00  0.00     0.000 C 
BRANCH   3   4
HETATM    4  C   UNL     1       9.051   4.771   3.154  1.00  0.00     0.000 C 
BRANCH   4   5
HETATM    5  C   UNL     1       8.529   3.570   2.382  1.00  0.00     0.000 C 
BRANCH   5   6
HETATM    6  C   UNL     1       7.009   3.571   2.381  1.00  0.00     0.000 C 
BRANCH   6   7
HETATM    7  C   UNL     1       6.486   2.374   1.609  1.00  0.00     0.000 C 
BRANCH   7   8
HETATM    8  C   UNL     1       4.964   2.367   1.606  1.00  0.00     0.000 C 
BRANCH   8   9
HETATM    9  C   UNL     1       4.463   1.162   0.826  1.00  0.00     0.000 C 
BRANCH   9  10
HETATM   10  C   UNL     1       2.939   1.117   0.794  1.00  0.00     0.004 C 
BRANCH  10  11
HETATM   11  C   UNL     1       2.403  -0.093   0.014  1.00  0.00    -0.023 C 
HETATM   12  C   UNL     1       0.875  -0.075   0.027  1.00  0.00     0.009 C 
HETATM   13  C   UNL     1       2.911  -0.125  -1.430  1.00  0.00     0.009 C 
ENDBRANCH  10  11
ENDBRANCH   9  10
ENDBRANCH   8   9
ENDBRANCH   7   8
ENDBRANCH   6   7
ENDBRANCH   5   6
ENDBRANCH   4   5
ENDBRANCH   3   4
ENDBRANCH   2   3
ENDBRANCH   1   2
BRANCH   1  14
HETATM   14  C   UNL     1      13.141   7.178   4.706  1.00  0.00     0.000 C 
BRANCH  14  15
HETATM   15  C   UNL     1      14.666   7.195   4.718  1.00  0.00     0.000 C 
BRANCH  15  16
HETATM   16  C   UNL     1      15.161   8.405   5.498  1.00  0.00     0.009 C 
BRANCH  16  17
HETATM   17  C   UNL     1      16.683   8.478   5.544  1.00  0.00     0.103 C 
BRANCH  17  18
HETATM   18  C   UNL     1      17.135   9.694   6.324  1.00  0.00     0.217 C 
HETATM   19  O   UNL     1      16.360  10.497   6.844  1.00  0.00    -0.274 OA
HETATM   20  N   UNL     1      18.501   9.821   6.413  1.00  0.00    -0.359 N 
HETATM   21  H   UNL     1      19.097   9.119   5.988  1.00  0.00     0.162 HD
BRANCH  20  22
HETATM   22  C   UNL     1      19.092  10.944   7.121  1.00  0.00     0.153 C 
BRANCH  22  23
HETATM   23  C   UNL     1      19.321  12.167   6.224  1.00  0.00     0.132 C 
HETATM   24  C   UNL     1      19.937  13.325   7.002  1.00  0.00     0.041 C 
BRANCH  23  25
HETATM   25  O   UNL     1      20.231  11.836   5.169  1.00  0.00    -0.394 OA
HETATM   26  H   UNL     1      20.968  11.369   5.599  1.00  0.00     0.210 HD
ENDBRANCH  23  25
ENDBRANCH  22  23
ENDBRANCH  20  22
ENDBRANCH  17  18
ENDBRANCH  16  17
ENDBRANCH  15  16
ENDBRANCH  14  15
ENDBRANCH   1  14
TORSDOF 18
