REMARK  3 active torsions:
REMARK  status: ('A' for Active; 'I' for Inactive)
REMARK    1  A    between atoms: C_2  and  C_9 
REMARK    2  A    between atoms: C_5  and  O_8 
REMARK    3  A    between atoms: C_9  and  O_10 
ROOT
HETATM    1  C   UNL     1      -0.564   1.501   0.001  1.00  0.00     0.092 A 
HETATM    2  C   UNL     1      -1.744   0.865  -0.012  1.00  0.00     0.080 A 
HETATM    3  O   UNL     1      -1.851  -0.519  -0.005  1.00  0.00    -0.322 OA
HETATM    4  C   UNL     1      -0.695  -1.265   0.012  1.00  0.00     0.182 A 
HETATM    5  C   UNL     1       0.547  -0.766   0.023  1.00  0.00     0.138 A 
HETATM    6  C   UNL     1       0.689   0.719   0.022  1.00  0.00     0.209 A 
HETATM    7  O   UNL     1       1.774   1.291   0.028  1.00  0.00    -0.285 OA
ENDROOT
BRANCH   2   8
HETATM    8  C   UNL     1      -3.057   1.590  -0.058  1.00  0.00     0.229 C 
BRANCH   8   9
HETATM    9  O   UNL     1      -3.837   1.257   1.081  1.00  0.00    -0.394 OA
HETATM   10  H   UNL     1      -3.954   0.291   1.068  1.00  0.00     0.209 HD
ENDBRANCH   8   9
ENDBRANCH   2   8
BRANCH   5  11
HETATM   11  O   UNL     1       1.682  -1.552   0.030  1.00  0.00    -0.355 OA
HETATM   12  H   UNL     1       1.421  -2.487   0.024  1.00  0.00     0.218 HD
ENDBRANCH   5  11
TORSDOF 3
