REMARK  3 active torsions:
REMARK  status: ('A' for Active; 'I' for Inactive)
REMARK    1  A    between atoms: C_2  and  C_3 
REMARK    2  A    between atoms: C_2  and  O_6 
REMARK    3  A    between atoms: C_3  and  O_5 
ROOT
HETATM    1  C   UNL     1       0.970  -0.101  -0.016  1.00  0.00     0.050 C 
HETATM    2  C   UNL     1       2.486  -0.171   0.008  1.00  0.00     0.211 C 
ENDROOT
BRANCH   2   3
HETATM    3  C   UNL     1       3.014  -1.511  -0.509  1.00  0.00     0.169 C 
HETATM    4  O   UNL     1       2.474  -2.596  -0.364  1.00  0.00    -0.648 OA
BRANCH   3   5
HETATM    5  O   UNL     1       4.198  -1.349  -1.158  1.00  0.00    -0.775 OA
HETATM    6  H   UNL     1       4.425  -0.389  -1.150  1.00  0.00     0.167 HD
ENDBRANCH   3   5
ENDBRANCH   2   3
BRANCH   2   7
HETATM    7  O   UNL     1       3.045   0.873  -0.805  1.00  0.00    -0.385 OA
HETATM    8  H   UNL     1       2.514   0.918  -1.623  1.00  0.00     0.210 HD
ENDBRANCH   2   7
TORSDOF 3
