REMARK  13 active torsions:
REMARK  status: ('A' for Active; 'I' for Inactive)
REMARK    1  A    between atoms: C_2  and  C_3 
REMARK    2  A    between atoms: C_3  and  C_4 
REMARK    3  A    between atoms: C_4  and  C_5 
REMARK    4  A    between atoms: C_5  and  C_6 
REMARK    5  A    between atoms: C_6  and  C_7 
REMARK    6  A    between atoms: C_7  and  C_8 
REMARK    7  A    between atoms: C_8  and  C_9 
REMARK    8  A    between atoms: C_9  and  C_10 
REMARK    9  A    between atoms: C_10  and  C_11 
REMARK   10  A    between atoms: C_11  and  C_12 
REMARK       I    between atoms: C_12  and  N_14 
REMARK   11  A    between atoms: N_14  and  C_15 
REMARK   12  A    between atoms: C_15  and  C_16 
REMARK   13  A    between atoms: C_16  and  O_17 
ROOT
HETATM    1  C   UNL     1      10.688  -4.163   4.110  1.00  0.00     0.009 C 
ENDROOT
BRANCH   1   2
HETATM    2  C   UNL     1       9.165  -4.162   4.109  1.00  0.00     0.000 C 
BRANCH   2   3
HETATM    3  C   UNL     1       8.640  -3.130   3.113  1.00  0.00     0.000 C 
BRANCH   3   4
HETATM    4  C   UNL     1       7.117  -3.111   3.094  1.00  0.00     0.000 C 
BRANCH   4   5
HETATM    5  C   UNL     1       6.601  -2.079   2.096  1.00  0.00     0.000 C 
BRANCH   5   6
HETATM    6  C   UNL     1       5.077  -2.062   2.082  1.00  0.00     0.000 C 
BRANCH   6   7
HETATM    7  C   UNL     1       4.554  -1.034   1.085  1.00  0.00     0.000 C 
BRANCH   7   8
HETATM    8  C   UNL     1       3.029  -1.019   1.077  1.00  0.00    -0.000 C 
BRANCH   8   9
HETATM    9  C   UNL     1       2.495   0.005   0.081  1.00  0.00    -0.005 C 
HETATM   10  C   UNL     1       0.977   0.018   0.076  1.00  0.00     0.005 C 
ENDBRANCH   8   9
ENDBRANCH   7   8
ENDBRANCH   6   7
ENDBRANCH   5   6
ENDBRANCH   4   5
ENDBRANCH   3   4
ENDBRANCH   2   3
ENDBRANCH   1   2
BRANCH   1  11
HETATM   11  C   UNL     1      11.269  -5.178   5.091  1.00  0.00     0.103 C 
BRANCH  11  12
HETATM   12  C   UNL     1      12.780  -5.138   5.059  1.00  0.00     0.217 C 
HETATM   13  O   UNL     1      13.419  -4.381   4.327  1.00  0.00    -0.274 OA
HETATM   14  N   UNL     1      13.389  -6.017   5.921  1.00  0.00    -0.359 N 
HETATM   15  H   UNL     1      12.834  -6.563   6.568  1.00  0.00     0.162 HD
BRANCH  14  16
HETATM   16  C   UNL     1      14.842  -6.109   5.965  1.00  0.00     0.148 C 
BRANCH  16  17
HETATM   17  C   UNL     1      15.447  -5.152   6.992  1.00  0.00     0.183 C 
BRANCH  17  18
HETATM   18  O   UNL     1      14.984  -5.469   8.304  1.00  0.00    -0.399 OA
HETATM   19  H   UNL     1      14.017  -5.362   8.290  1.00  0.00     0.209 HD
ENDBRANCH  17  18
ENDBRANCH  16  17
ENDBRANCH  14  16
ENDBRANCH  11  12
ENDBRANCH   1  11
TORSDOF 13
