REMARK  17 active torsions:
REMARK  status: ('A' for Active; 'I' for Inactive)
REMARK    1  A    between atoms: C_2  and  C_3 
REMARK    2  A    between atoms: C_3  and  C_4 
REMARK    3  A    between atoms: C_4  and  C_5 
REMARK    4  A    between atoms: C_5  and  C_6 
REMARK    5  A    between atoms: C_6  and  C_7 
REMARK    6  A    between atoms: C_7  and  C_8 
REMARK    7  A    between atoms: C_8  and  C_9 
REMARK    8  A    between atoms: C_9  and  C_10 
REMARK    9  A    between atoms: C_10  and  C_11 
REMARK   10  A    between atoms: C_11  and  C_12 
REMARK   11  A    between atoms: C_12  and  O_13 
REMARK   12  A    between atoms: O_13  and  C_14 
REMARK   13  A    between atoms: C_15  and  O_24 
REMARK   14  A    between atoms: C_16  and  O_23 
REMARK   15  A    between atoms: C_17  and  O_22 
REMARK   16  A    between atoms: C_18  and  C_20 
REMARK   17  A    between atoms: C_20  and  O_21 
ROOT
HETATM    1  C   UNL     1      10.758   3.362  -7.929  1.00  0.00     0.291 C 
HETATM    2  C   UNL     1      11.337   4.587  -7.183  1.00  0.00     0.204 C 
HETATM    3  C   UNL     1      10.619   4.761  -5.828  1.00  0.00     0.183 C 
HETATM    4  C   UNL     1       9.090   4.756  -5.995  1.00  0.00     0.180 C 
HETATM    5  C   UNL     1       8.688   3.475  -6.727  1.00  0.00     0.179 C 
HETATM    6  O   UNL     1       9.322   3.457  -8.027  1.00  0.00    -0.348 OA
ENDROOT
BRANCH   1   7
HETATM    7  O   UNL     1      11.164   2.173  -7.259  1.00  0.00    -0.359 OA
BRANCH   7   8
HETATM    8  C   UNL     1      10.821   0.985  -7.967  1.00  0.00     0.171 C 
BRANCH   8   9
HETATM    9  C   UNL     1      11.237  -0.223  -7.129  1.00  0.00     0.026 C 
BRANCH   9  10
HETATM   10  C   UNL     1      10.690  -0.207  -5.695  1.00  0.00     0.002 C 
BRANCH  10  11
HETATM   11  C   UNL     1       9.166  -0.296  -5.636  1.00  0.00     0.000 C 
BRANCH  11  12
HETATM   12  C   UNL     1       8.655  -0.150  -4.205  1.00  0.00     0.000 C 
BRANCH  12  13
HETATM   13  C   UNL     1       7.128  -0.123  -4.180  1.00  0.00     0.000 C 
BRANCH  13  14
HETATM   14  C   UNL     1       6.598  -0.034  -2.753  1.00  0.00     0.000 C 
BRANCH  14  15
HETATM   15  C   UNL     1       5.070  -0.025  -2.739  1.00  0.00     0.000 C 
BRANCH  15  16
HETATM   16  C   UNL     1       4.535   0.040  -1.310  1.00  0.00     0.000 C 
BRANCH  16  17
HETATM   17  C   UNL     1       3.008   0.035  -1.296  1.00  0.00    -0.000 C 
BRANCH  17  18
HETATM   18  C   UNL     1       2.468   0.099   0.131  1.00  0.00    -0.005 C 
HETATM   19  C   UNL     1       0.950   0.096   0.142  1.00  0.00     0.005 C 
ENDBRANCH  17  18
ENDBRANCH  16  17
ENDBRANCH  15  16
ENDBRANCH  14  15
ENDBRANCH  13  14
ENDBRANCH  12  13
ENDBRANCH  11  12
ENDBRANCH  10  11
ENDBRANCH   9  10
ENDBRANCH   8   9
ENDBRANCH   7   8
ENDBRANCH   1   7
BRANCH   2  20
HETATM   20  O   UNL     1      11.213   5.772  -7.990  1.00  0.00    -0.388 OA
HETATM   21  H   UNL     1      10.268   5.886  -8.193  1.00  0.00     0.210 HD
ENDBRANCH   2  20
BRANCH   3  22
HETATM   22  O   UNL     1      11.029   5.979  -5.197  1.00  0.00    -0.390 OA
HETATM   23  H   UNL     1      10.729   6.691  -5.796  1.00  0.00     0.210 HD
ENDBRANCH   3  22
BRANCH   5  24
HETATM   24  C   UNL     1       7.175   3.353  -6.940  1.00  0.00     0.198 C 
BRANCH  24  25
HETATM   25  O   UNL     1       6.884   2.139  -7.634  1.00  0.00    -0.398 OA
HETATM   26  H   UNL     1       7.442   2.144  -8.432  1.00  0.00     0.209 HD
ENDBRANCH  24  25
ENDBRANCH   5  24
BRANCH   4  27
HETATM   27  O   UNL     1       8.702   5.936  -6.728  1.00  0.00    -0.390 OA
HETATM   28  H   UNL     1       8.269   5.664  -7.555  1.00  0.00     0.210 HD
ENDBRANCH   4  27
TORSDOF 17
