REMARK WARNING: 32 MAX_TORS EXCEEDED!!!
REMARK  40 active torsions:
REMARK  status: ('A' for Active; 'I' for Inactive)
REMARK    1  A    between atoms: C_2  and  C_3 
REMARK    2  A    between atoms: C_3  and  C_4 
REMARK    3  A    between atoms: C_4  and  C_5 
REMARK    4  A    between atoms: C_5  and  C_6 
REMARK    5  A    between atoms: C_6  and  C_7 
REMARK    6  A    between atoms: C_7  and  C_8 
REMARK    7  A    between atoms: C_8  and  C_9 
REMARK    8  A    between atoms: C_9  and  C_10 
REMARK    9  A    between atoms: C_10  and  C_11 
REMARK   10  A    between atoms: C_11  and  C_12 
REMARK   11  A    between atoms: C_12  and  C_13 
REMARK   12  A    between atoms: C_13  and  C_14 
REMARK   13  A    between atoms: C_14  and  C_15 
REMARK   14  A    between atoms: C_15  and  C_16 
REMARK   15  A    between atoms: C_16  and  O_18 
REMARK   16  A    between atoms: O_18  and  C_19 
REMARK   17  A    between atoms: C_19  and  C_20 
REMARK   18  A    between atoms: C_20  and  C_21 
REMARK   19  A    between atoms: C_20  and  O_33 
REMARK   20  A    between atoms: C_21  and  O_22 
REMARK   21  A    between atoms: O_22  and  P_23 
REMARK   22  A    between atoms: P_23  and  O_26 
REMARK   23  A    between atoms: O_26  and  C_27 
REMARK   24  A    between atoms: C_27  and  C_28 
REMARK   25  A    between atoms: C_28  and  N_29 
REMARK   26  A    between atoms: O_33  and  C_34 
REMARK   27  A    between atoms: C_34  and  C_36 
REMARK   28  A    between atoms: C_36  and  C_37 
REMARK   29  A    between atoms: C_37  and  C_38 
REMARK   30  A    between atoms: C_38  and  C_39 
REMARK   31  A    between atoms: C_39  and  C_40 
REMARK   32  A    between atoms: C_40  and  C_41 
REMARK   33  A    between atoms: C_41  and  C_42 
REMARK   34  A    between atoms: C_42  and  C_43 
REMARK   35  A    between atoms: C_44  and  C_45 
REMARK   36  A    between atoms: C_45  and  C_46 
REMARK   37  A    between atoms: C_47  and  C_48 
REMARK   38  A    between atoms: C_48  and  C_49 
REMARK   39  A    between atoms: C_49  and  C_50 
REMARK   40  A    between atoms: C_50  and  C_51 
ROOT
HETATM    1  C   UNL     1      19.474  12.375  -2.575  1.00  0.00     0.180 C 
ENDROOT
BRANCH   1   2
HETATM    2  C   UNL     1      18.884  10.973  -2.340  1.00  0.00     0.213 C 
BRANCH   2   3
HETATM    3  O   UNL     1      19.353  10.014  -3.312  1.00  0.00    -0.319 OA
BRANCH   3   4
HETATM    4  C   UNL     1      18.650   9.994  -4.473  1.00  0.00     0.258 C 
HETATM    5  O   UNL     1      17.686  10.707  -4.720  1.00  0.00    -0.265 OA
BRANCH   4   6
HETATM    6  C   UNL     1      19.211   8.989  -5.461  1.00  0.00     0.111 C 
BRANCH   6   7
HETATM    7  C   UNL     1      19.671   9.675  -6.742  1.00  0.00     0.010 C 
BRANCH   7   8
HETATM    8  C   UNL     1      20.802  10.655  -6.466  1.00  0.00     0.000 C 
BRANCH   8   9
HETATM    9  C   UNL     1      21.244  11.342  -7.747  1.00  0.00     0.000 C 
BRANCH   9  10
HETATM   10  C   UNL     1      22.365  12.322  -7.445  1.00  0.00     0.000 C 
BRANCH  10  11
HETATM   11  C   UNL     1      22.811  13.008  -8.723  1.00  0.00     0.000 C 
BRANCH  11  12
HETATM   12  C   UNL     1      23.933  13.984  -8.421  1.00  0.00     0.000 C 
BRANCH  12  13
HETATM   13  C   UNL     1      24.377  14.670  -9.698  1.00  0.00     0.000 C 
BRANCH  13  14
HETATM   14  C   UNL     1      25.500  15.644  -9.396  1.00  0.00     0.000 C 
BRANCH  14  15
HETATM   15  C   UNL     1      25.944  16.331 -10.674  1.00  0.00     0.000 C 
BRANCH  15  16
HETATM   16  C   UNL     1      27.067  17.305 -10.373  1.00  0.00     0.000 C 
BRANCH  16  17
HETATM   17  C   UNL     1      27.511  17.994 -11.651  1.00  0.00     0.000 C 
BRANCH  17  18
HETATM   18  C   UNL     1      28.635  18.970 -11.352  1.00  0.00    -0.000 C 
BRANCH  18  19
HETATM   19  C   UNL     1      29.085  19.664 -12.628  1.00  0.00    -0.005 C 
HETATM   20  C   UNL     1      30.208  20.635 -12.327  1.00  0.00     0.005 C 
ENDBRANCH  18  19
ENDBRANCH  17  18
ENDBRANCH  16  17
ENDBRANCH  15  16
ENDBRANCH  14  15
ENDBRANCH  13  14
ENDBRANCH  12  13
ENDBRANCH  11  12
ENDBRANCH  10  11
ENDBRANCH   9  10
ENDBRANCH   8   9
ENDBRANCH   7   8
ENDBRANCH   6   7
ENDBRANCH   4   6
ENDBRANCH   3   4
ENDBRANCH   2   3
ENDBRANCH   1   2
BRANCH   1  21
HETATM   21  C   UNL     1      18.917  13.336  -1.518  1.00  0.00     0.216 C 
BRANCH  21  22
HETATM   22  O   UNL     1      19.376  14.667  -1.719  1.00  0.00    -0.287 OA
BRANCH  22  23
HETATM   23  P   UNL     1      18.762  15.716  -0.488  1.00  0.00     0.408 P 
HETATM   24  O   UNL     1      19.493  16.906  -1.098  1.00  0.00    -0.624 OA
HETATM   25  O   UNL     1      17.301  15.412  -0.856  1.00  0.00    -0.624 OA
BRANCH  23  26
HETATM   26  O   UNL     1      18.148  16.764   0.744  1.00  0.00    -0.288 OA
BRANCH  26  27
HETATM   27  C   UNL     1      17.864  15.986   1.878  1.00  0.00     0.209 C 
BRANCH  27  28
HETATM   28  C   UNL     1      17.303  16.917   2.920  1.00  0.00     0.262 C 
BRANCH  28  29
HETATM   29  N   UNL     1      16.034  17.643   2.427  1.00  0.00    -0.077 N 
HETATM   30  C   UNL     1      14.983  16.627   2.046  1.00  0.00     0.271 C 
HETATM   31  C   UNL     1      15.529  18.547   3.514  1.00  0.00     0.271 C 
HETATM   32  C   UNL     1      16.353  18.497   1.186  1.00  0.00     0.271 C 
ENDBRANCH  28  29
ENDBRANCH  27  28
ENDBRANCH  26  27
ENDBRANCH  23  26
ENDBRANCH  22  23
ENDBRANCH  21  22
ENDBRANCH   1  21
BRANCH   1  33
HETATM   33  O   UNL     1      20.938  12.319  -2.572  1.00  0.00    -0.312 OA
BRANCH  33  34
HETATM   34  C   UNL     1      21.565  12.028  -1.394  1.00  0.00     0.259 C 
HETATM   35  O   UNL     1      21.044  11.685  -0.358  1.00  0.00    -0.265 OA
BRANCH  34  36
HETATM   36  C   UNL     1      23.056  12.132  -1.530  1.00  0.00     0.111 C 
BRANCH  36  37
HETATM   37  C   UNL     1      23.612  10.806  -2.015  1.00  0.00     0.010 C 
BRANCH  37  38
HETATM   38  C   UNL     1      25.130  10.856  -2.070  1.00  0.00     0.000 C 
BRANCH  38  39
HETATM   39  C   UNL     1      25.679   9.534  -2.579  1.00  0.00     0.000 C 
BRANCH  39  40
HETATM   40  C   UNL     1      27.199   9.583  -2.643  1.00  0.00     0.000 C 
BRANCH  40  41
HETATM   41  C   UNL     1      27.750   8.258  -3.154  1.00  0.00     0.004 C 
BRANCH  41  42
HETATM   42  C   UNL     1      29.271   8.307  -3.215  1.00  0.00     0.027 C 
BRANCH  42  43
HETATM   43  C   UNL     1      29.824   7.006  -3.707  1.00  0.00    -0.030 C 
HETATM   44  C   UNL     1      30.558   6.901  -4.824  1.00  0.00    -0.027 C 
BRANCH  44  45
HETATM   45  C   UNL     1      31.095   5.606  -5.343  1.00  0.00     0.053 C 
BRANCH  45  46
HETATM   46  C   UNL     1      32.593   5.633  -5.427  1.00  0.00    -0.027 C 
HETATM   47  C   UNL     1      33.273   5.453  -6.563  1.00  0.00    -0.030 C 
BRANCH  47  48
HETATM   48  C   UNL     1      34.768   5.475  -6.624  1.00  0.00     0.027 C 
BRANCH  48  49
HETATM   49  C   UNL     1      35.246   6.586  -7.550  1.00  0.00     0.004 C 
BRANCH  49  50
HETATM   50  C   UNL     1      36.767   6.602  -7.612  1.00  0.00    -0.000 C 
BRANCH  50  51
HETATM   51  C   UNL     1      37.255   7.708  -8.538  1.00  0.00    -0.005 C 
HETATM   52  C   UNL     1      38.770   7.717  -8.597  1.00  0.00     0.005 C 
ENDBRANCH  50  51
ENDBRANCH  49  50
ENDBRANCH  48  49
ENDBRANCH  47  48
ENDBRANCH  45  46
ENDBRANCH  44  45
ENDBRANCH  42  43
ENDBRANCH  41  42
ENDBRANCH  40  41
ENDBRANCH  39  40
ENDBRANCH  38  39
ENDBRANCH  37  38
ENDBRANCH  36  37
ENDBRANCH  34  36
ENDBRANCH  33  34
ENDBRANCH   1  33
TORSDOF 40
