REMARK  8 active torsions:
REMARK  status: ('A' for Active; 'I' for Inactive)
REMARK    1  A    between atoms: CG_1  and  CD_2 
REMARK    2  A    between atoms: CG_1  and  CB_5 
REMARK    3  A    between atoms: CD_2  and  CE_3 
REMARK    4  A    between atoms: CE_3  and  NZ_4 
REMARK    5  A    between atoms: CB_5  and  CA_6 
REMARK    6  A    between atoms: CA_6  and  C_7 
REMARK    7  A    between atoms: CA_6  and  N_10 
REMARK    8  A    between atoms: C_7  and  OXT_9 
ROOT
ATOM      1  CA  LYS A   1       2.896  -0.221  -1.393  1.00  0.00     0.314 C 
ENDROOT
BRANCH   1   2
ATOM      2  CB  LYS A   1       2.400   0.050   0.037  1.00  0.00     0.046 C 
BRANCH   2   3
ATOM      3  CG  LYS A   1       0.870   0.065   0.130  1.00  0.00     0.004 C 
BRANCH   3   4
ATOM      4  CD  LYS A   1       0.377   0.330   1.554  1.00  0.00     0.030 C 
BRANCH   4   5
ATOM      5  CE  LYS A   1      -1.152   0.303   1.600  1.00  0.00     0.267 C 
BRANCH   5   6
ATOM      6  NZ  LYS A   1      -1.630   0.557   2.953  1.00  0.00     0.078 N 
ATOM      7  HZ1 LYS A   1      -1.299  -0.178   3.576  1.00  0.00     0.312 HD
ATOM      8  HZ2 LYS A   1      -2.649   0.495   2.963  1.00  0.00     0.312 HD
ENDBRANCH   5   6
ENDBRANCH   4   5
ENDBRANCH   3   4
ENDBRANCH   2   3
ENDBRANCH   1   2
BRANCH   1   9
ATOM      9  C   LYS A   1       4.436  -0.197  -1.476  1.00  0.00     0.173 C 
ATOM     10  O   LYS A   1       5.118  -1.155  -1.822  1.00  0.00    -0.648 OA
BRANCH   9  11
ATOM     11  OXT LYS A   1       4.991   1.000  -1.179  1.00  0.00    -0.775 OA
ATOM     12  HXT LYS A   1       4.349   1.701  -0.960  1.00  0.00     0.167 HD
ENDBRANCH   9  11
ENDBRANCH   1   9
BRANCH   1  13
ATOM     13  N   LYS A   1       2.399  -1.534  -1.864  1.00  0.00     0.093 N 
ATOM     14  H1  LYS A   1       2.807  -2.259  -1.265  1.00  0.00     0.314 HD
ATOM     15  H2  LYS A   1       2.822  -1.722  -2.776  1.00  0.00     0.314 HD
ENDBRANCH   1  13
TORSDOF 8
