REMARK  7 active torsions:
REMARK  status: ('A' for Active; 'I' for Inactive)
REMARK    1  A    between atoms: C_5  and  C_34 
REMARK    2  A    between atoms: C_15  and  O_28 
REMARK    3  A    between atoms: C_19  and  O_26 
REMARK    4  A    between atoms: C_20  and  O_25 
REMARK    5  A    between atoms: C_21  and  C_23 
REMARK    6  A    between atoms: C_23  and  O_24 
REMARK    7  A    between atoms: C_34  and  O_36 
ROOT
HETATM    1  C   UNL     1       1.002  -1.198   0.426  1.00  0.00     0.010 C 
HETATM    2  C   UNL     1       2.041  -0.195  -0.079  1.00  0.00    -0.014 C 
HETATM    3  C   UNL     1       1.541   1.211   0.278  1.00  0.00     0.006 C 
HETATM    4  C   UNL     1       2.345   2.224  -0.517  1.00  0.00     0.021 C 
HETATM    5  C   UNL     1       3.789   2.202   0.016  1.00  0.00     0.053 C 
HETATM    6  C   UNL     1       4.632   3.208  -0.740  1.00  0.00     0.022 C 
HETATM    7  C   UNL     1       5.990   3.185  -0.044  1.00  0.00     0.016 C 
HETATM    8  C   UNL     1       6.803   1.890  -0.232  1.00  0.00    -0.013 C 
HETATM    9  C   UNL     1       6.026   0.643  -0.485  1.00  0.00    -0.069 C 
HETATM   10  C   UNL     1       6.941  -0.298  -0.908  1.00  0.00    -0.022 C 
HETATM   11  C   UNL     1       8.622  -0.044  -0.781  1.00  0.00     0.033 C 
HETATM   12  C   UNL     1       9.377   1.346   0.057  1.00  0.00     0.007 C 
HETATM   13  C   UNL     1       7.993   1.266   0.955  1.00  0.00    -0.026 C 
HETATM   14  C   UNL     1       8.522   1.672   2.394  1.00  0.00     0.042 C 
HETATM   15  C   UNL     1       9.555   2.703   2.323  1.00  0.00     0.124 C 
HETATM   16  C   UNL     1       8.915   3.648   1.276  1.00  0.00     0.036 C 
HETATM   17  C   UNL     1       9.776   3.240   0.084  1.00  0.00    -0.030 C 
HETATM   18  C   UNL     1      11.114   4.092   0.715  1.00  0.00     0.044 C 
HETATM   19  C   UNL     1      10.804   5.520   1.511  1.00  0.00     0.148 C 
HETATM   20  C   UNL     1       9.540   5.683   2.451  1.00  0.00     0.157 C 
HETATM   21  C   UNL     1       8.365   4.944   1.860  1.00  0.00     0.012 C 
HETATM   22  C   UNL     1       7.623   5.818   0.813  1.00  0.00     0.020 C 
HETATM   23  C   UNL     1       9.763   3.869  -1.341  1.00  0.00     0.016 C 
HETATM   24  C   UNL     1       7.421  -0.115   1.695  1.00  0.00     0.016 C 
HETATM   25  C   UNL     1       4.438   0.744  -0.295  1.00  0.00     0.038 C 
HETATM   26  C   UNL     1       3.554  -0.413   0.336  1.00  0.00    -0.005 C 
HETATM   27  C   UNL     1       3.713  -0.619   1.848  1.00  0.00     0.011 C 
HETATM   28  C   UNL     1       7.240   2.191  -1.783  1.00  0.00     0.021 C 
ENDROOT
BRANCH   5  29
HETATM   29  C   UNL     1       3.635   2.867   1.415  1.00  0.00     0.149 C 
HETATM   30  O   UNL     1       3.030   3.916   1.618  1.00  0.00    -0.649 OA
BRANCH  29  31
HETATM   31  O   UNL     1       4.312   2.331   2.434  1.00  0.00    -0.776 OA
HETATM   32  H   UNL     1       4.186   3.012   3.138  1.00  0.00     0.167 HD
ENDBRANCH  29  31
ENDBRANCH   5  29
BRANCH  15  33
HETATM   33  O   UNL     1       9.917   3.172   3.603  1.00  0.00    -0.395 OA
HETATM   34  H   UNL     1      10.921   3.255   3.601  1.00  0.00     0.210 HD
ENDBRANCH  15  33
BRANCH  21  35
HETATM   35  C   UNL     1       7.337   4.501   2.983  1.00  0.00     0.176 C 
BRANCH  35  36
HETATM   36  O   UNL     1       6.437   5.528   3.350  1.00  0.00    -0.400 OA
HETATM   37  H   UNL     1       6.574   5.695   4.298  1.00  0.00     0.209 HD
ENDBRANCH  35  36
ENDBRANCH  21  35
BRANCH  19  38
HETATM   38  O   UNL     1      10.832   6.565   0.533  1.00  0.00    -0.393 OA
HETATM   39  H   UNL     1       9.935   6.674   0.179  1.00  0.00     0.210 HD
ENDBRANCH  19  38
BRANCH  20  40
HETATM   40  O   UNL     1       9.157   7.050   2.754  1.00  0.00    -0.392 OA
HETATM   41  H   UNL     1       8.235   7.019   3.066  1.00  0.00     0.210 HD
ENDBRANCH  20  40
TORSDOF 7
