REMARK  6 active torsions:
REMARK  status: ('A' for Active; 'I' for Inactive)
REMARK    1  A    between atoms: C_1  and  C_2 
REMARK    2  A    between atoms: C_1  and  C_7 
REMARK    3  A    between atoms: C_2  and  C_3 
REMARK    4  A    between atoms: C_2  and  O_6 
REMARK    5  A    between atoms: C_3  and  O_5 
REMARK    6  A    between atoms: C_7  and  O_9 
ROOT
HETATM    1  C   UNL     1       0.649   0.641   1.143  1.00  0.00     0.225 C 
ENDROOT
BRANCH   1   2
HETATM    2  C   UNL     1       1.153   0.016  -0.151  1.00  0.00     0.152 C 
BRANCH   2   3
HETATM    3  C   UNL     1       2.651  -0.015  -0.191  1.00  0.00     0.142 C 
HETATM    4  O   UNL     1       3.363   0.407   0.711  1.00  0.00    -0.650 OA
BRANCH   3   5
HETATM    5  O   UNL     1       3.146  -0.520  -1.337  1.00  0.00    -0.776 OA
HETATM    6  H   UNL     1       2.469  -0.802  -1.984  1.00  0.00     0.167 HD
ENDBRANCH   3   5
ENDBRANCH   2   3
ENDBRANCH   1   2
BRANCH   1   7
HETATM    7  C   UNL     1       0.884   2.154   1.192  1.00  0.00     0.170 C 
HETATM    8  O   UNL     1      -0.038   2.953   1.085  1.00  0.00    -0.648 OA
BRANCH   7   9
HETATM    9  O   UNL     1       2.157   2.550   1.383  1.00  0.00    -0.775 OA
HETATM   10  H   UNL     1       2.827   1.821   1.428  1.00  0.00     0.167 HD
ENDBRANCH   7   9
ENDBRANCH   1   7
BRANCH   1  11
HETATM   11  O   UNL     1      -0.763   0.379   1.200  1.00  0.00    -0.384 OA
HETATM   12  H   UNL     1      -1.213   1.242   1.065  1.00  0.00     0.210 HD
ENDBRANCH   1  11
TORSDOF 6
