REMARK  12 active torsions:
REMARK  status: ('A' for Active; 'I' for Inactive)
REMARK    1  A    between atoms: C_1  and  C_2 
REMARK    2  A    between atoms: C_1  and  O_23 
REMARK    3  A    between atoms: C_3  and  O_22 
REMARK    4  A    between atoms: C_4  and  O_21 
REMARK    5  A    between atoms: C_5  and  O_20 
REMARK    6  A    between atoms: C_6  and  O_8 
REMARK    7  A    between atoms: O_8  and  C_9 
REMARK    8  A    between atoms: C_10  and  C_18 
REMARK    9  A    between atoms: C_12  and  O_17 
REMARK   10  A    between atoms: C_13  and  O_16 
REMARK   11  A    between atoms: C_14  and  O_15 
REMARK   12  A    between atoms: C_18  and  O_19 
ROOT
HETATM    1  O   UNL     1      -2.932  -0.351   0.248  1.00  0.00    -0.348 OA
ENDROOT
BRANCH   1   2
HETATM    2  C   UNL     1      -1.598  -0.885   0.383  1.00  0.00     0.292 C 
HETATM    3  C   UNL     1      -1.106  -0.628   1.819  1.00  0.00     0.204 C 
HETATM    4  C   UNL     1       0.329  -1.157   1.943  1.00  0.00     0.183 C 
HETATM    5  C   UNL     1       1.253  -0.496   0.901  1.00  0.00     0.180 C 
HETATM    6  C   UNL     1       0.653  -0.628  -0.511  1.00  0.00     0.179 C 
HETATM    7  O   UNL     1      -0.730  -0.233  -0.535  1.00  0.00    -0.348 OA
BRANCH   3   8
HETATM    8  O   UNL     1      -1.105   0.792   2.097  1.00  0.00    -0.388 OA
HETATM    9  H   UNL     1      -1.906   1.144   1.656  1.00  0.00     0.210 HD
ENDBRANCH   3   8
BRANCH   4  10
HETATM   10  O   UNL     1       0.820  -0.926   3.265  1.00  0.00    -0.390 OA
HETATM   11  H   UNL     1       0.767   0.041   3.401  1.00  0.00     0.210 HD
ENDBRANCH   4  10
BRANCH   5  12
HETATM   12  O   UNL     1       1.429   0.896   1.218  1.00  0.00    -0.390 OA
HETATM   13  H   UNL     1       0.540   1.268   1.400  1.00  0.00     0.210 HD
ENDBRANCH   5  12
BRANCH   6  14
HETATM   14  C   UNL     1       0.831  -2.031  -1.108  1.00  0.00     0.198 C 
BRANCH  14  15
HETATM   15  O   UNL     1       0.204  -2.124  -2.387  1.00  0.00    -0.398 OA
HETATM   16  H   UNL     1      -0.753  -2.006  -2.249  1.00  0.00     0.209 HD
ENDBRANCH  14  15
ENDBRANCH   6  14
ENDBRANCH   1   2
BRANCH   1  17
HETATM   17  C   UNL     1      -3.551  -0.750  -1.007  1.00  0.00     0.187 C 
HETATM   18  C   UNL     1      -3.129   0.167  -2.177  1.00  0.00     0.180 C 
HETATM   19  O   UNL     1      -3.612   1.497  -2.018  1.00  0.00    -0.349 OA
HETATM   20  C   UNL     1      -5.006   1.651  -1.832  1.00  0.00     0.288 C 
HETATM   21  C   UNL     1      -5.601   0.745  -0.731  1.00  0.00     0.204 C 
HETATM   22  C   UNL     1      -5.079  -0.696  -0.843  1.00  0.00     0.183 C 
BRANCH  18  23
HETATM   23  C   UNL     1      -3.436  -0.463  -3.541  1.00  0.00     0.198 C 
BRANCH  23  24
HETATM   24  O   UNL     1      -2.714  -1.690  -3.663  1.00  0.00    -0.398 OA
HETATM   25  H   UNL     1      -1.872  -1.489  -4.116  1.00  0.00     0.209 HD
ENDBRANCH  23  24
ENDBRANCH  18  23
BRANCH  20  26
HETATM   26  O   UNL     1      -5.695   1.509  -3.068  1.00  0.00    -0.369 OA
HETATM   27  H   UNL     1      -6.209   0.685  -3.036  1.00  0.00     0.212 HD
ENDBRANCH  20  26
BRANCH  21  28
HETATM   28  O   UNL     1      -7.039   0.730  -0.837  1.00  0.00    -0.388 OA
HETATM   29  H   UNL     1      -7.327   1.561  -1.260  1.00  0.00     0.210 HD
ENDBRANCH  21  28
BRANCH  22  30
HETATM   30  O   UNL     1      -5.462  -1.483   0.296  1.00  0.00    -0.390 OA
HETATM   31  H   UNL     1      -4.997  -1.110   1.066  1.00  0.00     0.210 HD
ENDBRANCH  22  30
ENDBRANCH   1  17
TORSDOF 12
