REMARK  4 active torsions:
REMARK  status: ('A' for Active; 'I' for Inactive)
REMARK    1  A    between atoms: C_4  and  C_7 
REMARK    2  A    between atoms: C_7  and  C_8 
REMARK    3  A    between atoms: C_7  and  O_11 
REMARK    4  A    between atoms: C_8  and  O_10 
ROOT
HETATM    1  C   UNL     1      -2.800   0.531  -0.209  1.00  0.00     0.248 C 
ENDROOT
BRANCH   1   2
HETATM    2  C   UNL     1      -1.310   0.259  -0.074  1.00  0.00    -0.019 A 
HETATM    3  C   UNL     1      -0.814  -1.056  -0.106  1.00  0.00     0.010 A 
HETATM    4  C   UNL     1       0.559  -1.309  -0.025  1.00  0.00     0.001 A 
HETATM    5  C   UNL     1       1.460  -0.254   0.086  1.00  0.00     0.000 A 
HETATM    6  C   UNL     1       0.990   1.055   0.124  1.00  0.00     0.001 A 
HETATM    7  C   UNL     1      -0.382   1.308   0.043  1.00  0.00     0.010 A 
ENDBRANCH   1   2
BRANCH   1   8
HETATM    8  C   UNL     1      -3.646  -0.141   0.885  1.00  0.00     0.174 C 
HETATM    9  O   UNL     1      -3.957   0.424   1.929  1.00  0.00    -0.648 OA
BRANCH   8  10
HETATM   10  O   UNL     1      -4.063  -1.395   0.593  1.00  0.00    -0.774 OA
HETATM   11  H   UNL     1      -3.822  -1.701  -0.302  1.00  0.00     0.167 HD
ENDBRANCH   8  10
ENDBRANCH   1   8
BRANCH   1  12
HETATM   12  O   UNL     1      -3.070   1.937  -0.198  1.00  0.00    -0.380 OA
HETATM   13  H   UNL     1      -3.272   2.160   0.734  1.00  0.00     0.211 HD
ENDBRANCH   1  12
TORSDOF 4
