REMARK  6 active torsions:
REMARK  status: ('A' for Active; 'I' for Inactive)
REMARK    1  A    between atoms: C_1  and  C_2 
REMARK    2  A    between atoms: C_1  and  O_12 
REMARK    3  A    between atoms: C_3  and  O_11 
REMARK    4  A    between atoms: C_4  and  O_10 
REMARK    5  A    between atoms: C_5  and  O_9 
REMARK    6  A    between atoms: C_6  and  O_8 
ROOT
HETATM    1  C   UNL     1       0.490   1.104   0.777  1.00  0.00     0.179 C 
HETATM    2  C   UNL     1      -0.961   1.308   0.311  1.00  0.00     0.180 C 
HETATM    3  C   UNL     1      -0.993   1.833  -1.133  1.00  0.00     0.183 C 
HETATM    4  C   UNL     1      -0.153   3.114  -1.258  1.00  0.00     0.204 C 
HETATM    5  C   UNL     1       1.263   2.853  -0.702  1.00  0.00     0.288 C 
HETATM    6  O   UNL     1       1.239   2.325   0.620  1.00  0.00    -0.349 OA
ENDROOT
BRANCH   1   7
HETATM    7  C   UNL     1       1.197  -0.078   0.105  1.00  0.00     0.198 C 
BRANCH   7   8
HETATM    8  O   UNL     1       2.527  -0.197   0.600  1.00  0.00    -0.398 OA
HETATM    9  H   UNL     1       2.924   0.696   0.591  1.00  0.00     0.209 HD
ENDBRANCH   7   8
ENDBRANCH   1   7
BRANCH   2  10
HETATM   10  O   UNL     1      -1.601   2.306   1.144  1.00  0.00    -0.390 OA
HETATM   11  H   UNL     1      -1.171   2.294   2.021  1.00  0.00     0.210 HD
ENDBRANCH   2  10
BRANCH   3  12
HETATM   12  O   UNL     1      -2.338   2.091  -1.527  1.00  0.00    -0.390 OA
HETATM   13  H   UNL     1      -2.688   2.747  -0.889  1.00  0.00     0.210 HD
ENDBRANCH   3  12
BRANCH   5  14
HETATM   14  O   UNL     1       1.990   4.077  -0.663  1.00  0.00    -0.369 OA
HETATM   15  H   UNL     1       1.313   4.763  -0.467  1.00  0.00     0.212 HD
ENDBRANCH   5  14
BRANCH   4  16
HETATM   16  O   UNL     1      -0.738   4.219  -0.532  1.00  0.00    -0.388 OA
HETATM   17  H   UNL     1      -0.934   3.887   0.367  1.00  0.00     0.210 HD
ENDBRANCH   4  16
TORSDOF 6
