REMARK  0 active torsions:
REMARK  status: ('A' for Active; 'I' for Inactive)
ROOT
HETATM    1  C   UNL     1       2.730  -1.017  -1.369  1.00  0.00     0.055 C 
HETATM    2  C   UNL     1       3.701   0.083  -1.670  1.00  0.00     0.020 C 
HETATM    3  C   UNL     1       4.225   0.410  -2.867  1.00  0.00     0.054 C 
HETATM    4  C   UNL     1       3.942   1.716  -3.430  1.00  0.00     0.019 C 
HETATM    5  C   UNL     1       3.010   2.577  -2.994  1.00  0.00     0.044 C 
HETATM    6  C   UNL     1       2.855   3.787  -3.716  1.00  0.00     0.008 A 
HETATM    7  C   UNL     1       2.039   4.848  -3.565  1.00  0.00     0.101 A 
HETATM    8  N   UNL     1       2.391   5.848  -4.460  1.00  0.00    -0.364 N 
HETATM    9  C   UNL     1       3.510   5.508  -5.183  1.00  0.00     0.054 A 
HETATM   10  C   UNL     1       4.297   6.162  -6.036  1.00  0.00     0.020 A 
HETATM   11  C   UNL     1       5.447   5.394  -6.617  1.00  0.00     0.230 A 
HETATM   12  O   UNL     1       6.200   5.931  -7.425  1.00  0.00    -0.283 OA
HETATM   13  C   UNL     1       5.686   3.914  -6.197  1.00  0.00     0.234 A 
HETATM   14  O   UNL     1       6.639   3.281  -6.641  1.00  0.00    -0.283 OA
HETATM   15  C   UNL     1       4.755   3.320  -5.217  1.00  0.00     0.044 A 
HETATM   16  C   UNL     1       3.786   4.154  -4.788  1.00  0.00     0.019 A 
HETATM   17  C   UNL     1       4.792   2.005  -4.594  1.00  0.00     0.008 C 
HETATM   18  C   UNL     1       5.511   0.855  -4.712  1.00  0.00     0.101 C 
HETATM   19  N   UNL     1       5.081  -0.145  -3.803  1.00  0.00    -0.364 N 
HETATM   20  C   UNL     1       4.098   7.592  -6.416  1.00  0.00     0.055 C 
HETATM   21  C   UNL     1       2.425   2.246  -1.695  1.00  0.00     0.234 C 
HETATM   22  O   UNL     1       1.363   2.649  -1.262  1.00  0.00    -0.283 OA
HETATM   23  C   UNL     1       3.335   1.315  -0.911  1.00  0.00     0.230 C 
HETATM   24  O   UNL     1       3.856   1.638   0.142  1.00  0.00    -0.283 OA
HETATM   25  H   UNL     1       2.073   6.799  -4.336  1.00  0.00     0.165 HD
HETATM   26  H   UNL     1       5.778  -0.812  -3.484  1.00  0.00     0.165 HD
ENDROOT
TORSDOF 0
