REMARK  9 active torsions:
REMARK  status: ('A' for Active; 'I' for Inactive)
REMARK    1  A    between atoms: C_2  and  C_4 
REMARK    2  A    between atoms: C_4  and  O_6 
REMARK    3  A    between atoms: C_9  and  C_11 
REMARK    4  A    between atoms: C_11  and  O_13 
REMARK    5  A    between atoms: O_13  and  C_14 
REMARK    6  A    between atoms: C_14  and  C_15 
REMARK    7  A    between atoms: C_15  and  O_16 
REMARK    8  A    between atoms: O_16  and  C_17 
REMARK    9  A    between atoms: C_17  and  C_19 
ROOT
HETATM    1  C   UNL     1       4.190  -0.084   0.735  1.00  0.00     0.287 C 
HETATM    2  O   UNL     1       5.301  -0.050   1.241  1.00  0.00    -0.260 OA
ENDROOT
BRANCH   1   3
HETATM    3  C   UNL     1       3.701   0.890  -0.282  1.00  0.00     0.004 C 
HETATM    4  C   UNL     1       2.243   0.932  -0.619  1.00  0.00     0.054 C 
HETATM    5  C   UNL     1       4.584   1.771  -0.781  1.00  0.00     0.024 C 
ENDBRANCH   1   3
BRANCH   1   6
HETATM    6  O   UNL     1       3.180  -0.918   1.089  1.00  0.00    -0.323 OA
HETATM    7  C   UNL     1       3.346  -1.534   2.365  1.00  0.00     0.213 C 
ENDBRANCH   1   6
TORSDOF 9
