REMARK  6 active torsions:
REMARK  status: ('A' for Active; 'I' for Inactive)
REMARK    1  A    between atoms: SD_2  and  CG_3 
REMARK    2  A    between atoms: CG_3  and  CB_4 
REMARK    3  A    between atoms: CB_4  and  CA_5 
REMARK    4  A    between atoms: CA_5  and  C_6 
REMARK    5  A    between atoms: CA_5  and  N_9 
REMARK    6  A    between atoms: C_6  and  OXT_8 
ROOT
ATOM      1  CA  MET A   1       5.440   2.560   1.758  1.00  0.00     0.315 C 
ENDROOT
BRANCH   1   2
ATOM      2  CB  MET A   1       4.928   1.337   0.982  1.00  0.00     0.056 C 
BRANCH   2   3
ATOM      3  CG  MET A   1       3.406   1.233   0.845  1.00  0.00     0.076 C 
BRANCH   3   4
ATOM      4  SD  MET A   1       2.693   2.707   0.044  1.00  0.00    -0.173 SA
ATOM      5  CE  MET A   1       0.954   2.208   0.041  1.00  0.00     0.089 C 
ENDBRANCH   3   4
ENDBRANCH   2   3
ENDBRANCH   1   2
BRANCH   1   6
ATOM      6  C   MET A   1       4.880   2.575   3.192  1.00  0.00     0.173 C 
ATOM      7  O   MET A   1       5.421   2.032   4.148  1.00  0.00    -0.648 OA
BRANCH   6   8
ATOM      8  OXT MET A   1       3.707   3.242   3.308  1.00  0.00    -0.775 OA
ATOM      9  HXT MET A   1       3.385   3.625   2.463  1.00  0.00     0.167 HD
ENDBRANCH   6   8
ENDBRANCH   1   6
BRANCH   1  10
ATOM     10  N   MET A   1       6.920   2.518   1.803  1.00  0.00     0.093 N 
ATOM     11  H1  MET A   1       7.195   1.689   2.339  1.00  0.00     0.314 HD
ATOM     12  H2  MET A   1       7.249   3.298   2.376  1.00  0.00     0.314 HD
ENDBRANCH   1  10
TORSDOF 6
