REMARK  0 active torsions:
REMARK  status: ('A' for Active; 'I' for Inactive)
ROOT
HETATM    1  C   UNL     1       0.952   0.153   0.042  1.00  0.00     0.168 C 
HETATM    2  N   UNL     1       2.391   0.073   0.042  1.00  0.00    -0.288 N 
HETATM    3  C   UNL     1       3.241   1.161   0.038  1.00  0.00     0.255 A 
HETATM    4  O   UNL     1       2.942   2.344   0.038  1.00  0.00    -0.267 OA
HETATM    5  C   UNL     1       4.646   0.701   0.033  1.00  0.00     0.108 A 
HETATM    6  C   UNL     1       4.706  -0.631   0.033  1.00  0.00     0.096 A 
HETATM    7  S   UNL     1       3.178  -1.432   0.039  1.00  0.00     0.003 SA
HETATM    8 CL   UNL     1       6.170  -1.510   0.027  1.00  0.00    -0.075 Cl
ENDROOT
TORSDOF 0
