REMARK WARNING: 32 MAX_TORS EXCEEDED!!!
REMARK  42 active torsions:
REMARK  status: ('A' for Active; 'I' for Inactive)
REMARK    1  A    between atoms: C_2  and  C_3 
REMARK    2  A    between atoms: C_3  and  C_4 
REMARK    3  A    between atoms: C_4  and  C_5 
REMARK    4  A    between atoms: C_5  and  C_6 
REMARK    5  A    between atoms: C_7  and  C_8 
REMARK    6  A    between atoms: C_8  and  C_9 
REMARK    7  A    between atoms: C_10  and  C_11 
REMARK    8  A    between atoms: C_11  and  C_12 
REMARK    9  A    between atoms: C_13  and  C_14 
REMARK   10  A    between atoms: C_14  and  C_15 
REMARK   11  A    between atoms: C_16  and  C_17 
REMARK   12  A    between atoms: C_17  and  C_18 
REMARK   13  A    between atoms: C_19  and  C_20 
REMARK   14  A    between atoms: C_20  and  C_21 
REMARK   15  A    between atoms: C_21  and  C_22 
REMARK   16  A    between atoms: C_22  and  C_23 
REMARK   17  A    between atoms: C_23  and  C_24 
REMARK   18  A    between atoms: C_24  and  C_25 
REMARK   19  A    between atoms: C_25  and  C_26 
REMARK   20  A    between atoms: C_26  and  C_27 
REMARK   21  A    between atoms: C_27  and  C_28 
REMARK   22  A    between atoms: C_28  and  C_29 
REMARK   23  A    between atoms: C_29  and  C_30 
REMARK   24  A    between atoms: C_30  and  C_31 
REMARK   25  A    between atoms: C_31  and  C_32 
REMARK   26  A    between atoms: C_32  and  C_33 
REMARK   27  A    between atoms: C_33  and  C_34 
REMARK   28  A    between atoms: C_34  and  S_36 
REMARK   29  A    between atoms: C_45  and  C_47 
REMARK   30  A    between atoms: C_47  and  C_48 
REMARK   31  A    between atoms: C_47  and  O_87 
REMARK   32  A    between atoms: C_48  and  C_51 
REMARK   33  A    between atoms: C_51  and  O_52 
REMARK   34  A    between atoms: O_52  and  P_53 
REMARK   35  A    between atoms: P_57  and  O_60 
REMARK   36  A    between atoms: O_60  and  C_61 
REMARK   37  A    between atoms: C_61  and  C_62 
REMARK   38  A    between atoms: C_63  and  O_82 
REMARK   39  A    between atoms: C_64  and  O_81 
REMARK   40  A    between atoms: C_65  and  N_67 
REMARK   41  A    between atoms: C_73  and  N_80 
REMARK   42  A    between atoms: O_82  and  P_83 
ROOT
HETATM    1  S   UNL     1      35.929 -12.118  20.981  1.00  0.00    -0.071 SA
HETATM    2  C   UNL     1      35.198 -10.867  22.186  1.00  0.00     0.095 C 
HETATM    3  C   UNL     1      33.797 -11.194  22.825  1.00  0.00     0.105 C 
HETATM    4  N   UNL     1      33.564 -12.591  23.167  1.00  0.00    -0.262 NA
HETATM    5  C   UNL     1      34.900 -13.091  23.906  1.00  0.00     0.198 C 
HETATM    6  O   UNL     1      35.636 -12.346  24.550  1.00  0.00    -0.280 OA
HETATM    7  C   UNL     1      35.105 -14.578  23.786  1.00  0.00     0.111 C 
HETATM    8  C   UNL     1      33.919 -15.071  22.973  1.00  0.00     0.104 C 
HETATM    9  N   UNL     1      33.618 -14.227  21.760  1.00  0.00    -0.259 NA
HETATM   10  C   UNL     1      34.789 -13.505  21.163  1.00  0.00     0.205 C 
HETATM   11  O   UNL     1      35.772 -14.226  21.555  1.00  0.00    -0.275 OA
HETATM   12  H   UNL     1      32.721 -12.764  23.706  1.00  0.00     0.130 HD
HETATM   13  H   UNL     1      33.060 -14.681  21.059  1.00  0.00     0.130 HD
ENDROOT
BRANCH  10  14
HETATM   14  C   UNL     1      34.206 -13.558  19.655  1.00  0.00     0.215 C 
BRANCH  14  15
HETATM   15  C   UNL     1      34.598 -14.571  18.627  1.00  0.00     0.009 C 
HETATM   16  C   UNL     1      33.644 -15.759  18.698  1.00  0.00     0.020 C 
HETATM   17  C   UNL     1      34.522 -13.965  17.174  1.00  0.00     0.020 C 
BRANCH  15  18
HETATM   18  C   UNL     1      36.186 -14.795  18.985  1.00  0.00     0.192 C 
BRANCH  18  19
HETATM   19  O   UNL     1      36.341 -15.867  18.067  1.00  0.00    -0.290 OA
BRANCH  19  20
HETATM   20  P   UNL     1      37.873 -16.629  18.324  1.00  0.00     0.513 P 
HETATM   21  O   UNL     1      37.221 -17.596  19.344  1.00  0.00    -0.224 OA
HETATM   22  O   UNL     1      37.942 -17.056  16.649  1.00  0.00    -0.116 OA
HETATM   23  O   UNL     1      39.026 -17.087  16.126  1.00  0.00    -0.116 OA
HETATM   24  P   UNL     1      40.173 -17.671  17.057  1.00  0.00     0.513 P 
HETATM   25  O   UNL     1      39.405 -17.391  18.582  1.00  0.00    -0.183 OA
HETATM   26  O   UNL     1      39.496 -19.060  16.971  1.00  0.00    -0.224 OA
BRANCH  24  27
HETATM   27  O   UNL     1      40.941 -17.950  15.532  1.00  0.00    -0.288 OA
BRANCH  27  28
HETATM   28  C   UNL     1      41.036 -16.703  14.794  1.00  0.00     0.215 C 
BRANCH  28  29
HETATM   29  C   UNL     1      41.722 -16.973  13.482  1.00  0.00     0.180 C 
HETATM   30  C   UNL     1      43.128 -17.545  13.754  1.00  0.00     0.199 C 
HETATM   31  C   UNL     1      44.058 -16.956  12.679  1.00  0.00     0.199 C 
HETATM   32  C   UNL     1      43.203 -16.066  11.869  1.00  0.00     0.254 C 
HETATM   33  O   UNL     1      41.986 -15.663  12.701  1.00  0.00    -0.354 OA
BRANCH  30  34
HETATM   34  O   UNL     1      43.108 -18.962  13.661  1.00  0.00    -0.272 OA
BRANCH  34  35
HETATM   35  P   UNL     1      44.692 -19.584  13.969  1.00  0.00     0.422 P 
HETATM   36  O   UNL     1      44.143 -20.387  15.173  1.00  0.00    -0.617 OA
HETATM   37  O   UNL     1      44.516 -20.342  12.594  1.00  0.00    -0.617 OA
HETATM   38  O   UNL     1      46.277 -20.205  14.277  1.00  0.00    -0.617 OA
ENDBRANCH  34  35
ENDBRANCH  30  34
BRANCH  31  39
HETATM   39  O   UNL     1      44.819 -17.820  11.865  1.00  0.00    -0.388 OA
HETATM   40  H   UNL     1      44.235 -18.574  11.672  1.00  0.00     0.210 HD
ENDBRANCH  31  39
BRANCH  32  41
HETATM   41  N   UNL     1      42.722 -16.770  10.598  1.00  0.00    -0.339 N 
HETATM   42  C   UNL     1      41.858 -18.098  10.956  1.00  0.00     0.357 C 
HETATM   43  N   UNL     1      41.929 -18.257   9.230  1.00  0.00    -0.045 N 
HETATM   44  C   UNL     1      41.296 -16.258   8.713  1.00  0.00     0.290 C 
ATOM     45  HN2 UNL     1      42.816 -18.571   8.836  1.00  0.00     0.280 HD
ATOM     46  HN1 UNL     1      41.397 -19.025   8.820  1.00  0.00     0.280 HD
HETATM   47  C   UNL     1      41.781 -16.807   7.019  1.00  0.00     0.090 C 
HETATM   48  C   UNL     1      42.697 -16.196   9.385  1.00  0.00     0.221 C 
HETATM   49  N   UNL     1      42.398 -15.614   6.705  1.00  0.00    -0.345 N 
HETATM   50  C   UNL     1      42.899 -14.685   7.561  1.00  0.00     0.178 C 
ATOM     51  HN  UNL     1      42.489 -15.404   5.711  1.00  0.00     0.167 HD
HETATM   52  N   UNL     1      42.966 -14.886   8.914  1.00  0.00    -0.363 N 
ATOM     53  HN  UNL     1      43.199 -14.127   9.554  1.00  0.00     0.162 HD
BRANCH  47  54
HETATM   54  N   UNL     1      42.405 -18.247   5.923  1.00  0.00    -0.290 NA
HETATM   55  H   UNL     1      41.901 -18.906   6.540  1.00  0.00     0.125 HD
HETATM   56  H   UNL     1      41.875 -17.904   5.124  1.00  0.00     0.125 HD
ENDBRANCH  47  54
ENDBRANCH  32  41
ENDBRANCH  28  29
ENDBRANCH  27  28
ENDBRANCH  24  27
ENDBRANCH  19  20
ENDBRANCH  18  19
ENDBRANCH  15  18
ENDBRANCH  14  15
BRANCH  14  57
HETATM   57  O   UNL     1      33.422 -12.339  19.594  1.00  0.00    -0.385 OA
HETATM   58  H   UNL     1      32.842 -12.438  20.376  1.00  0.00     0.210 HD
ENDBRANCH  14  57
ENDBRANCH  10  14
BRANCH   1  59
HETATM   59  C   UNL     1      35.030 -11.524  19.527  1.00  0.00     0.184 C 
HETATM   60  O   UNL     1      35.656 -10.944  18.586  1.00  0.00    -0.286 OA
BRANCH  59  61
HETATM   61  C   UNL     1      33.786 -10.308  19.570  1.00  0.00     0.090 C 
BRANCH  61  62
HETATM   62  C   UNL     1      33.037 -10.282  18.152  1.00  0.00     0.008 C 
BRANCH  62  63
HETATM   63  C   UNL     1      31.509 -10.606  18.116  1.00  0.00     0.000 C 
BRANCH  63  64
HETATM   64  C   UNL     1      30.686 -10.051  19.277  1.00  0.00     0.000 C 
BRANCH  64  65
HETATM   65  C   UNL     1      31.007  -8.579  19.416  1.00  0.00     0.000 C 
BRANCH  65  66
HETATM   66  C   UNL     1      30.656  -7.930  20.735  1.00  0.00     0.000 C 
BRANCH  66  67
HETATM   67  C   UNL     1      31.266  -6.514  20.747  1.00  0.00     0.000 C 
BRANCH  67  68
HETATM   68  C   UNL     1      30.859  -5.756  19.493  1.00  0.00     0.000 C 
BRANCH  68  69
HETATM   69  C   UNL     1      31.384  -4.342  19.469  1.00  0.00     0.000 C 
BRANCH  69  70
HETATM   70  C   UNL     1      30.933  -3.716  18.159  1.00  0.00     0.000 C 
BRANCH  70  71
HETATM   71  C   UNL     1      31.435  -2.294  18.069  1.00  0.00     0.000 C 
BRANCH  71  72
HETATM   72  C   UNL     1      30.923  -1.659  16.792  1.00  0.00     0.000 C 
BRANCH  72  73
HETATM   73  C   UNL     1      31.426  -0.231  16.727  1.00  0.00     0.004 C 
BRANCH  73  74
HETATM   74  C   UNL     1      30.895   0.442  15.482  1.00  0.00     0.027 C 
BRANCH  74  75
HETATM   75  C   UNL     1      31.454   1.819  15.445  1.00  0.00    -0.030 C 
HETATM   76  C   UNL     1      32.251   2.235  14.425  1.00  0.00    -0.027 C 
BRANCH  76  77
HETATM   77  C   UNL     1      32.766   3.665  14.398  1.00  0.00     0.053 C 
BRANCH  77  78
HETATM   78  C   UNL     1      34.286   3.658  14.418  1.00  0.00    -0.027 C 
HETATM   79  C   UNL     1      34.982   4.219  13.393  1.00  0.00    -0.027 C 
BRANCH  79  80
HETATM   80  C   UNL     1      36.502   4.212  13.413  1.00  0.00     0.053 C 
BRANCH  80  81
HETATM   81  C   UNL     1      37.021   3.464  12.196  1.00  0.00    -0.027 C 
HETATM   82  C   UNL     1      37.818   4.100  11.295  1.00  0.00    -0.027 C 
BRANCH  82  83
HETATM   83  C   UNL     1      38.337   3.351  10.078  1.00  0.00     0.053 C 
BRANCH  83  84
HETATM   84  C   UNL     1      37.850   4.041   8.814  1.00  0.00    -0.027 C 
HETATM   85  C   UNL     1      38.749   4.532   7.918  1.00  0.00    -0.027 C 
BRANCH  85  86
HETATM   86  C   UNL     1      38.262   5.222   6.654  1.00  0.00     0.053 C 
BRANCH  86  87
HETATM   87  C   UNL     1      38.776   6.652   6.627  1.00  0.00    -0.027 C 
HETATM   88  C   UNL     1      39.574   7.069   5.607  1.00  0.00    -0.030 C 
BRANCH  88  89
HETATM   89  C   UNL     1      40.088   8.499   5.580  1.00  0.00     0.027 C 
BRANCH  89  90
HETATM   90  C   UNL     1      39.608   9.213   4.316  1.00  0.00     0.004 C 
BRANCH  90  91
HETATM   91  C   UNL     1      40.116  10.654   4.267  1.00  0.00    -0.000 C 
BRANCH  91  92
HETATM   92  C   UNL     1      39.641  11.366   3.002  1.00  0.00    -0.005 C 
HETATM   93  C   UNL     1      40.145  12.799   2.953  1.00  0.00     0.005 C 
ENDBRANCH  91  92
ENDBRANCH  90  91
ENDBRANCH  89  90
ENDBRANCH  88  89
ENDBRANCH  86  87
ENDBRANCH  85  86
ENDBRANCH  83  84
ENDBRANCH  82  83
ENDBRANCH  80  81
ENDBRANCH  79  80
ENDBRANCH  77  78
ENDBRANCH  76  77
ENDBRANCH  74  75
ENDBRANCH  73  74
ENDBRANCH  72  73
ENDBRANCH  71  72
ENDBRANCH  70  71
ENDBRANCH  69  70
ENDBRANCH  68  69
ENDBRANCH  67  68
ENDBRANCH  66  67
ENDBRANCH  65  66
ENDBRANCH  64  65
ENDBRANCH  63  64
ENDBRANCH  62  63
ENDBRANCH  61  62
ENDBRANCH  59  61
ENDBRANCH   1  59
TORSDOF 42
