REMARK  24 active torsions:
REMARK  status: ('A' for Active; 'I' for Inactive)
REMARK    1  A    between atoms: C_2  and  C_3 
REMARK    2  A    between atoms: C_3  and  C_4 
REMARK    3  A    between atoms: C_4  and  C_5 
REMARK    4  A    between atoms: C_5  and  C_6 
REMARK    5  A    between atoms: C_6  and  C_7 
REMARK    6  A    between atoms: C_7  and  C_8 
REMARK    7  A    between atoms: C_8  and  C_9 
REMARK    8  A    between atoms: C_9  and  C_10 
REMARK    9  A    between atoms: C_10  and  C_11 
REMARK   10  A    between atoms: C_11  and  C_12 
REMARK   11  A    between atoms: C_12  and  C_13 
REMARK   12  A    between atoms: C_13  and  C_14 
REMARK   13  A    between atoms: C_14  and  O_15 
REMARK   14  A    between atoms: O_15  and  C_16 
REMARK   15  A    between atoms: C_16  and  C_18 
REMARK   16  A    between atoms: C_18  and  C_19 
REMARK   17  A    between atoms: C_19  and  C_20 
REMARK   18  A    between atoms: C_20  and  C_21 
REMARK   19  A    between atoms: C_21  and  C_22 
REMARK   20  A    between atoms: C_22  and  C_23 
REMARK   21  A    between atoms: C_23  and  C_24 
REMARK   22  A    between atoms: C_24  and  C_25 
REMARK   23  A    between atoms: C_25  and  C_26 
REMARK   24  A    between atoms: C_26  and  C_27 
ROOT
HETATM    1  C   UNL     1      14.787  -3.589   7.827  1.00  0.00     0.178 C 
ENDROOT
BRANCH   1   2
HETATM    2  C   UNL     1      13.263  -3.564   7.827  1.00  0.00     0.027 C 
BRANCH   2   3
HETATM    3  C   UNL     1      12.735  -2.985   6.523  1.00  0.00     0.002 C 
BRANCH   3   4
HETATM    4  C   UNL     1      11.213  -2.982   6.508  1.00  0.00     0.000 C 
BRANCH   4   5
HETATM    5  C   UNL     1      10.694  -2.402   5.200  1.00  0.00     0.000 C 
BRANCH   5   6
HETATM    6  C   UNL     1       9.172  -2.397   5.185  1.00  0.00     0.000 C 
BRANCH   6   7
HETATM    7  C   UNL     1       8.654  -1.815   3.877  1.00  0.00     0.000 C 
BRANCH   7   8
HETATM    8  C   UNL     1       7.132  -1.810   3.864  1.00  0.00     0.000 C 
BRANCH   8   9
HETATM    9  C   UNL     1       6.614  -1.228   2.556  1.00  0.00     0.000 C 
BRANCH   9  10
HETATM   10  C   UNL     1       5.092  -1.224   2.543  1.00  0.00     0.000 C 
BRANCH  10  11
HETATM   11  C   UNL     1       4.570  -0.643   1.234  1.00  0.00     0.000 C 
BRANCH  11  12
HETATM   12  C   UNL     1       3.047  -0.640   1.220  1.00  0.00    -0.000 C 
BRANCH  12  13
HETATM   13  C   UNL     1       2.515  -0.061  -0.086  1.00  0.00    -0.005 C 
HETATM   14  C   UNL     1       0.996  -0.060  -0.098  1.00  0.00     0.005 C 
ENDBRANCH  12  13
ENDBRANCH  11  12
ENDBRANCH  10  11
ENDBRANCH   9  10
ENDBRANCH   8   9
ENDBRANCH   7   8
ENDBRANCH   6   7
ENDBRANCH   5   6
ENDBRANCH   4   5
ENDBRANCH   3   4
ENDBRANCH   2   3
ENDBRANCH   1   2
BRANCH   1  15
HETATM   15  O   UNL     1      15.270  -4.164   9.045  1.00  0.00    -0.321 OA
BRANCH  15  16
HETATM   16  C   UNL     1      15.237  -5.523   9.087  1.00  0.00     0.258 C 
HETATM   17  O   UNL     1      14.881  -6.254   8.176  1.00  0.00    -0.265 OA
BRANCH  16  18
HETATM   18  C   UNL     1      15.707  -6.024  10.423  1.00  0.00     0.111 C 
BRANCH  18  19
HETATM   19  C   UNL     1      14.815  -5.508  11.543  1.00  0.00     0.010 C 
BRANCH  19  20
HETATM   20  C   UNL     1      15.268  -6.025  12.903  1.00  0.00     0.000 C 
BRANCH  20  21
HETATM   21  C   UNL     1      14.362  -5.480  14.002  1.00  0.00     0.000 C 
BRANCH  21  22
HETATM   22  C   UNL     1      14.798  -5.981  15.373  1.00  0.00     0.000 C 
BRANCH  22  23
HETATM   23  C   UNL     1      13.882  -5.431  16.462  1.00  0.00     0.000 C 
BRANCH  23  24
HETATM   24  C   UNL     1      14.317  -5.933  17.834  1.00  0.00     0.000 C 
BRANCH  24  25
HETATM   25  C   UNL     1      13.405  -5.387  18.927  1.00  0.00     0.000 C 
BRANCH  25  26
HETATM   26  C   UNL     1      13.846  -5.891  20.298  1.00  0.00    -0.000 C 
BRANCH  26  27
HETATM   27  C   UNL     1      12.939  -5.352  21.400  1.00  0.00    -0.005 C 
HETATM   28  C   UNL     1      13.382  -5.856  22.762  1.00  0.00     0.005 C 
ENDBRANCH  26  27
ENDBRANCH  25  26
ENDBRANCH  24  25
ENDBRANCH  23  24
ENDBRANCH  22  23
ENDBRANCH  21  22
ENDBRANCH  20  21
ENDBRANCH  19  20
ENDBRANCH  18  19
ENDBRANCH  16  18
ENDBRANCH  15  16
ENDBRANCH   1  15
TORSDOF 24
