REMARK  26 active torsions:
REMARK  status: ('A' for Active; 'I' for Inactive)
REMARK    1  A    between atoms: C_2  and  C_3 
REMARK    2  A    between atoms: C_3  and  C_4 
REMARK    3  A    between atoms: C_4  and  C_5 
REMARK    4  A    between atoms: C_5  and  C_6 
REMARK    5  A    between atoms: C_6  and  C_7 
REMARK    6  A    between atoms: C_7  and  C_8 
REMARK    7  A    between atoms: C_8  and  C_9 
REMARK    8  A    between atoms: C_9  and  C_10 
REMARK    9  A    between atoms: C_10  and  C_11 
REMARK   10  A    between atoms: C_11  and  C_12 
REMARK   11  A    between atoms: C_12  and  C_13 
REMARK   12  A    between atoms: C_13  and  C_14 
REMARK   13  A    between atoms: C_14  and  O_15 
REMARK   14  A    between atoms: O_15  and  C_16 
REMARK   15  A    between atoms: C_16  and  C_18 
REMARK   16  A    between atoms: C_18  and  C_19 
REMARK   17  A    between atoms: C_19  and  C_20 
REMARK   18  A    between atoms: C_20  and  C_21 
REMARK   19  A    between atoms: C_21  and  C_22 
REMARK   20  A    between atoms: C_22  and  C_23 
REMARK   21  A    between atoms: C_23  and  C_24 
REMARK   22  A    between atoms: C_24  and  C_25 
REMARK   23  A    between atoms: C_25  and  C_26 
REMARK   24  A    between atoms: C_26  and  C_27 
REMARK   25  A    between atoms: C_27  and  C_28 
REMARK   26  A    between atoms: C_28  and  C_29 
ROOT
HETATM    1  O   UNL     1      15.215  -7.398  -6.542  1.00  0.00    -0.321 OA
ENDROOT
BRANCH   1   2
HETATM    2  C   UNL     1      14.743  -6.331  -5.716  1.00  0.00     0.178 C 
BRANCH   2   3
HETATM    3  C   UNL     1      14.787  -4.972  -6.401  1.00  0.00     0.027 C 
BRANCH   3   4
HETATM    4  C   UNL     1      13.927  -4.960  -7.658  1.00  0.00     0.002 C 
BRANCH   4   5
HETATM    5  C   UNL     1      13.996  -3.601  -8.340  1.00  0.00     0.000 C 
BRANCH   5   6
HETATM    6  C   UNL     1      13.130  -3.590  -9.591  1.00  0.00     0.000 C 
BRANCH   6   7
HETATM    7  C   UNL     1      13.199  -2.233 -10.271  1.00  0.00     0.000 C 
BRANCH   7   8
HETATM    8  C   UNL     1      12.333  -2.220 -11.521  1.00  0.00     0.000 C 
BRANCH   8   9
HETATM    9  C   UNL     1      12.403  -0.861 -12.200  1.00  0.00     0.000 C 
BRANCH   9  10
HETATM   10  C   UNL     1      11.536  -0.849 -13.450  1.00  0.00     0.000 C 
BRANCH  10  11
HETATM   11  C   UNL     1      11.608   0.510 -14.130  1.00  0.00     0.000 C 
BRANCH  11  12
HETATM   12  C   UNL     1      10.742   0.524 -15.383  1.00  0.00     0.000 C 
BRANCH  12  13
HETATM   13  C   UNL     1      10.814   1.884 -16.064  1.00  0.00    -0.000 C 
BRANCH  13  14
HETATM   14  C   UNL     1       9.951   1.909 -17.320  1.00  0.00    -0.005 C 
HETATM   15  C   UNL     1      10.025   3.264 -17.998  1.00  0.00     0.005 C 
ENDBRANCH  13  14
ENDBRANCH  12  13
ENDBRANCH  11  12
ENDBRANCH  10  11
ENDBRANCH   9  10
ENDBRANCH   8   9
ENDBRANCH   7   8
ENDBRANCH   6   7
ENDBRANCH   5   6
ENDBRANCH   4   5
ENDBRANCH   3   4
ENDBRANCH   2   3
ENDBRANCH   1   2
BRANCH   1  16
HETATM   16  C   UNL     1      16.568  -7.447  -6.687  1.00  0.00     0.258 C 
HETATM   17  O   UNL     1      17.345  -6.525  -6.453  1.00  0.00    -0.265 OA
BRANCH  16  18
HETATM   18  C   UNL     1      17.009  -8.835  -7.031  1.00  0.00     0.111 C 
BRANCH  18  19
HETATM   19  C   UNL     1      17.878  -9.358  -5.892  1.00  0.00     0.010 C 
BRANCH  19  20
HETATM   20  C   UNL     1      18.366 -10.775  -6.163  1.00  0.00     0.000 C 
BRANCH  20  21
HETATM   21  C   UNL     1      19.233 -11.266  -5.006  1.00  0.00     0.000 C 
BRANCH  21  22
HETATM   22  C   UNL     1      19.733 -12.681  -5.262  1.00  0.00     0.000 C 
BRANCH  22  23
HETATM   23  C   UNL     1      20.599 -13.161  -4.104  1.00  0.00     0.000 C 
BRANCH  23  24
HETATM   24  C   UNL     1      21.094 -14.577  -4.363  1.00  0.00     0.000 C 
BRANCH  24  25
HETATM   25  C   UNL     1      21.958 -15.060  -3.208  1.00  0.00     0.000 C 
BRANCH  25  26
HETATM   26  C   UNL     1      22.452 -16.476  -3.470  1.00  0.00     0.000 C 
BRANCH  26  27
HETATM   27  C   UNL     1      23.317 -16.964  -2.315  1.00  0.00     0.000 C 
BRANCH  27  28
HETATM   28  C   UNL     1      23.809 -18.381  -2.578  1.00  0.00    -0.000 C 
BRANCH  28  29
HETATM   29  C   UNL     1      24.674 -18.879  -1.426  1.00  0.00    -0.005 C 
HETATM   30  C   UNL     1      25.163 -20.291  -1.690  1.00  0.00     0.005 C 
ENDBRANCH  28  29
ENDBRANCH  27  28
ENDBRANCH  26  27
ENDBRANCH  25  26
ENDBRANCH  24  25
ENDBRANCH  23  24
ENDBRANCH  22  23
ENDBRANCH  21  22
ENDBRANCH  20  21
ENDBRANCH  19  20
ENDBRANCH  18  19
ENDBRANCH  16  18
ENDBRANCH   1  16
TORSDOF 26
