REMARK  1 active torsions:
REMARK  status: ('A' for Active; 'I' for Inactive)
REMARK    1  A    between atoms: N_5  and  O_8 
ROOT
HETATM    1  C   UNL     1      -0.790  -0.990  -0.102  1.00  0.00     0.115 C 
HETATM    2  C   UNL     1       0.730  -1.007   0.019  1.00  0.00     0.115 C 
HETATM    3  C   UNL     1       1.124   0.427  -0.166  1.00  0.00     0.251 C 
HETATM    4  O   UNL     1       2.263   0.844  -0.316  1.00  0.00    -0.271 OA
HETATM    5  N   UNL     1      -0.005   1.175  -0.112  1.00  0.00    -0.157 N 
HETATM    6  C   UNL     1      -1.162   0.467  -0.054  1.00  0.00     0.251 C 
HETATM    7  O   UNL     1      -2.310   0.878  -0.016  1.00  0.00    -0.271 OA
ENDROOT
BRANCH   5   8
HETATM    8  O   UNL     1       0.029   2.563  -0.215  1.00  0.00    -0.277 OA
HETATM    9  H   UNL     1       0.963   2.730  -0.453  1.00  0.00     0.245 HD
ENDBRANCH   5   8
TORSDOF 1
