REMARK  4 active torsions:
REMARK  status: ('A' for Active; 'I' for Inactive)
REMARK    1  A    between atoms: C_2  and  C_14 
REMARK    2  A    between atoms: C_6  and  O_13 
REMARK    3  A    between atoms: C_8  and  O_12 
REMARK    4  A    between atoms: C_17  and  O_20 
ROOT
HETATM    1  C   UNL     1       2.695  -0.735   0.391  1.00  0.00     0.121 C 
HETATM    2  C   UNL     1       2.059  -1.829  -0.454  1.00  0.00     0.169 C 
HETATM    3  O   UNL     1       0.732  -2.108   0.025  1.00  0.00    -0.340 OA
HETATM    4  C   UNL     1      -0.080  -1.004   0.105  1.00  0.00     0.089 A 
HETATM    5  C   UNL     1      -1.453  -1.270   0.097  1.00  0.00     0.074 A 
HETATM    6  C   UNL     1      -2.351  -0.210   0.084  1.00  0.00     0.071 A 
HETATM    7  C   UNL     1      -1.901   1.106   0.091  1.00  0.00     0.074 A 
HETATM    8  C   UNL     1      -0.530   1.368   0.145  1.00  0.00     0.085 A 
HETATM    9  C   UNL     1       0.391   0.313   0.179  1.00  0.00     0.076 A 
HETATM   10  C   UNL     1       1.857   0.514   0.301  1.00  0.00     0.167 C 
HETATM   11  O   UNL     1       2.389   1.617   0.372  1.00  0.00    -0.292 OA
ENDROOT
BRANCH   2  12
HETATM   12  C   UNL     1       2.103  -1.658  -1.977  1.00  0.00    -0.028 A 
HETATM   13  C   UNL     1       2.728  -0.561  -2.597  1.00  0.00     0.012 A 
HETATM   14  C   UNL     1       2.799  -0.459  -3.988  1.00  0.00     0.037 A 
HETATM   15  C   UNL     1       2.242  -1.458  -4.778  1.00  0.00     0.065 A 
HETATM   16  C   UNL     1       1.611  -2.547  -4.195  1.00  0.00     0.037 A 
HETATM   17  C   UNL     1       1.537  -2.647  -2.799  1.00  0.00     0.012 A 
BRANCH  15  18
HETATM   18  O   UNL     1       2.314  -1.399  -6.139  1.00  0.00    -0.361 OA
HETATM   19  H   UNL     1       2.809  -0.602  -6.387  1.00  0.00     0.217 HD
ENDBRANCH  15  18
ENDBRANCH   2  12
BRANCH   8  20
HETATM   20  O   UNL     1      -0.112   2.667   0.150  1.00  0.00    -0.360 OA
HETATM   21  H   UNL     1      -0.861   3.259  -0.020  1.00  0.00     0.217 HD
ENDBRANCH   8  20
BRANCH   6  22
HETATM   22  O   UNL     1      -3.697  -0.417   0.045  1.00  0.00    -0.361 OA
HETATM   23  H   UNL     1      -3.871  -1.374   0.039  1.00  0.00     0.217 HD
ENDBRANCH   6  22
TORSDOF 4
