REMARK  22 active torsions:
REMARK  status: ('A' for Active; 'I' for Inactive)
REMARK    1  A    between atoms: C_2  and  C_3 
REMARK    2  A    between atoms: C_3  and  C_4 
REMARK    3  A    between atoms: C_4  and  C_5 
REMARK    4  A    between atoms: C_5  and  C_6 
REMARK    5  A    between atoms: C_6  and  C_7 
REMARK    6  A    between atoms: C_7  and  C_8 
REMARK    7  A    between atoms: C_8  and  C_9 
REMARK    8  A    between atoms: C_9  and  C_10 
REMARK    9  A    between atoms: C_10  and  O_12 
REMARK   10  A    between atoms: O_12  and  C_13 
REMARK   11  A    between atoms: C_13  and  C_14 
REMARK   12  A    between atoms: C_14  and  C_17 
REMARK   13  A    between atoms: C_17  and  O_18 
REMARK   14  A    between atoms: O_18  and  C_19 
REMARK   15  A    between atoms: C_19  and  C_21 
REMARK   16  A    between atoms: C_21  and  C_22 
REMARK   17  A    between atoms: C_22  and  C_23 
REMARK   18  A    between atoms: C_23  and  C_24 
REMARK   19  A    between atoms: C_24  and  C_25 
REMARK   20  A    between atoms: C_25  and  C_26 
REMARK   21  A    between atoms: C_26  and  C_27 
REMARK   22  A    between atoms: C_27  and  C_28 
ROOT
HETATM    1  C   UNL     1      13.310   6.494  -5.252  1.00  0.00    -0.004 C 
HETATM    2  C   UNL     1      12.799   6.277  -6.687  1.00  0.00     0.019 C 
HETATM    3  C   UNL     1      12.794   7.845  -4.724  1.00  0.00     0.019 C 
ENDROOT
BRANCH   1   4
HETATM    4  C   UNL     1      12.793   5.367  -4.335  1.00  0.00     0.189 C 
BRANCH   4   5
HETATM    5  O   UNL     1      13.241   4.077  -4.806  1.00  0.00    -0.321 OA
BRANCH   5   6
HETATM    6  C   UNL     1      13.991   3.370  -3.922  1.00  0.00     0.258 C 
HETATM    7  O   UNL     1      14.254   3.732  -2.770  1.00  0.00    -0.265 OA
BRANCH   6   8
HETATM    8  C   UNL     1      14.431   2.049  -4.485  1.00  0.00     0.111 C 
BRANCH   8   9
HETATM    9  C   UNL     1      13.927   0.904  -3.617  1.00  0.00     0.010 C 
BRANCH   9  10
HETATM   10  C   UNL     1      12.401   0.869  -3.532  1.00  0.00     0.000 C 
BRANCH  10  11
HETATM   11  C   UNL     1      11.942  -0.291  -2.655  1.00  0.00     0.000 C 
BRANCH  11  12
HETATM   12  C   UNL     1      10.422  -0.331  -2.559  1.00  0.00     0.000 C 
BRANCH  12  13
HETATM   13  C   UNL     1       9.966  -1.494  -1.684  1.00  0.00     0.000 C 
BRANCH  13  14
HETATM   14  C   UNL     1       8.444  -1.529  -1.592  1.00  0.00    -0.000 C 
BRANCH  14  15
HETATM   15  C   UNL     1       7.975  -2.688  -0.720  1.00  0.00    -0.005 C 
HETATM   16  C   UNL     1       6.459  -2.715  -0.631  1.00  0.00     0.005 C 
ENDBRANCH  14  15
ENDBRANCH  13  14
ENDBRANCH  12  13
ENDBRANCH  11  12
ENDBRANCH  10  11
ENDBRANCH   9  10
ENDBRANCH   8   9
ENDBRANCH   6   8
ENDBRANCH   5   6
ENDBRANCH   4   5
ENDBRANCH   1   4
BRANCH   1  17
HETATM   17  C   UNL     1      14.853   6.499  -5.263  1.00  0.00     0.189 C 
BRANCH  17  18
HETATM   18  O   UNL     1      15.376   6.703  -3.938  1.00  0.00    -0.321 OA
BRANCH  18  19
HETATM   19  C   UNL     1      16.176   5.698  -3.476  1.00  0.00     0.258 C 
HETATM   20  O   UNL     1      16.503   4.704  -4.109  1.00  0.00    -0.265 OA
BRANCH  19  21
HETATM   21  C   UNL     1      16.671   5.983  -2.082  1.00  0.00     0.111 C 
BRANCH  21  22
HETATM   22  C   UNL     1      18.195   6.008  -2.060  1.00  0.00     0.010 C 
BRANCH  22  23
HETATM   23  C   UNL     1      18.774   7.091  -2.971  1.00  0.00     0.000 C 
BRANCH  23  24
HETATM   24  C   UNL     1      20.298   7.080  -2.915  1.00  0.00     0.000 C 
BRANCH  24  25
HETATM   25  C   UNL     1      20.884   8.154  -3.824  1.00  0.00     0.000 C 
BRANCH  25  26
HETATM   26  C   UNL     1      22.409   8.141  -3.764  1.00  0.00     0.000 C 
BRANCH  26  27
HETATM   27  C   UNL     1      22.989   9.216  -4.676  1.00  0.00    -0.000 C 
BRANCH  27  28
HETATM   28  C   UNL     1      24.513   9.211  -4.627  1.00  0.00    -0.005 C 
HETATM   29  C   UNL     1      25.084  10.284  -5.537  1.00  0.00     0.005 C 
ENDBRANCH  27  28
ENDBRANCH  26  27
ENDBRANCH  25  26
ENDBRANCH  24  25
ENDBRANCH  23  24
ENDBRANCH  22  23
ENDBRANCH  21  22
ENDBRANCH  19  21
ENDBRANCH  18  19
ENDBRANCH  17  18
ENDBRANCH   1  17
TORSDOF 22
