REMARK  18 active torsions:
REMARK  status: ('A' for Active; 'I' for Inactive)
REMARK    1  A    between atoms: C_3  and  C_45 
REMARK    2  A    between atoms: N_5  and  C_7 
REMARK    3  A    between atoms: C_8  and  O_44 
REMARK    4  A    between atoms: C_9  and  O_43 
REMARK    5  A    between atoms: C_10  and  C_12 
REMARK    6  A    between atoms: C_12  and  O_13 
REMARK    7  A    between atoms: O_13  and  P_14 
REMARK    8  A    between atoms: P_14  and  O_16 
REMARK    9  A    between atoms: P_14  and  O_17 
REMARK   10  A    between atoms: O_17  and  P_18 
REMARK   11  A    between atoms: P_18  and  O_20 
REMARK   12  A    between atoms: P_18  and  O_21 
REMARK   13  A    between atoms: O_21  and  C_22 
REMARK   14  A    between atoms: C_22  and  C_23 
REMARK   15  A    between atoms: C_24  and  O_42 
REMARK   16  A    between atoms: C_25  and  O_41 
REMARK   17  A    between atoms: C_26  and  N_28 
REMARK   18  A    between atoms: C_33  and  N_40 
REMARK       I    between atoms: C_45  and  N_47 
ROOT
HETATM    1  P   UNL     1       8.953   3.706  -1.484  1.00  0.00     0.401 P 
HETATM    2  O   UNL     1      10.309   4.380  -1.277  1.00  0.00    -0.631 OA
ENDROOT
BRANCH   1   3
HETATM    3  O   UNL     1       9.226   2.716  -0.092  1.00  0.00    -0.195 OA
BRANCH   3   4
HETATM    4  P   UNL     1       8.169   1.347  -0.141  1.00  0.00     0.401 P 
HETATM    5  O   UNL     1       9.186   0.504  -0.907  1.00  0.00    -0.631 OA
BRANCH   4   6
HETATM    6  O   UNL     1       7.113  -0.022  -0.190  1.00  0.00    -0.294 OA
BRANCH   6   7
HETATM    7  C   UNL     1       7.416  -0.998   0.810  1.00  0.00     0.215 C 
BRANCH   7   8
HETATM    8  C   UNL     1       6.476  -2.205   0.696  1.00  0.00     0.180 C 
HETATM    9  C   UNL     1       6.474  -2.925  -0.657  1.00  0.00     0.182 C 
HETATM   10  C   UNL     1       5.273  -2.365  -1.416  1.00  0.00     0.198 C 
HETATM   11  C   UNL     1       4.585  -1.461  -0.392  1.00  0.00     0.259 C 
HETATM   12  O   UNL     1       5.098  -1.806   0.904  1.00  0.00    -0.353 OA
BRANCH   9  13
HETATM   13  O   UNL     1       7.668  -2.874  -1.415  1.00  0.00    -0.390 OA
HETATM   14  H   UNL     1       8.024  -1.963  -1.447  1.00  0.00     0.210 HD
ENDBRANCH   9  13
BRANCH  10  15
HETATM   15  O   UNL     1       5.658  -1.636  -2.580  1.00  0.00    -0.388 OA
HETATM   16  H   UNL     1       6.433  -2.107  -2.958  1.00  0.00     0.210 HD
ENDBRANCH  10  15
BRANCH  11  17
HETATM   17  N   UNL     1       3.104  -1.598  -0.443  1.00  0.00    -0.336 N 
HETATM   18  C   UNL     1       2.413  -0.698  -1.193  1.00  0.00     0.110 A 
HETATM   19  C   UNL     1       1.023  -0.672  -1.185  1.00  0.00     0.047 A 
HETATM   20  C   UNL     1       0.335  -1.649  -0.437  1.00  0.00     0.020 A 
HETATM   21  C   UNL     1       1.068  -2.591   0.280  1.00  0.00     0.018 A 
HETATM   22  C   UNL     1       2.465  -2.550   0.280  1.00  0.00     0.093 A 
BRANCH  19  23
HETATM   23  C   UNL     1       0.367   0.408  -1.948  1.00  0.00     0.250 C 
HETATM   24  O   UNL     1       1.055   1.161  -2.621  1.00  0.00    -0.268 OA
HETATM   25  N   UNL     1      -0.985   0.566  -1.865  1.00  0.00    -0.366 N 
HETATM   26  H   UNL     1      -1.621   0.028  -1.295  1.00  0.00     0.159 HD
HETATM   27  H   UNL     1      -1.389   1.347  -2.373  1.00  0.00     0.159 HD
ENDBRANCH  19  23
ENDBRANCH  11  17
ENDBRANCH   7   8
ENDBRANCH   6   7
ENDBRANCH   4   6
BRANCH   4  28
HETATM   28  O   UNL     1       7.128   2.009  -1.208  1.00  0.00    -0.307 OA
HETATM   29  H   UNL     1       7.419   1.660  -2.085  1.00  0.00     0.222 HD
ENDBRANCH   4  28
ENDBRANCH   3   4
ENDBRANCH   1   3
BRANCH   1  30
HETATM   30  O   UNL     1       9.281   2.475  -2.515  1.00  0.00    -0.307 OA
HETATM   31  H   UNL     1      10.246   2.456  -2.665  1.00  0.00     0.222 HD
ENDBRANCH   1  30
BRANCH   1  32
HETATM   32  O   UNL     1       8.680   4.695  -2.877  1.00  0.00    -0.294 OA
BRANCH  32  33
HETATM   33  C   UNL     1       7.512   4.387  -3.669  1.00  0.00     0.215 C 
BRANCH  33  34
HETATM   34  C   UNL     1       7.379   5.165  -5.014  1.00  0.00     0.180 C 
HETATM   35  C   UNL     1       8.696   5.191  -5.774  1.00  0.00     0.182 C 
HETATM   36  C   UNL     1       8.794   6.574  -6.372  1.00  0.00     0.198 C 
HETATM   37  C   UNL     1       7.680   7.397  -5.700  1.00  0.00     0.262 C 
HETATM   38  O   UNL     1       6.842   6.505  -4.938  1.00  0.00    -0.353 OA
BRANCH  35  39
HETATM   39  O   UNL     1       8.682   4.184  -6.792  1.00  0.00    -0.390 OA
HETATM   40  H   UNL     1       9.072   4.602  -7.589  1.00  0.00     0.210 HD
ENDBRANCH  35  39
BRANCH  36  41
HETATM   41  O   UNL     1       8.748   6.463  -7.805  1.00  0.00    -0.388 OA
HETATM   42  H   UNL     1       7.825   6.306  -8.085  1.00  0.00     0.210 HD
ENDBRANCH  36  41
BRANCH  37  43
HETATM   43  N   UNL     1       7.009   8.290  -6.652  1.00  0.00    -0.297 N 
HETATM   44  C   UNL     1       7.800   9.129  -7.428  1.00  0.00     0.188 C 
HETATM   45  N   UNL     1       7.123  10.052  -8.047  1.00  0.00    -0.346 N 
HETATM   46  C   UNL     1       5.857   9.882  -7.568  1.00  0.00     0.122 C 
ATOM     47  HN  UNL     1       7.458  10.736  -8.725  1.00  0.00     0.167 HD
HETATM   48  C   UNL     1       4.792  10.782  -7.613  1.00  0.00     0.131 C 
HETATM   49  C   UNL     1       5.712   8.722  -6.811  1.00  0.00     0.142 C 
HETATM   50  N   UNL     1       3.607  10.402  -7.106  1.00  0.00    -0.337 N 
HETATM   51  C   UNL     1       3.548   9.175  -6.528  1.00  0.00     0.183 C 
ATOM     52  HN  UNL     1       2.788  11.008  -7.153  1.00  0.00     0.168 HD
HETATM   53  N   UNL     1       4.553   8.286  -6.283  1.00  0.00    -0.336 N 
ATOM     54  HN  UNL     1       4.442   7.411  -5.770  1.00  0.00     0.168 HD
BRANCH  48  55
HETATM   55  N   UNL     1       5.032  12.058  -8.073  1.00  0.00    -0.383 N 
HETATM   56  H   UNL     1       5.992  12.255  -8.343  1.00  0.00     0.157 HD
HETATM   57  H   UNL     1       4.338  12.780  -8.009  1.00  0.00     0.157 HD
ENDBRANCH  48  55
ENDBRANCH  37  43
ENDBRANCH  33  34
ENDBRANCH  32  33
ENDBRANCH   1  32
TORSDOF 18
