REMARK  15 active torsions:
REMARK  status: ('A' for Active; 'I' for Inactive)
REMARK    1  A    between atoms: C_2  and  C_3 
REMARK    2  A    between atoms: C_3  and  C_4 
REMARK    3  A    between atoms: C_4  and  C_5 
REMARK    4  A    between atoms: C_5  and  C_6 
REMARK    5  A    between atoms: C_6  and  C_7 
REMARK    6  A    between atoms: C_7  and  C_8 
REMARK    7  A    between atoms: C_8  and  C_9 
REMARK    8  A    between atoms: C_9  and  C_10 
REMARK    9  A    between atoms: C_10  and  C_11 
REMARK   10  A    between atoms: C_11  and  C_12 
REMARK   11  A    between atoms: C_12  and  C_13 
REMARK   12  A    between atoms: C_13  and  C_14 
REMARK   13  A    between atoms: C_14  and  C_15 
REMARK   14  A    between atoms: C_15  and  C_16 
REMARK   15  A    between atoms: C_16  and  C_17 
ROOT
HETATM    1  C   UNL     1       9.050  -5.306  -2.368  1.00  0.00     0.000 C 
ENDROOT
BRANCH   1   2
HETATM    2  C   UNL     1       8.540  -4.002  -1.786  1.00  0.00     0.000 C 
BRANCH   2   3
HETATM    3  C   UNL     1       7.023  -3.998  -1.782  1.00  0.00     0.000 C 
BRANCH   3   4
HETATM    4  C   UNL     1       6.512  -2.693  -1.202  1.00  0.00     0.000 C 
BRANCH   4   5
HETATM    5  C   UNL     1       4.995  -2.689  -1.196  1.00  0.00     0.000 C 
BRANCH   5   6
HETATM    6  C   UNL     1       4.483  -1.382  -0.618  1.00  0.00     0.000 C 
BRANCH   6   7
HETATM    7  C   UNL     1       2.964  -1.375  -0.612  1.00  0.00    -0.000 C 
BRANCH   7   8
HETATM    8  C   UNL     1       2.445  -0.067  -0.035  1.00  0.00    -0.005 C 
HETATM    9  C   UNL     1       0.930  -0.062  -0.033  1.00  0.00     0.005 C 
ENDBRANCH   7   8
ENDBRANCH   6   7
ENDBRANCH   5   6
ENDBRANCH   4   5
ENDBRANCH   3   4
ENDBRANCH   2   3
ENDBRANCH   1   2
BRANCH   1  10
HETATM   10  C   UNL     1      10.567  -5.311  -2.370  1.00  0.00     0.000 C 
BRANCH  10  11
HETATM   11  C   UNL     1      11.078  -6.615  -2.954  1.00  0.00     0.000 C 
BRANCH  11  12
HETATM   12  C   UNL     1      12.595  -6.620  -2.956  1.00  0.00     0.000 C 
BRANCH  12  13
HETATM   13  C   UNL     1      13.107  -7.924  -3.540  1.00  0.00     0.000 C 
BRANCH  13  14
HETATM   14  C   UNL     1      14.626  -7.932  -3.544  1.00  0.00     0.000 C 
BRANCH  14  15
HETATM   15  C   UNL     1      15.138  -9.240  -4.129  1.00  0.00     0.004 C 
BRANCH  15  16
HETATM   16  C   UNL     1      16.659  -9.253  -4.137  1.00  0.00     0.026 C 
BRANCH  16  17
HETATM   17  C   UNL     1      17.184 -10.535  -4.706  1.00  0.00    -0.037 C 
HETATM   18  C   UNL     1      17.957 -11.358  -3.997  1.00  0.00     0.007 C 
ENDBRANCH  16  17
ENDBRANCH  15  16
ENDBRANCH  14  15
ENDBRANCH  13  14
ENDBRANCH  12  13
ENDBRANCH  11  12
ENDBRANCH  10  11
ENDBRANCH   1  10
TORSDOF 15
