REMARK  10 active torsions:
REMARK  status: ('A' for Active; 'I' for Inactive)
REMARK    1  A    between atoms: C_2  and  C_3 
REMARK    2  A    between atoms: C_3  and  C_4 
REMARK    3  A    between atoms: C_4  and  C_5 
REMARK    4  A    between atoms: C_5  and  C_6 
REMARK    5  A    between atoms: C_5  and  C_8 
REMARK    6  A    between atoms: C_8  and  O_9 
REMARK    7  A    between atoms: O_9  and  C_10 
REMARK    8  A    between atoms: C_10  and  C_12 
REMARK    9  A    between atoms: C_13  and  C_14 
REMARK   10  A    between atoms: C_13  and  C_20 
ROOT
HETATM    1  C   UNL     1       8.977   1.246  -5.651  1.00  0.00     0.131 C 
HETATM    2  C   UNL     1      10.226   1.080  -6.170  1.00  0.00     0.011 C 
HETATM    3  C   UNL     1       7.904   1.715  -6.471  1.00  0.00     0.106 C 
HETATM    4  N   UNL     1       7.040   2.093  -7.151  1.00  0.00    -0.191 NA
ENDROOT
BRANCH   1   5
HETATM    5  C   UNL     1       8.629   0.892  -4.229  1.00  0.00     0.304 C 
HETATM    6  O   UNL     1       9.432   0.679  -3.337  1.00  0.00    -0.258 OA
BRANCH   5   7
HETATM    7  O   UNL     1       7.279   0.753  -4.071  1.00  0.00    -0.317 OA
BRANCH   7   8
HETATM    8  C   UNL     1       6.830  -0.060  -2.959  1.00  0.00     0.183 C 
BRANCH   8   9
HETATM    9  C   UNL     1       6.818   0.632  -1.577  1.00  0.00     0.010 C 
BRANCH   9  10
HETATM   10  C   UNL     1       5.927   1.895  -1.558  1.00  0.00     0.007 C 
BRANCH  10  11
HETATM   11  C   UNL     1       5.862   2.638  -0.211  1.00  0.00     0.000 C 
BRANCH  11  12
HETATM   12  C   UNL     1       7.211   3.194   0.255  1.00  0.00    -0.005 C 
HETATM   13  C   UNL     1       7.087   3.907   1.594  1.00  0.00     0.005 C 
ENDBRANCH  11  12
ENDBRANCH  10  11
ENDBRANCH   9  10
BRANCH   9  14
HETATM   14  C   UNL     1       6.451  -0.381  -0.461  1.00  0.00     0.002 C 
HETATM   15  C   UNL     1       5.042  -0.966  -0.521  1.00  0.00     0.005 C 
ENDBRANCH   9  14
ENDBRANCH   8   9
ENDBRANCH   7   8
ENDBRANCH   5   7
ENDBRANCH   1   5
BRANCH   2  16
HETATM   16  C   UNL     1      10.501   1.355  -7.617  1.00  0.00    -0.023 A 
HETATM   17  C   UNL     1      10.875   2.629  -8.059  1.00  0.00     0.012 A 
HETATM   18  C   UNL     1      11.254   2.829  -9.394  1.00  0.00     0.001 A 
HETATM   19  C   UNL     1      11.257   1.760 -10.291  1.00  0.00     0.000 A 
HETATM   20  C   UNL     1      10.885   0.490  -9.859  1.00  0.00     0.001 A 
HETATM   21  C   UNL     1      10.507   0.287  -8.530  1.00  0.00     0.012 A 
ENDBRANCH   2  16
BRANCH   2  22
HETATM   22  C   UNL     1      11.363   0.544  -5.373  1.00  0.00    -0.023 A 
HETATM   23  C   UNL     1      11.587  -0.838  -5.316  1.00  0.00     0.012 A 
HETATM   24  C   UNL     1      12.723  -1.341  -4.680  1.00  0.00     0.001 A 
HETATM   25  C   UNL     1      13.639  -0.468  -4.095  1.00  0.00     0.000 A 
HETATM   26  C   UNL     1      13.421   0.908  -4.144  1.00  0.00     0.001 A 
HETATM   27  C   UNL     1      12.289   1.415  -4.786  1.00  0.00     0.012 A 
ENDBRANCH   2  22
TORSDOF 10
