REMARK  31 active torsions:
REMARK  status: ('A' for Active; 'I' for Inactive)
REMARK    1  A    between atoms: C_2  and  C_3 
REMARK    2  A    between atoms: C_3  and  C_4 
REMARK    3  A    between atoms: C_4  and  C_5 
REMARK    4  A    between atoms: C_5  and  C_6 
REMARK    5  A    between atoms: C_6  and  C_7 
REMARK    6  A    between atoms: C_7  and  C_8 
REMARK    7  A    between atoms: C_8  and  C_9 
REMARK    8  A    between atoms: C_9  and  C_10 
REMARK    9  A    between atoms: C_10  and  C_11 
REMARK   10  A    between atoms: C_11  and  C_12 
REMARK   11  A    between atoms: C_12  and  C_13 
REMARK   12  A    between atoms: C_13  and  C_14 
REMARK   13  A    between atoms: C_14  and  O_16 
REMARK   14  A    between atoms: O_16  and  C_17 
REMARK   15  A    between atoms: C_17  and  C_18 
REMARK   16  A    between atoms: C_18  and  C_19 
REMARK   17  A    between atoms: C_18  and  C_27 
REMARK   18  A    between atoms: C_19  and  C_20 
REMARK   19  A    between atoms: C_20  and  C_21 
REMARK   20  A    between atoms: C_21  and  C_22 
REMARK   21  A    between atoms: C_22  and  C_23 
REMARK   22  A    between atoms: C_23  and  C_24 
REMARK   23  A    between atoms: C_24  and  C_25 
REMARK   24  A    between atoms: C_27  and  C_28 
REMARK   25  A    between atoms: C_28  and  C_29 
REMARK   26  A    between atoms: C_29  and  C_30 
REMARK   27  A    between atoms: C_30  and  C_31 
REMARK   28  A    between atoms: C_31  and  C_32 
REMARK   29  A    between atoms: C_32  and  C_33 
REMARK   30  A    between atoms: C_33  and  C_34 
REMARK   31  A    between atoms: C_34  and  C_35 
ROOT
HETATM    1  C   UNL     1      17.308  -5.308  -9.768  1.00  0.00     0.010 C 
ENDROOT
BRANCH   1   2
HETATM    2  C   UNL     1      16.819  -4.713  -8.442  1.00  0.00     0.183 C 
BRANCH   2   3
HETATM    3  O   UNL     1      15.390  -4.698  -8.352  1.00  0.00    -0.321 OA
BRANCH   3   4
HETATM    4  C   UNL     1      14.904  -5.447  -7.313  1.00  0.00     0.258 C 
HETATM    5  O   UNL     1      15.120  -6.626  -7.135  1.00  0.00    -0.265 OA
BRANCH   4   6
HETATM    6  C   UNL     1      14.132  -4.551  -6.363  1.00  0.00     0.111 C 
BRANCH   6   7
HETATM    7  C   UNL     1      12.922  -3.959  -7.067  1.00  0.00     0.010 C 
BRANCH   7   8
HETATM    8  C   UNL     1      12.103  -3.046  -6.164  1.00  0.00     0.000 C 
BRANCH   8   9
HETATM    9  C   UNL     1      10.909  -2.496  -6.942  1.00  0.00     0.000 C 
BRANCH   9  10
HETATM   10  C   UNL     1      10.061  -1.578  -6.074  1.00  0.00     0.000 C 
BRANCH  10  11
HETATM   11  C   UNL     1       8.877  -1.037  -6.867  1.00  0.00     0.000 C 
BRANCH  11  12
HETATM   12  C   UNL     1       8.030  -0.119  -5.997  1.00  0.00     0.000 C 
BRANCH  12  13
HETATM   13  C   UNL     1       6.844   0.421  -6.784  1.00  0.00     0.000 C 
BRANCH  13  14
HETATM   14  C   UNL     1       6.001   1.339  -5.909  1.00  0.00     0.000 C 
BRANCH  14  15
HETATM   15  C   UNL     1       4.812   1.882  -6.691  1.00  0.00     0.000 C 
BRANCH  15  16
HETATM   16  C   UNL     1       3.967   2.800  -5.816  1.00  0.00    -0.000 C 
BRANCH  16  17
HETATM   17  C   UNL     1       2.775   3.346  -6.596  1.00  0.00    -0.005 C 
HETATM   18  C   UNL     1       1.934   4.262  -5.726  1.00  0.00     0.005 C 
ENDBRANCH  16  17
ENDBRANCH  15  16
ENDBRANCH  14  15
ENDBRANCH  13  14
ENDBRANCH  12  13
ENDBRANCH  11  12
ENDBRANCH  10  11
ENDBRANCH   9  10
ENDBRANCH   8   9
ENDBRANCH   7   8
ENDBRANCH   6   7
ENDBRANCH   4   6
ENDBRANCH   3   4
ENDBRANCH   2   3
ENDBRANCH   1   2
BRANCH   1  19
HETATM   19  C   UNL     1      16.770  -4.534 -10.992  1.00  0.00     0.007 C 
BRANCH  19  20
HETATM   20  C   UNL     1      17.224  -5.121 -12.321  1.00  0.00     0.000 C 
BRANCH  20  21
HETATM   21  C   UNL     1      16.770  -6.559 -12.494  1.00  0.00     0.000 C 
BRANCH  21  22
HETATM   22  C   UNL     1      17.269  -7.059 -13.836  1.00  0.00     0.000 C 
BRANCH  22  23
HETATM   23  C   UNL     1      16.841  -8.494 -14.054  1.00  0.00     0.000 C 
BRANCH  23  24
HETATM   24  C   UNL     1      17.347  -8.983 -15.401  1.00  0.00    -0.000 C 
BRANCH  24  25
HETATM   25  C   UNL     1      16.921 -10.426 -15.632  1.00  0.00    -0.005 C 
HETATM   26  C   UNL     1      17.419 -10.924 -16.974  1.00  0.00     0.005 C 
ENDBRANCH  24  25
ENDBRANCH  23  24
ENDBRANCH  22  23
ENDBRANCH  21  22
ENDBRANCH  20  21
ENDBRANCH  19  20
ENDBRANCH   1  19
BRANCH   1  27
HETATM   27  C   UNL     1      18.847  -5.327  -9.788  1.00  0.00     0.007 C 
BRANCH  27  28
HETATM   28  C   UNL     1      19.437  -6.163  -8.659  1.00  0.00     0.000 C 
BRANCH  28  29
HETATM   29  C   UNL     1      20.954  -6.164  -8.701  1.00  0.00     0.000 C 
BRANCH  29  30
HETATM   30  C   UNL     1      21.493  -7.003  -7.549  1.00  0.00     0.000 C 
BRANCH  30  31
HETATM   31  C   UNL     1      23.012  -7.019  -7.574  1.00  0.00     0.000 C 
BRANCH  31  32
HETATM   32  C   UNL     1      23.554  -7.857  -6.426  1.00  0.00     0.000 C 
BRANCH  32  33
HETATM   33  C   UNL     1      25.077  -7.868  -6.455  1.00  0.00     0.000 C 
BRANCH  33  34
HETATM   34  C   UNL     1      25.627  -8.706  -5.308  1.00  0.00    -0.000 C 
BRANCH  34  35
HETATM   35  C   UNL     1      27.151  -8.719  -5.330  1.00  0.00    -0.005 C 
HETATM   36  C   UNL     1      27.699  -9.553  -4.187  1.00  0.00     0.005 C 
ENDBRANCH  34  35
ENDBRANCH  33  34
ENDBRANCH  32  33
ENDBRANCH  31  32
ENDBRANCH  30  31
ENDBRANCH  29  30
ENDBRANCH  28  29
ENDBRANCH  27  28
ENDBRANCH   1  27
TORSDOF 31
