REMARK WARNING: 32 MAX_TORS EXCEEDED!!!
REMARK  35 active torsions:
REMARK  status: ('A' for Active; 'I' for Inactive)
REMARK    1  A    between atoms: C_2  and  C_3 
REMARK    2  A    between atoms: C_3  and  C_4 
REMARK    3  A    between atoms: C_4  and  C_5 
REMARK    4  A    between atoms: C_5  and  C_6 
REMARK    5  A    between atoms: C_6  and  C_7 
REMARK    6  A    between atoms: C_7  and  C_8 
REMARK    7  A    between atoms: C_8  and  C_9 
REMARK    8  A    between atoms: C_9  and  C_10 
REMARK    9  A    between atoms: C_10  and  C_11 
REMARK   10  A    between atoms: C_11  and  C_12 
REMARK   11  A    between atoms: C_12  and  C_13 
REMARK   12  A    between atoms: C_13  and  C_14 
REMARK   13  A    between atoms: C_14  and  C_15 
REMARK   14  A    between atoms: C_15  and  C_16 
REMARK   15  A    between atoms: C_16  and  C_17 
REMARK   16  A    between atoms: C_17  and  C_18 
REMARK   17  A    between atoms: C_18  and  O_20 
REMARK   18  A    between atoms: O_20  and  C_21 
REMARK   19  A    between atoms: C_21  and  C_22 
REMARK   20  A    between atoms: C_22  and  C_23 
REMARK   21  A    between atoms: C_22  and  C_31 
REMARK   22  A    between atoms: C_23  and  C_24 
REMARK   23  A    between atoms: C_24  and  C_25 
REMARK   24  A    between atoms: C_25  and  C_26 
REMARK   25  A    between atoms: C_26  and  C_27 
REMARK   26  A    between atoms: C_27  and  C_28 
REMARK   27  A    between atoms: C_28  and  C_29 
REMARK   28  A    between atoms: C_31  and  C_32 
REMARK   29  A    between atoms: C_32  and  C_33 
REMARK   30  A    between atoms: C_33  and  C_34 
REMARK   31  A    between atoms: C_34  and  C_35 
REMARK   32  A    between atoms: C_35  and  C_36 
REMARK   33  A    between atoms: C_36  and  C_37 
REMARK   34  A    between atoms: C_37  and  C_38 
REMARK   35  A    between atoms: C_38  and  C_39 
ROOT
HETATM    1  O   UNL     1      19.429  -7.739   9.998  1.00  0.00    -0.321 OA
ENDROOT
BRANCH   1   2
HETATM    2  C   UNL     1      18.998  -6.469  10.264  1.00  0.00     0.258 C 
HETATM    3  O   UNL     1      19.309  -5.820  11.235  1.00  0.00    -0.265 OA
BRANCH   2   4
HETATM    4  C   UNL     1      18.113  -5.970   9.125  1.00  0.00     0.111 C 
BRANCH   4   5
HETATM    5  C   UNL     1      17.681  -4.535   9.420  1.00  0.00     0.010 C 
BRANCH   5   6
HETATM    6  C   UNL     1      16.794  -3.953   8.331  1.00  0.00     0.000 C 
BRANCH   6   7
HETATM    7  C   UNL     1      16.398  -2.524   8.687  1.00  0.00     0.000 C 
BRANCH   7   8
HETATM    8  C   UNL     1      15.509  -1.939   7.603  1.00  0.00     0.000 C 
BRANCH   8   9
HETATM    9  C   UNL     1      15.113  -0.516   7.959  1.00  0.00     0.000 C 
BRANCH   9  10
HETATM   10  C   UNL     1      14.227   0.063   6.871  1.00  0.00     0.000 C 
BRANCH  10  11
HETATM   11  C   UNL     1      13.832   1.484   7.227  1.00  0.00     0.000 C 
BRANCH  11  12
HETATM   12  C   UNL     1      12.947   2.062   6.139  1.00  0.00     0.000 C 
BRANCH  12  13
HETATM   13  C   UNL     1      12.553   3.483   6.493  1.00  0.00     0.000 C 
BRANCH  13  14
HETATM   14  C   UNL     1      11.668   4.062   5.407  1.00  0.00     0.000 C 
BRANCH  14  15
HETATM   15  C   UNL     1      11.272   5.482   5.761  1.00  0.00     0.000 C 
BRANCH  15  16
HETATM   16  C   UNL     1      10.387   6.060   4.674  1.00  0.00     0.000 C 
BRANCH  16  17
HETATM   17  C   UNL     1       9.993   7.484   5.030  1.00  0.00     0.000 C 
BRANCH  17  18
HETATM   18  C   UNL     1       9.106   8.064   3.941  1.00  0.00    -0.000 C 
BRANCH  18  19
HETATM   19  C   UNL     1       8.705   9.491   4.288  1.00  0.00    -0.005 C 
HETATM   20  C   UNL     1       7.823  10.067   3.200  1.00  0.00     0.005 C 
ENDBRANCH  18  19
ENDBRANCH  17  18
ENDBRANCH  16  17
ENDBRANCH  15  16
ENDBRANCH  14  15
ENDBRANCH  13  14
ENDBRANCH  12  13
ENDBRANCH  11  12
ENDBRANCH  10  11
ENDBRANCH   9  10
ENDBRANCH   8   9
ENDBRANCH   7   8
ENDBRANCH   6   7
ENDBRANCH   5   6
ENDBRANCH   4   5
ENDBRANCH   2   4
ENDBRANCH   1   2
BRANCH   1  21
HETATM   21  C   UNL     1      20.863  -7.880   9.978  1.00  0.00     0.183 C 
BRANCH  21  22
HETATM   22  C   UNL     1      21.382  -8.832  11.067  1.00  0.00     0.010 C 
BRANCH  22  23
HETATM   23  C   UNL     1      20.757 -10.232  10.936  1.00  0.00     0.007 C 
BRANCH  23  24
HETATM   24  C   UNL     1      21.242 -11.171  12.024  1.00  0.00     0.000 C 
BRANCH  24  25
HETATM   25  C   UNL     1      20.630 -12.541  11.881  1.00  0.00     0.000 C 
BRANCH  25  26
HETATM   26  C   UNL     1      21.182 -13.417  12.989  1.00  0.00     0.000 C 
BRANCH  26  27
HETATM   27  C   UNL     1      20.575 -14.797  12.878  1.00  0.00     0.000 C 
BRANCH  27  28
HETATM   28  C   UNL     1      21.114 -15.688  13.980  1.00  0.00    -0.000 C 
BRANCH  28  29
HETATM   29  C   UNL     1      20.503 -17.075  13.868  1.00  0.00    -0.005 C 
HETATM   30  C   UNL     1      21.036 -17.971  14.966  1.00  0.00     0.005 C 
ENDBRANCH  28  29
ENDBRANCH  27  28
ENDBRANCH  26  27
ENDBRANCH  25  26
ENDBRANCH  24  25
ENDBRANCH  23  24
ENDBRANCH  22  23
BRANCH  22  31
HETATM   31  C   UNL     1      22.917  -8.938  11.001  1.00  0.00     0.007 C 
BRANCH  31  32
HETATM   32  C   UNL     1      23.595  -7.593  11.210  1.00  0.00     0.000 C 
BRANCH  32  33
HETATM   33  C   UNL     1      25.101  -7.730  11.143  1.00  0.00     0.000 C 
BRANCH  33  34
HETATM   34  C   UNL     1      25.738  -6.367  11.346  1.00  0.00     0.000 C 
BRANCH  34  35
HETATM   35  C   UNL     1      27.247  -6.496  11.287  1.00  0.00     0.000 C 
BRANCH  35  36
HETATM   36  C   UNL     1      27.892  -5.138  11.489  1.00  0.00     0.000 C 
BRANCH  36  37
HETATM   37  C   UNL     1      29.404  -5.272  11.427  1.00  0.00     0.000 C 
BRANCH  37  38
HETATM   38  C   UNL     1      30.056  -3.915  11.629  1.00  0.00    -0.000 C 
BRANCH  38  39
HETATM   39  C   UNL     1      31.571  -4.040  11.571  1.00  0.00    -0.005 C 
HETATM   40  C   UNL     1      32.218  -2.685  11.772  1.00  0.00     0.005 C 
ENDBRANCH  38  39
ENDBRANCH  37  38
ENDBRANCH  36  37
ENDBRANCH  35  36
ENDBRANCH  34  35
ENDBRANCH  33  34
ENDBRANCH  32  33
ENDBRANCH  31  32
ENDBRANCH  22  31
ENDBRANCH  21  22
ENDBRANCH   1  21
TORSDOF 35
