REMARK  20 active torsions:
REMARK  status: ('A' for Active; 'I' for Inactive)
REMARK    1  A    between atoms: C_2  and  C_3 
REMARK    2  A    between atoms: C_3  and  C_4 
REMARK    3  A    between atoms: C_4  and  C_5 
REMARK    4  A    between atoms: C_5  and  C_6 
REMARK    5  A    between atoms: C_6  and  C_7 
REMARK    6  A    between atoms: C_7  and  C_8 
REMARK    7  A    between atoms: C_8  and  C_9 
REMARK    8  A    between atoms: C_10  and  C_11 
REMARK    9  A    between atoms: C_11  and  C_12 
REMARK   10  A    between atoms: C_12  and  C_13 
REMARK   11  A    between atoms: C_13  and  C_14 
REMARK   12  A    between atoms: C_14  and  C_15 
REMARK   13  A    between atoms: C_15  and  C_16 
REMARK   14  A    between atoms: C_16  and  C_17 
REMARK   15  A    between atoms: C_17  and  C_18 
REMARK       I    between atoms: C_18  and  N_20 
REMARK   16  A    between atoms: N_20  and  CA_21 
REMARK   17  A    between atoms: CA_21  and  CB_22 
REMARK   18  A    between atoms: CA_21  and  C_24 
REMARK   19  A    between atoms: CB_22  and  OG_23 
REMARK   20  A    between atoms: C_24  and  O_25 
ROOT
HETATM    1  C   UNK A   0      14.502  -5.292  -7.062  1.00  0.00     0.000 C 
ENDROOT
BRANCH   1   2
HETATM    2  C   UNK A   0      12.982  -5.273  -7.035  1.00  0.00     0.000 C 
BRANCH   2   3
HETATM    3  C   UNK A   0      12.474  -4.403  -5.893  1.00  0.00     0.004 C 
BRANCH   3   4
HETATM    4  C   UNK A   0      10.952  -4.397  -5.883  1.00  0.00     0.027 C 
BRANCH   4   5
HETATM    5  C   UNK A   0      10.439  -3.542  -4.772  1.00  0.00    -0.031 C 
HETATM    6  C   UNK A   0       9.672  -2.465  -4.982  1.00  0.00    -0.031 C 
BRANCH   6   7
HETATM    7  C   UNK A   0       9.161  -1.608  -3.872  1.00  0.00     0.027 C 
BRANCH   7   8
HETATM    8  C   UNK A   0       7.638  -1.605  -3.861  1.00  0.00     0.004 C 
BRANCH   8   9
HETATM    9  C   UNK A   0       7.124  -0.734  -2.723  1.00  0.00     0.000 C 
BRANCH   9  10
HETATM   10  C   UNK A   0       5.602  -0.720  -2.708  1.00  0.00     0.000 C 
BRANCH  10  11
HETATM   11  C   UNK A   0       5.086   0.152  -1.570  1.00  0.00     0.000 C 
BRANCH  11  12
HETATM   12  C   UNK A   0       3.563   0.162  -1.556  1.00  0.00    -0.000 C 
BRANCH  12  13
HETATM   13  C   UNK A   0       3.034   1.033  -0.422  1.00  0.00    -0.005 C 
HETATM   14  C   UNK A   0       1.516   1.041  -0.409  1.00  0.00     0.005 C 
ENDBRANCH  12  13
ENDBRANCH  11  12
ENDBRANCH  10  11
ENDBRANCH   9  10
ENDBRANCH   8   9
ENDBRANCH   7   8
ENDBRANCH   6   7
ENDBRANCH   4   5
ENDBRANCH   3   4
ENDBRANCH   2   3
ENDBRANCH   1   2
BRANCH   1  15
HETATM   15  C   UNK A   0      15.011  -6.165  -8.206  1.00  0.00     0.000 C 
BRANCH  15  16
HETATM   16  C   UNK A   0      16.533  -6.171  -8.211  1.00  0.00     0.009 C 
BRANCH  16  17
HETATM   17  C   UNK A   0      17.114  -7.024  -9.333  1.00  0.00     0.103 C 
BRANCH  17  18
HETATM   18  C   UNK A   0      18.632  -6.981  -9.284  1.00  0.00     0.218 C 
HETATM   19  O   UNK A   0      19.265  -6.347  -8.444  1.00  0.00    -0.274 OA
ATOM     20  N   SER A   1      19.234  -7.712 -10.292  1.00  0.00    -0.352 N 
ATOM     21  H   SER A   1      18.639  -8.205 -10.954  1.00  0.00     0.163 HD
BRANCH  20  22
ATOM     22  CA  SER A   1      20.700  -7.727 -10.442  1.00  0.00     0.131 C 
BRANCH  22  23
ATOM     23  CB  SER A   1      21.356  -8.854  -9.624  1.00  0.00     0.191 C 
BRANCH  23  24
ATOM     24  OG  SER A   1      20.968 -10.147 -10.096  1.00  0.00    -0.399 OA
ATOM     25  H   SER A   1      20.037 -10.289  -9.833  1.00  0.00     0.209 HD
ENDBRANCH  23  24
ENDBRANCH  22  23
BRANCH  22  26
ATOM     26  C   SER A   1      21.153  -7.763 -11.921  1.00  0.00     0.191 C 
BRANCH  26  27
ATOM     27  O   SER A   1      20.773  -8.931 -12.644  1.00  0.00    -0.399 OA
ATOM     28  H   SER A   1      21.099  -9.702 -12.132  1.00  0.00     0.209 HD
ENDBRANCH  26  27
ENDBRANCH  22  26
ENDBRANCH  20  22
ENDBRANCH  17  18
ENDBRANCH  16  17
ENDBRANCH  15  16
ENDBRANCH   1  15
TORSDOF 20
