REMARK  25 active torsions:
REMARK  status: ('A' for Active; 'I' for Inactive)
REMARK    1  A    between atoms: C_2  and  C_3 
REMARK    2  A    between atoms: C_3  and  C_4 
REMARK    3  A    between atoms: C_4  and  C_5 
REMARK    4  A    between atoms: C_5  and  C_6 
REMARK    5  A    between atoms: C_6  and  C_7 
REMARK    6  A    between atoms: C_7  and  C_8 
REMARK    7  A    between atoms: C_8  and  C_9 
REMARK    8  A    between atoms: C_10  and  C_11 
REMARK    9  A    between atoms: C_11  and  C_12 
REMARK   10  A    between atoms: C_12  and  C_13 
REMARK   11  A    between atoms: C_13  and  C_14 
REMARK   12  A    between atoms: C_14  and  C_15 
REMARK   13  A    between atoms: C_15  and  C_16 
REMARK   14  A    between atoms: C_16  and  C_17 
REMARK   15  A    between atoms: C_17  and  C_18 
REMARK   16  A    between atoms: C_18  and  O_19 
REMARK   17  A    between atoms: O_19  and  C_20 
REMARK   18  A    between atoms: C_20  and  C_21 
REMARK   19  A    between atoms: C_21  and  O_22 
REMARK   20  A    between atoms: O_22  and  C_23 
REMARK   21  A    between atoms: C_23  and  C_24 
REMARK   22  A    between atoms: C_24  and  O_25 
REMARK   23  A    between atoms: O_25  and  C_26 
REMARK   24  A    between atoms: C_26  and  C_27 
REMARK   25  A    between atoms: C_27  and  O_28 
ROOT
HETATM    1  C   UNL     1      15.045   6.242   8.236  1.00  0.00     0.000 C 
ENDROOT
BRANCH   1   2
HETATM    2  C   UNL     1      14.531   5.369   7.102  1.00  0.00     0.000 C 
BRANCH   2   3
HETATM    3  C   UNL     1      13.011   5.361   7.091  1.00  0.00     0.000 C 
BRANCH   3   4
HETATM    4  C   UNL     1      12.499   4.487   5.956  1.00  0.00     0.004 C 
BRANCH   4   5
HETATM    5  C   UNL     1      10.978   4.483   5.946  1.00  0.00     0.027 C 
BRANCH   5   6
HETATM    6  C   UNL     1      10.465   3.625   4.838  1.00  0.00    -0.031 C 
HETATM    7  C   UNL     1       9.698   2.557   5.062  1.00  0.00    -0.031 C 
BRANCH   7   8
HETATM    8  C   UNL     1       9.183   1.697   3.953  1.00  0.00     0.027 C 
BRANCH   8   9
HETATM    9  C   UNL     1       7.663   1.693   3.944  1.00  0.00     0.004 C 
BRANCH   9  10
HETATM   10  C   UNL     1       7.148   0.818   2.811  1.00  0.00     0.000 C 
BRANCH  10  11
HETATM   11  C   UNL     1       5.627   0.813   2.798  1.00  0.00     0.000 C 
BRANCH  11  12
HETATM   12  C   UNL     1       5.109  -0.064   1.667  1.00  0.00     0.000 C 
BRANCH  12  13
HETATM   13  C   UNL     1       3.587  -0.069   1.654  1.00  0.00    -0.000 C 
BRANCH  13  14
HETATM   14  C   UNL     1       3.057  -0.944   0.525  1.00  0.00    -0.005 C 
HETATM   15  C   UNL     1       1.539  -0.947   0.516  1.00  0.00     0.005 C 
ENDBRANCH  13  14
ENDBRANCH  12  13
ENDBRANCH  11  12
ENDBRANCH  10  11
ENDBRANCH   9  10
ENDBRANCH   8   9
ENDBRANCH   7   8
ENDBRANCH   5   6
ENDBRANCH   4   5
ENDBRANCH   3   4
ENDBRANCH   2   3
ENDBRANCH   1   2
BRANCH   1  16
HETATM   16  C   UNL     1      16.564   6.247   8.242  1.00  0.00     0.002 C 
BRANCH  16  17
HETATM   17  C   UNL     1      17.097   7.114   9.371  1.00  0.00     0.026 C 
BRANCH  17  18
HETATM   18  C   UNL     1      18.613   7.100   9.353  1.00  0.00     0.167 C 
BRANCH  18  19
HETATM   19  O   UNL     1      19.085   7.916  10.416  1.00  0.00    -0.389 OA
BRANCH  19  20
HETATM   20  C   UNL     1      20.505   7.930  10.435  1.00  0.00     0.193 C 
BRANCH  20  21
HETATM   21  C   UNL     1      20.962   8.809  11.579  1.00  0.00     0.193 C 
BRANCH  21  22
HETATM   22  O   UNL     1      22.383   8.817  11.591  1.00  0.00    -0.387 OA
BRANCH  22  23
HETATM   23  C   UNL     1      22.887   9.629  12.648  1.00  0.00     0.193 C 
BRANCH  23  24
HETATM   24  C   UNL     1      24.407   9.603  12.618  1.00  0.00     0.193 C 
BRANCH  24  25
HETATM   25  O   UNL     1      24.904  10.420  13.675  1.00  0.00    -0.387 OA
BRANCH  25  26
HETATM   26  C   UNL     1      26.338  10.428  13.696  1.00  0.00     0.193 C 
BRANCH  26  27
HETATM   27  C   UNL     1      26.831  11.312  14.834  1.00  0.00     0.190 C 
BRANCH  27  28
HETATM   28  O   UNL     1      26.370  10.833  16.093  1.00  0.00    -0.399 OA
HETATM   29  H   UNL     1      25.391  10.821  16.034  1.00  0.00     0.209 HD
ENDBRANCH  27  28
ENDBRANCH  26  27
ENDBRANCH  25  26
ENDBRANCH  24  25
ENDBRANCH  23  24
ENDBRANCH  22  23
ENDBRANCH  21  22
ENDBRANCH  20  21
ENDBRANCH  19  20
ENDBRANCH  18  19
ENDBRANCH  17  18
ENDBRANCH  16  17
ENDBRANCH   1  16
TORSDOF 25
