REMARK  7 active torsions:
REMARK  status: ('A' for Active; 'I' for Inactive)
REMARK    1  A    between atoms: C_1  and  C_2 
REMARK    2  A    between atoms: C_1  and  C_8 
REMARK    3  A    between atoms: C_2  and  CA_3 
REMARK    4  A    between atoms: CA_3  and  C_4 
REMARK    5  A    between atoms: CA_3  and  N_7 
REMARK    6  A    between atoms: C_4  and  OXT_6 
REMARK    7  A    between atoms: C_8  and  N_9 
ROOT
HETATM    1  CA  UNL     1      -0.910   1.001   1.006  1.00  0.00     0.314 C 
ENDROOT
BRANCH   1   2
HETATM    2  C   UNL     1       0.624   1.101   0.920  1.00  0.00     0.048 C 
BRANCH   2   3
HETATM    3  C   UNL     1       1.186   0.317  -0.277  1.00  0.00     0.032 C 
BRANCH   3   4
HETATM    4  C   UNL     1       2.717   0.392  -0.335  1.00  0.00     0.267 C 
BRANCH   4   5
HETATM    5  N   UNL     1       3.167   1.773  -0.490  1.00  0.00     0.078 N 
HETATM    6  H   UNL     1       2.813   2.150  -1.399  1.00  0.00     0.312 HD
HETATM    7  H   UNL     1       4.211   1.782  -0.522  1.00  0.00     0.312 HD
ENDBRANCH   4   5
ENDBRANCH   3   4
ENDBRANCH   2   3
ENDBRANCH   1   2
BRANCH   1   8
HETATM    8  C   UNL     1      -1.419   1.727   2.234  1.00  0.00     0.173 C 
HETATM    9  O   UNL     1      -2.025   1.106   3.091  1.00  0.00    -0.648 OA
BRANCH   8  10
HETATM   10  OXT UNL     1      -1.219   3.054   2.401  1.00  0.00    -0.775 OA
HETATM   11  HXT UNL     1      -0.739   3.589   1.753  1.00  0.00     0.167 HD
ENDBRANCH   8  10
ENDBRANCH   1   8
BRANCH   1  12
HETATM   12  N   UNL     1      -1.534   1.540  -0.205  1.00  0.00     0.093 N 
HETATM   13  H1  UNL     1      -1.301   2.553  -0.321  1.00  0.00     0.314 HD
HETATM   14  H2  UNL     1      -2.573   1.439  -0.139  1.00  0.00     0.314 HD
ENDBRANCH   1  12
TORSDOF 7
