REMARK  7 active torsions:
REMARK  status: ('A' for Active; 'I' for Inactive)
REMARK    1  A    between atoms: C_1  and  C_2 
REMARK    2  A    between atoms: C_1  and  C_8 
REMARK    3  A    between atoms: C_2  and  CA_3 
REMARK    4  A    between atoms: CA_3  and  C_4 
REMARK    5  A    between atoms: CA_3  and  N_7 
REMARK    6  A    between atoms: C_4  and  OXT_6 
REMARK    7  A    between atoms: C_8  and  N_9 
ROOT
HETATM    1  CA  UNL     1      -1.118  -0.631  -1.243  1.00  0.00     0.314 C 
ENDROOT
BRANCH   1   2
HETATM    2  C   UNL     1       0.416  -0.649  -1.218  1.00  0.00     0.048 C 
BRANCH   2   3
HETATM    3  C   UNL     1       1.044   0.077  -0.023  1.00  0.00     0.032 C 
BRANCH   3   4
HETATM    4  C   UNL     1       0.662  -0.528   1.327  1.00  0.00     0.267 C 
BRANCH   4   5
HETATM    5  N   UNL     1       1.310   0.224   2.393  1.00  0.00     0.078 N 
HETATM    6  H   UNL     1       2.322   0.176   2.294  1.00  0.00     0.312 HD
HETATM    7  H   UNL     1       1.085  -0.197   3.293  1.00  0.00     0.312 HD
ENDBRANCH   4   5
ENDBRANCH   3   4
ENDBRANCH   2   3
ENDBRANCH   1   2
BRANCH   1   8
HETATM    8  C   UNL     1      -1.707   0.789  -1.207  1.00  0.00     0.173 C 
HETATM    9  O   UNL     1      -2.455   1.196  -0.329  1.00  0.00    -0.648 OA
BRANCH   8  10
HETATM   10  OXT UNL     1      -1.369   1.551  -2.276  1.00  0.00    -0.775 OA
HETATM   11  HXT UNL     1      -0.759   1.105  -2.890  1.00  0.00     0.167 HD
ENDBRANCH   8  10
ENDBRANCH   1   8
BRANCH   1  12
HETATM   12  N   UNL     1      -1.597  -1.350  -2.443  1.00  0.00     0.093 N 
HETATM   13  H1  UNL     1      -1.317  -0.894  -3.307  1.00  0.00     0.314 HD
HETATM   14  H2  UNL     1      -2.620  -1.352  -2.437  1.00  0.00     0.314 HD
ENDBRANCH   1  12
TORSDOF 7
