REMARK  1 active torsions:
REMARK  status: ('A' for Active; 'I' for Inactive)
REMARK    1  A    between atoms: C_5  and  O_32 
ROOT
HETATM    1  C   UNL     1       0.855  -0.553  -0.032  1.00  0.00     0.018 C 
HETATM    2  C   UNL     1       1.975   0.416   0.360  1.00  0.00     0.062 C 
HETATM    3  C   UNL     1       1.622   1.816  -0.137  1.00  0.00     0.159 C 
HETATM    4  O   UNL     1       0.673   2.035  -0.894  1.00  0.00    -0.295 OA
HETATM    5  C   UNL     1       2.546   2.933   0.329  1.00  0.00     0.188 C 
HETATM    6  C   UNL     1       3.977   2.604  -0.103  1.00  0.00     0.045 C 
HETATM    7  C   UNL     1       4.454   1.237   0.440  1.00  0.00     0.006 C 
HETATM    8  C   UNL     1       3.456   0.072  -0.103  1.00  0.00    -0.029 C 
HETATM    9  C   UNL     1       3.892  -1.251   0.549  1.00  0.00     0.011 C 
HETATM   10  C   UNL     1       5.363  -1.513   0.230  1.00  0.00     0.007 C 
HETATM   11  C   UNL     1       6.260  -0.467   0.939  1.00  0.00     0.003 C 
HETATM   12  C   UNL     1       6.051   0.975   0.332  1.00  0.00    -0.035 C 
HETATM   13  C   UNL     1       6.994   1.809   1.263  1.00  0.00     0.011 C 
HETATM   14  C   UNL     1       8.561   1.373   1.095  1.00  0.00     0.011 C 
HETATM   15  C   UNL     1       8.810   0.086   1.938  1.00  0.00    -0.032 C 
HETATM   16  C   UNL     1       7.736  -0.976   1.217  1.00  0.00    -0.032 C 
HETATM   17  C   UNL     1       7.601  -2.229   2.126  1.00  0.00     0.011 C 
HETATM   18  C   UNL     1       8.890  -2.977   2.322  1.00  0.00     0.010 C 
HETATM   19  C   UNL     1       9.977  -2.111   2.959  1.00  0.00    -0.040 C 
HETATM   20  C   UNL     1      10.204  -0.790   2.045  1.00  0.00     0.003 C 
HETATM   21  C   UNL     1      11.660  -0.252   2.334  1.00  0.00     0.015 C 
HETATM   22  C   UNL     1      12.786  -1.356   1.962  1.00  0.00    -0.047 C 
HETATM   23  C   UNL     1      12.125  -2.769   1.820  1.00  0.00     0.009 C 
HETATM   24  C   UNL     1      11.240  -2.984   3.030  1.00  0.00     0.010 C 
HETATM   25  C   UNL     1      13.883  -1.511   3.054  1.00  0.00     0.015 C 
HETATM   26  C   UNL     1      13.507  -1.034   0.632  1.00  0.00     0.015 C 
HETATM   27  C   UNL     1       9.559  -1.868   4.426  1.00  0.00     0.015 C 
HETATM   28  C   UNL     1       8.243  -1.457  -0.202  1.00  0.00     0.016 C 
HETATM   29  C   UNL     1       8.716   0.770   3.352  1.00  0.00     0.016 C 
HETATM   30  C   UNL     1       6.506   1.443  -1.072  1.00  0.00     0.016 C 
HETATM   31  C   UNL     1       3.438  -0.186  -1.642  1.00  0.00     0.016 C 
ENDROOT
BRANCH   5  32
HETATM   32  O   UNL     1       2.471   3.177   1.725  1.00  0.00    -0.388 OA
HETATM   33  H   UNL     1       2.754   2.391   2.217  1.00  0.00     0.210 HD
ENDBRANCH   5  32
TORSDOF 1
