REMARK  15 active torsions:
REMARK  status: ('A' for Active; 'I' for Inactive)
REMARK    1  A    between atoms: C_2  and  C_3 
REMARK    2  A    between atoms: C_3  and  C_4 
REMARK    3  A    between atoms: C_4  and  C_5 
REMARK    4  A    between atoms: C_5  and  C_6 
REMARK    5  A    between atoms: C_6  and  C_7 
REMARK    6  A    between atoms: C_7  and  C_8 
REMARK    7  A    between atoms: C_8  and  C_9 
REMARK    8  A    between atoms: C_9  and  C_10 
REMARK    9  A    between atoms: C_10  and  C_11 
REMARK   10  A    between atoms: C_11  and  C_12 
REMARK   11  A    between atoms: C_12  and  C_13 
REMARK   12  A    between atoms: C_13  and  C_14 
REMARK   13  A    between atoms: C_14  and  C_15 
REMARK   14  A    between atoms: C_15  and  C_16 
REMARK   15  A    between atoms: C_16  and  O_18 
ROOT
HETATM    1  C   UNL     1      10.636  -5.338  -2.258  1.00  0.00     0.000 C 
ENDROOT
BRANCH   1   2
HETATM    2  C   UNL     1       9.117  -5.331  -2.255  1.00  0.00     0.000 C 
BRANCH   2   3
HETATM    3  C   UNL     1       8.605  -4.023  -1.680  1.00  0.00     0.000 C 
BRANCH   3   4
HETATM    4  C   UNL     1       7.087  -4.017  -1.677  1.00  0.00     0.000 C 
BRANCH   4   5
HETATM    5  C   UNL     1       6.575  -2.709  -1.100  1.00  0.00     0.000 C 
BRANCH   5   6
HETATM    6  C   UNL     1       5.057  -2.703  -1.095  1.00  0.00     0.000 C 
BRANCH   6   7
HETATM    7  C   UNL     1       4.543  -1.394  -0.519  1.00  0.00     0.000 C 
BRANCH   7   8
HETATM    8  C   UNL     1       3.023  -1.387  -0.511  1.00  0.00    -0.000 C 
BRANCH   8   9
HETATM    9  C   UNL     1       2.498  -0.080   0.066  1.00  0.00    -0.005 C 
HETATM   10  C   UNL     1       0.981  -0.078   0.073  1.00  0.00     0.005 C 
ENDBRANCH   8   9
ENDBRANCH   7   8
ENDBRANCH   6   7
ENDBRANCH   5   6
ENDBRANCH   4   5
ENDBRANCH   3   4
ENDBRANCH   2   3
ENDBRANCH   1   2
BRANCH   1  11
HETATM   11  C   UNL     1      11.147  -6.647  -2.834  1.00  0.00     0.000 C 
BRANCH  11  12
HETATM   12  C   UNL     1      12.667  -6.664  -2.841  1.00  0.00     0.000 C 
BRANCH  12  13
HETATM   13  C   UNL     1      13.181  -7.976  -3.419  1.00  0.00     0.001 C 
BRANCH  13  14
HETATM   14  C   UNL     1      14.703  -7.986  -3.423  1.00  0.00     0.010 C 
BRANCH  14  15
HETATM   15  C   UNL     1      15.273  -9.284  -3.994  1.00  0.00     0.110 C 
BRANCH  15  16
HETATM   16  C   UNL     1      16.780  -9.240  -3.975  1.00  0.00     0.139 C 
HETATM   17  O   UNL     1      17.448  -8.300  -3.562  1.00  0.00    -0.650 OA
BRANCH  16  18
HETATM   18  O   UNL     1      17.362 -10.350  -4.463  1.00  0.00    -0.776 OA
HETATM   19  H   UNL     1      16.748 -11.041  -4.767  1.00  0.00     0.167 HD
ENDBRANCH  16  18
ENDBRANCH  15  16
ENDBRANCH  14  15
ENDBRANCH  13  14
ENDBRANCH  12  13
ENDBRANCH  11  12
ENDBRANCH   1  11
TORSDOF 15
