REMARK  29 active torsions:
REMARK  status: ('A' for Active; 'I' for Inactive)
REMARK    1  A    between atoms: C_2  and  C_3 
REMARK    2  A    between atoms: C_3  and  C_4 
REMARK    3  A    between atoms: C_4  and  C_5 
REMARK    4  A    between atoms: C_5  and  C_6 
REMARK    5  A    between atoms: C_6  and  C_7 
REMARK    6  A    between atoms: C_7  and  C_8 
REMARK    7  A    between atoms: C_8  and  C_9 
REMARK    8  A    between atoms: C_9  and  C_10 
REMARK    9  A    between atoms: C_10  and  C_11 
REMARK   10  A    between atoms: C_11  and  C_12 
REMARK   11  A    between atoms: C_12  and  C_13 
REMARK   12  A    between atoms: C_13  and  C_14 
REMARK   13  A    between atoms: C_14  and  C_15 
REMARK   14  A    between atoms: C_15  and  C_16 
REMARK       I    between atoms: C_16  and  N_18 
REMARK   15  A    between atoms: N_18  and  C_19 
REMARK   16  A    between atoms: C_19  and  C_20 
REMARK       I    between atoms: C_20  and  N_23 
REMARK   17  A    between atoms: N_23  and  CA_24 
REMARK   18  A    between atoms: CA_24  and  CB_25 
REMARK   19  A    between atoms: CA_24  and  C_30 
REMARK   20  A    between atoms: CB_25  and  CG_26 
REMARK   21  A    between atoms: CG_26  and  CD_27 
REMARK       I    between atoms: CD_27  and  NE2_29 
REMARK       I    between atoms: C_30  and  N_35 
REMARK   22  A    between atoms: CA_39  and  C_40 
REMARK       I    between atoms: C_40  and  N_42 
REMARK   23  A    between atoms: N_42  and  CA_43 
REMARK   24  A    between atoms: CA_43  and  CB_44 
REMARK   25  A    between atoms: CA_43  and  C_52 
REMARK   26  A    between atoms: CB_44  and  CG_45 
REMARK   27  A    between atoms: CG_45  and  CD_46 
REMARK   28  A    between atoms: CD_46  and  NE_47 
REMARK       I    between atoms: NE_47  and  CZ_49 
REMARK       I    between atoms: CZ_49  and  NH1_50 
REMARK   29  A    between atoms: C_52  and  OXT_54 
ROOT
ATOM      1  CA  GLN A   1      21.418  14.234   1.477  1.00  0.00     0.177 C 
ENDROOT
BRANCH   1   2
ATOM      2  N   GLN A   1      20.840  12.858   1.283  1.00  0.00    -0.346 N 
HETATM    3  C   UNK A   0      19.448  12.629   1.032  1.00  0.00     0.236 C 
HETATM    4  O   UNK A   0      18.612  13.548   0.963  1.00  0.00    -0.272 OA
ATOM      5  H   GLN A   1      21.506  12.093   1.217  1.00  0.00     0.163 HD
BRANCH   3   6
HETATM    6  C   UNK A   0      19.021  11.169   0.769  1.00  0.00     0.225 C 
BRANCH   6   7
HETATM    7  N   UNK A   0      17.582  11.075   0.466  1.00  0.00    -0.352 N 
HETATM    8  C   UNK A   0      16.981   9.868   0.193  1.00  0.00     0.217 C 
HETATM    9  O   UNK A   0      17.626   8.821   0.200  1.00  0.00    -0.274 OA
HETATM   10  H   UNK A   0      17.053  11.940   0.451  1.00  0.00     0.162 HD
BRANCH   8  11
HETATM   11  C   UNK A   0      15.489   9.935  -0.110  1.00  0.00     0.103 C 
BRANCH  11  12
HETATM   12  C   UNK A   0      15.244  10.804  -1.335  1.00  0.00     0.009 C 
BRANCH  12  13
HETATM   13  C   UNK A   0      13.767  10.900  -1.684  1.00  0.00     0.000 C 
BRANCH  13  14
HETATM   14  C   UNK A   0      13.577  11.781  -2.911  1.00  0.00     0.000 C 
BRANCH  14  15
HETATM   15  C   UNK A   0      12.102  11.880  -3.260  1.00  0.00     0.000 C 
BRANCH  15  16
HETATM   16  C   UNK A   0      11.913  12.758  -4.484  1.00  0.00     0.000 C 
BRANCH  16  17
HETATM   17  C   UNK A   0      10.439  12.852  -4.830  1.00  0.00     0.000 C 
BRANCH  17  18
HETATM   18  C   UNK A   0      10.251  13.728  -6.054  1.00  0.00     0.000 C 
BRANCH  18  19
HETATM   19  C   UNK A   0       8.777  13.820  -6.401  1.00  0.00     0.000 C 
BRANCH  19  20
HETATM   20  C   UNK A   0       8.590  14.694  -7.626  1.00  0.00     0.000 C 
BRANCH  20  21
HETATM   21  C   UNK A   0       7.116  14.788  -7.973  1.00  0.00     0.000 C 
BRANCH  21  22
HETATM   22  C   UNK A   0       6.928  15.663  -9.199  1.00  0.00     0.000 C 
BRANCH  22  23
HETATM   23  C   UNK A   0       5.453  15.758  -9.547  1.00  0.00    -0.000 C 
BRANCH  23  24
HETATM   24  C   UNK A   0       5.258  16.633 -10.775  1.00  0.00    -0.005 C 
HETATM   25  C   UNK A   0       3.786  16.726 -11.120  1.00  0.00     0.005 C 
ENDBRANCH  23  24
ENDBRANCH  22  23
ENDBRANCH  21  22
ENDBRANCH  20  21
ENDBRANCH  19  20
ENDBRANCH  18  19
ENDBRANCH  17  18
ENDBRANCH  16  17
ENDBRANCH  15  16
ENDBRANCH  14  15
ENDBRANCH  13  14
ENDBRANCH  12  13
ENDBRANCH  11  12
ENDBRANCH   8  11
ENDBRANCH   6   7
ENDBRANCH   3   6
ENDBRANCH   1   2
BRANCH   1  26
ATOM     26  CB  GLN A   1      20.720  14.863   2.696  1.00  0.00     0.044 C 
BRANCH  26  27
ATOM     27  CG  GLN A   1      20.882  14.131   4.009  1.00  0.00     0.105 C 
BRANCH  27  28
ATOM     28  CD  GLN A   1      22.278  14.022   4.448  1.00  0.00     0.215 C 
ATOM     29  OE1 GLN A   1      23.118  14.830   4.212  1.00  0.00    -0.274 OA
ATOM     30  NE2 GLN A   1      22.542  12.883   5.178  1.00  0.00    -0.370 N 
ATOM     31 1HE2 GLN A   1      21.825  12.138   5.403  1.00  0.00     0.159 HD
ATOM     32 2HE2 GLN A   1      23.444  12.661   5.318  1.00  0.00     0.159 HD
ENDBRANCH  27  28
ENDBRANCH  26  27
ENDBRANCH   1  26
BRANCH   1  33
ATOM     33  C   GLN A   1      22.999  14.313   1.500  1.00  0.00     0.243 C 
ATOM     34  O   GLN A   1      23.650  13.270   1.429  1.00  0.00    -0.271 OA
ATOM     35  N   PRO A   2      23.651  15.539   1.657  1.00  0.00    -0.337 N 
ATOM     36  CD  PRO A   2      23.046  16.868   1.721  1.00  0.00     0.127 C 
ATOM     37  CA  PRO A   2      25.127  15.729   1.760  1.00  0.00     0.179 C 
ATOM     38  CG  PRO A   2      24.005  17.755   0.971  1.00  0.00     0.022 C 
ATOM     39  CB  PRO A   2      25.338  17.264   1.465  1.00  0.00     0.037 C 
BRANCH  37  40
ATOM     40  C   PRO A   2      25.661  15.556   3.205  1.00  0.00     0.241 C 
ATOM     41  O   PRO A   2      25.985  16.546   3.874  1.00  0.00    -0.271 OA
ATOM     42  N   ARG A   3      25.734  14.294   3.751  1.00  0.00    -0.345 N 
ATOM     43  H   ARG A   3      25.572  13.487   3.178  1.00  0.00     0.163 HD
BRANCH  42  44
ATOM     44  CA  ARG A   3      26.295  14.082   5.075  1.00  0.00     0.182 C 
BRANCH  44  45
ATOM     45  CB  ARG A   3      25.700  12.835   5.739  1.00  0.00     0.038 C 
BRANCH  45  46
ATOM     46  CG  ARG A   3      25.845  11.581   4.889  1.00  0.00     0.023 C 
BRANCH  46  47
ATOM     47  CD  ARG A   3      27.277  11.175   4.690  1.00  0.00     0.138 C 
BRANCH  47  48
ATOM     48  NE  ARG A   3      27.336  10.002   3.854  1.00  0.00    -0.227 N 
ATOM     49  CZ  ARG A   3      28.381   9.921   3.092  1.00  0.00     0.665 C 
ATOM     50  NH1 ARG A   3      29.397  10.825   3.020  1.00  0.00    -0.235 N 
ATOM     51  NH2 ARG A   3      28.495   8.887   2.235  1.00  0.00    -0.235 N 
ATOM     52 HH11 ARG A   3      29.414  11.663   3.604  1.00  0.00     0.174 HD
ATOM     53 HH12 ARG A   3      30.226  10.719   2.458  1.00  0.00     0.174 HD
ATOM     54 HH21 ARG A   3      27.796   8.151   2.254  1.00  0.00     0.174 HD
ATOM     55 HH22 ARG A   3      29.316   8.727   1.683  1.00  0.00     0.174 HD
ATOM     56  HE  ARG A   3      26.608   9.288   3.862  1.00  0.00     0.177 HD
ENDBRANCH  47  48
ENDBRANCH  46  47
ENDBRANCH  45  46
ENDBRANCH  44  45
BRANCH  44  57
ATOM     57  C   ARG A   3      27.779  13.864   4.899  1.00  0.00     0.163 C 
ATOM     58  O   ARG A   3      28.325  13.868   3.799  1.00  0.00    -0.648 OA
BRANCH  57  59
ATOM     59  OXT ARG A   3      28.494  13.568   6.024  1.00  0.00    -0.775 OA
ATOM     60  HXT ARG A   3      28.060  13.576   6.899  1.00  0.00     0.167 HD
ENDBRANCH  57  59
ENDBRANCH  44  57
ENDBRANCH  42  44
ENDBRANCH  37  40
ENDBRANCH   1  33
TORSDOF 29
