REMARK  9 active torsions:
REMARK  status: ('A' for Active; 'I' for Inactive)
REMARK    1  A    between atoms: C_2  and  C_4 
REMARK    2  A    between atoms: C_2  and  C_6 
REMARK    3  A    between atoms: C_4  and  O_5 
REMARK    4  A    between atoms: C_6  and  C_7 
REMARK    5  A    between atoms: C_6  and  O_14 
REMARK       I    between atoms: C_7  and  N_9 
REMARK    6  A    between atoms: N_9  and  C_10 
REMARK    7  A    between atoms: C_10  and  C_11 
REMARK    8  A    between atoms: C_11  and  C_12 
REMARK    9  A    between atoms: C_12  and  O_13 
ROOT
HETATM    1  C   UNL     1       2.910   1.039   0.904  1.00  0.00     0.219 C 
ENDROOT
BRANCH   1   2
HETATM    2  C   UNL     1       2.448  -0.160   0.027  1.00  0.00     0.008 C 
HETATM    3  C   UNL     1       0.913  -0.308   0.029  1.00  0.00     0.020 C 
HETATM    4  C   UNL     1       3.071  -1.477   0.539  1.00  0.00     0.020 C 
BRANCH   2   5
HETATM    5  C   UNL     1       2.914   0.098  -1.430  1.00  0.00     0.175 C 
BRANCH   5   6
HETATM    6  O   UNL     1       2.546  -0.968  -2.302  1.00  0.00    -0.400 OA
HETATM    7  H   UNL     1       3.077  -1.745  -2.056  1.00  0.00     0.209 HD
ENDBRANCH   5   6
ENDBRANCH   2   5
ENDBRANCH   1   2
BRANCH   1   8
HETATM    8  C   UNL     1       2.495   0.917   2.382  1.00  0.00     0.247 C 
HETATM    9  O   UNL     1       3.241   0.379   3.206  1.00  0.00    -0.271 OA
HETATM   10  N   UNL     1       1.259   1.430   2.704  1.00  0.00    -0.359 N 
HETATM   11  H   UNL     1       0.718   1.922   2.002  1.00  0.00     0.162 HD
BRANCH  10  12
HETATM   12  C   UNL     1       0.735   1.352   4.054  1.00  0.00     0.125 C 
BRANCH  12  13
HETATM   13  C   UNL     1      -0.065   0.069   4.269  1.00  0.00     0.046 C 
BRANCH  13  14
HETATM   14  C   UNL     1      -0.607  -0.009   5.690  1.00  0.00     0.165 C 
BRANCH  14  15
HETATM   15  O   UNL     1       0.452   0.006   6.635  1.00  0.00    -0.401 OA
HETATM   16  H   UNL     1       0.999  -0.785   6.481  1.00  0.00     0.209 HD
ENDBRANCH  14  15
ENDBRANCH  13  14
ENDBRANCH  12  13
ENDBRANCH  10  12
ENDBRANCH   1   8
BRANCH   1  17
HETATM   17  O   UNL     1       4.337   1.155   0.841  1.00  0.00    -0.385 OA
HETATM   18  H   UNL     1       4.687   0.591   1.562  1.00  0.00     0.210 HD
ENDBRANCH   1  17
TORSDOF 9
