REMARK  29 active torsions:
REMARK  status: ('A' for Active; 'I' for Inactive)
REMARK    1  A    between atoms: C_2  and  C_3 
REMARK    2  A    between atoms: C_3  and  C_4 
REMARK    3  A    between atoms: C_4  and  C_5 
REMARK    4  A    between atoms: C_5  and  C_6 
REMARK    5  A    between atoms: C_6  and  C_7 
REMARK    6  A    between atoms: C_7  and  C_8 
REMARK    7  A    between atoms: C_8  and  C_9 
REMARK    8  A    between atoms: C_9  and  C_10 
REMARK    9  A    between atoms: C_10  and  C_11 
REMARK   10  A    between atoms: C_11  and  C_12 
REMARK   11  A    between atoms: C_12  and  O_14 
REMARK   12  A    between atoms: O_14  and  C_15 
REMARK   13  A    between atoms: C_15  and  C_16 
REMARK   14  A    between atoms: C_16  and  O_17 
REMARK   15  A    between atoms: O_17  and  C_18 
REMARK   16  A    between atoms: C_18  and  C_19 
REMARK   17  A    between atoms: C_19  and  C_20 
REMARK   18  A    between atoms: C_19  and  O_33 
REMARK   19  A    between atoms: C_21  and  O_29 
REMARK   20  A    between atoms: C_22  and  O_25 
REMARK   21  A    between atoms: O_25  and  C_26 
REMARK   22  A    between atoms: C_26  and  C_27 
REMARK   23  A    between atoms: C_27  and  O_28 
REMARK   24  A    between atoms: O_29  and  C_30 
REMARK   25  A    between atoms: C_30  and  C_31 
REMARK   26  A    between atoms: C_31  and  O_32 
REMARK   27  A    between atoms: O_33  and  C_34 
REMARK   28  A    between atoms: C_34  and  C_35 
REMARK   29  A    between atoms: C_35  and  O_36 
ROOT
HETATM    1  C   UNL     1      18.634   4.915   9.953  1.00  0.00     0.176 C 
ENDROOT
BRANCH   1   2
HETATM    2  C   UNL     1      17.105   5.082   9.993  1.00  0.00     0.202 C 
BRANCH   2   3
HETATM    3  O   UNL     1      16.546   4.498   8.836  1.00  0.00    -0.386 OA
BRANCH   3   4
HETATM    4  C   UNL     1      15.130   4.607   8.819  1.00  0.00     0.194 C 
BRANCH   4   5
HETATM    5  C   UNL     1      14.645   3.970   7.532  1.00  0.00     0.205 C 
BRANCH   5   6
HETATM    6  O   UNL     1      13.222   4.043   7.453  1.00  0.00    -0.319 OA
BRANCH   6   7
HETATM    7  C   UNL     1      12.781   5.266   7.064  1.00  0.00     0.258 C 
HETATM    8  O   UNL     1      13.523   6.226   6.774  1.00  0.00    -0.265 OA
BRANCH   7   9
HETATM    9  C   UNL     1      11.284   5.303   7.007  1.00  0.00     0.111 C 
BRANCH   9  10
HETATM   10  C   UNL     1      10.688   5.021   8.380  1.00  0.00     0.010 C 
BRANCH  10  11
HETATM   11  C   UNL     1       9.161   5.042   8.362  1.00  0.00     0.000 C 
BRANCH  11  12
HETATM   12  C   UNL     1       8.606   4.750   9.755  1.00  0.00     0.000 C 
BRANCH  12  13
HETATM   13  C   UNL     1       7.080   4.768   9.761  1.00  0.00     0.000 C 
BRANCH  13  14
HETATM   14  C   UNL     1       6.536   4.476  11.159  1.00  0.00     0.000 C 
BRANCH  14  15
HETATM   15  C   UNL     1       5.009   4.493  11.165  1.00  0.00     0.000 C 
BRANCH  15  16
HETATM   16  C   UNL     1       4.461   4.202  12.561  1.00  0.00     0.000 C 
BRANCH  16  17
HETATM   17  C   UNL     1       2.933   4.217  12.563  1.00  0.00    -0.000 C 
BRANCH  17  18
HETATM   18  C   UNL     1       2.379   3.927  13.957  1.00  0.00    -0.005 C 
HETATM   19  C   UNL     1       0.859   3.941  13.965  1.00  0.00     0.005 C 
ENDBRANCH  17  18
ENDBRANCH  16  17
ENDBRANCH  15  16
ENDBRANCH  14  15
ENDBRANCH  13  14
ENDBRANCH  12  13
ENDBRANCH  11  12
ENDBRANCH  10  11
ENDBRANCH   9  10
ENDBRANCH   7   9
ENDBRANCH   6   7
ENDBRANCH   5   6
ENDBRANCH   4   5
ENDBRANCH   3   4
ENDBRANCH   2   3
ENDBRANCH   1   2
BRANCH   1  20
HETATM   20  C   UNL     1      19.243   5.650   8.711  1.00  0.00     0.184 C 
HETATM   21  C   UNL     1      20.775   5.593   8.485  1.00  0.00     0.184 C 
HETATM   22  C   UNL     1      21.047   6.936   7.794  1.00  0.00     0.176 C 
HETATM   23  C   UNL     1      20.043   7.831   8.497  1.00  0.00     0.203 C 
HETATM   24  O   UNL     1      18.885   7.043   8.799  1.00  0.00    -0.378 OA
BRANCH  21  25
HETATM   25  O   UNL     1      21.109   4.496   7.637  1.00  0.00    -0.378 OA
BRANCH  25  26
HETATM   26  C   UNL     1      22.501   4.335   7.350  1.00  0.00     0.194 C 
BRANCH  26  27
HETATM   27  C   UNL     1      22.611   3.161   6.373  1.00  0.00     0.190 C 
BRANCH  27  28
HETATM   28  O   UNL     1      22.067   1.970   6.944  1.00  0.00    -0.399 OA
HETATM   29  H   UNL     1      21.096   2.084   6.959  1.00  0.00     0.209 HD
ENDBRANCH  27  28
ENDBRANCH  26  27
ENDBRANCH  25  26
ENDBRANCH  21  25
BRANCH  22  30
HETATM   30  O   UNL     1      20.767   6.892   6.374  1.00  0.00    -0.379 OA
BRANCH  30  31
HETATM   31  C   UNL     1      21.042   8.140   5.710  1.00  0.00     0.194 C 
BRANCH  31  32
HETATM   32  C   UNL     1      20.707   8.056   4.225  1.00  0.00     0.190 C 
BRANCH  32  33
HETATM   33  O   UNL     1      19.329   7.748   4.010  1.00  0.00    -0.399 OA
HETATM   34  H   UNL     1      19.099   7.050   4.651  1.00  0.00     0.209 HD
ENDBRANCH  32  33
ENDBRANCH  31  32
ENDBRANCH  30  31
ENDBRANCH  22  30
ENDBRANCH   1  20
BRANCH   1  35
HETATM   35  O   UNL     1      19.177   5.399  11.199  1.00  0.00    -0.379 OA
BRANCH  35  36
HETATM   36  C   UNL     1      18.695   4.697  12.368  1.00  0.00     0.194 C 
BRANCH  36  37
HETATM   37  C   UNL     1      19.333   5.343  13.596  1.00  0.00     0.190 C 
BRANCH  37  38
HETATM   38  O   UNL     1      18.994   6.729  13.689  1.00  0.00    -0.399 OA
HETATM   39  H   UNL     1      19.234   7.134  12.831  1.00  0.00     0.209 HD
ENDBRANCH  37  38
ENDBRANCH  36  37
ENDBRANCH  35  36
ENDBRANCH   1  35
TORSDOF 29
