REMARK  18 active torsions:
REMARK  status: ('A' for Active; 'I' for Inactive)
REMARK    1  A    between atoms: CG_2  and  CB_4 
REMARK    2  A    between atoms: CB_4  and  CA_5 
REMARK    3  A    between atoms: CA_5  and  C_6 
REMARK    4  A    between atoms: CA_5  and  N_9 
REMARK    5  A    between atoms: C_6  and  OXT_8 
REMARK       I    between atoms: N_9  and  C_12 
REMARK    6  A    between atoms: C_12  and  CA_14 
REMARK    7  A    between atoms: CA_14  and  CB_15 
REMARK    8  A    between atoms: CA_14  and  N_22 
REMARK    9  A    between atoms: CB_15  and  CG_16 
REMARK       I    between atoms: N_22  and  C_24 
REMARK   10  A    between atoms: C_24  and  CA_26 
REMARK   11  A    between atoms: CA_26  and  N_27 
REMARK       I    between atoms: N_27  and  C_29 
REMARK   12  A    between atoms: C_29  and  CA_31 
REMARK   13  A    between atoms: CA_31  and  N_33 
REMARK       I    between atoms: N_33  and  C_35 
REMARK   14  A    between atoms: C_35  and  CA_37 
REMARK   15  A    between atoms: CA_37  and  CB_38 
REMARK   16  A    between atoms: CA_37  and  N_46 
REMARK   17  A    between atoms: CB_38  and  CG_39 
REMARK   18  A    between atoms: CZ_42  and  OH_45 
ROOT
ATOM      1  N   PHE A   4       8.485   4.729   1.244  1.00  0.00    -0.346 N 
ATOM      2  H   PHE A   4       8.904   3.800   1.262  1.00  0.00     0.163 HD
ATOM      3  C   GLY A   3       9.254   5.784   1.666  1.00  0.00     0.236 C 
ATOM      4  O   GLY A   3       8.762   6.874   1.949  1.00  0.00    -0.272 OA
ENDROOT
BRANCH   3   5
ATOM      5  CA  GLY A   3      10.767   5.563   1.644  1.00  0.00     0.225 C 
BRANCH   5   6
ATOM      6  N   GLY A   3      11.201   4.193   1.379  1.00  0.00    -0.351 N 
ATOM      7  C   ALA A   2      12.008   3.500   2.260  1.00  0.00     0.240 C 
ATOM      8  O   ALA A   2      12.287   3.940   3.374  1.00  0.00    -0.271 OA
ATOM      9  H   GLY A   3      10.992   3.765   0.483  1.00  0.00     0.163 HD
BRANCH   7  10
ATOM     10  CA  ALA A   2      12.518   2.125   1.740  1.00  0.00     0.172 C 
ATOM     11  CB  ALA A   2      13.915   1.881   2.332  1.00  0.00     0.042 C 
BRANCH  10  12
ATOM     12  N   ALA A   2      11.630   0.987   2.058  1.00  0.00    -0.346 N 
ATOM     13  C   TYR A   1      10.498   0.618   1.333  1.00  0.00     0.251 C 
ATOM     14  O   TYR A   1      10.008   1.373   0.496  1.00  0.00    -0.271 OA
ATOM     15  H   ALA A   2      11.973   0.290   2.711  1.00  0.00     0.163 HD
BRANCH  13  16
ATOM     16  CA  TYR A   1       9.872  -0.793   1.803  1.00  0.00     0.313 C 
BRANCH  16  17
ATOM     17  CB  TYR A   1       8.603  -1.360   1.018  1.00  0.00     0.083 C 
BRANCH  17  18
ATOM     18  CG  TYR A   1       7.578  -2.415   1.639  1.00  0.00    -0.056 A 
ATOM     19  CD1 TYR A   1       6.435  -2.172   2.463  1.00  0.00     0.010 A 
ATOM     20  CE1 TYR A   1       5.455  -3.087   2.859  1.00  0.00     0.037 A 
ATOM     21  CZ  TYR A   1       5.605  -4.376   2.452  1.00  0.00     0.065 A 
ATOM     22  CE2 TYR A   1       6.726  -4.713   1.680  1.00  0.00     0.037 A 
ATOM     23  CD2 TYR A   1       7.686  -3.750   1.269  1.00  0.00     0.010 A 
BRANCH  21  24
ATOM     24  OH  TYR A   1       4.683  -5.304   2.781  1.00  0.00    -0.361 OA
ATOM     25  HH  TYR A   1       3.945  -4.846   3.225  1.00  0.00     0.217 HD
ENDBRANCH  21  24
ENDBRANCH  17  18
ENDBRANCH  16  17
BRANCH  16  26
ATOM     26  N   TYR A   1      10.963  -1.784   1.966  1.00  0.00     0.092 N 
ATOM     27  H1  TYR A   1      11.193  -2.184   1.057  1.00  0.00     0.313 HD
ATOM     28  H2  TYR A   1      10.577  -2.554   2.518  1.00  0.00     0.313 HD
ENDBRANCH  16  26
ENDBRANCH  13  16
ENDBRANCH  10  12
ENDBRANCH   7  10
ENDBRANCH   5   6
ENDBRANCH   3   5
BRANCH   1  29
ATOM     29  CA  PHE A   4       7.014   4.832   1.242  1.00  0.00     0.180 C 
BRANCH  29  30
ATOM     30  C   PHE A   4       6.489   4.171  -0.050  1.00  0.00     0.241 C 
ATOM     31  N   LEU A   5       7.304   4.389  -1.133  1.00  0.00    -0.345 N 
ATOM     32  H   LEU A   5       8.253   4.689  -0.931  1.00  0.00     0.163 HD
ATOM     33  O   PHE A   4       5.408   3.610  -0.197  1.00  0.00    -0.271 OA
BRANCH  31  34
ATOM     34  CA  LEU A   5       6.960   3.962  -2.484  1.00  0.00     0.182 C 
BRANCH  34  35
ATOM     35  CB  LEU A   5       7.479   5.014  -3.468  1.00  0.00     0.040 C 
BRANCH  35  36
ATOM     36  CG  LEU A   5       7.120   4.780  -4.945  1.00  0.00    -0.020 C 
ATOM     37  CD1 LEU A   5       5.613   4.713  -5.189  1.00  0.00     0.009 C 
ATOM     38  CD2 LEU A   5       7.727   5.890  -5.808  1.00  0.00     0.009 C 
ENDBRANCH  35  36
ENDBRANCH  34  35
BRANCH  34  39
ATOM     39  C   LEU A   5       7.505   2.539  -2.698  1.00  0.00     0.163 C 
ATOM     40  O   LEU A   5       8.330   2.217  -3.539  1.00  0.00    -0.648 OA
BRANCH  39  41
ATOM     41  OXT LEU A   5       6.947   1.631  -1.853  1.00  0.00    -0.775 OA
ATOM     42  HXT LEU A   5       6.291   2.041  -1.246  1.00  0.00     0.167 HD
ENDBRANCH  39  41
ENDBRANCH  34  39
ENDBRANCH  31  34
ENDBRANCH  29  30
BRANCH  29  43
ATOM     43  CB  PHE A   4       6.372   4.358   2.533  1.00  0.00     0.073 C 
BRANCH  43  44
ATOM     44  CG  PHE A   4       6.798   2.951   2.813  1.00  0.00    -0.056 A 
ATOM     45  CD1 PHE A   4       7.927   2.690   3.604  1.00  0.00     0.007 A 
ATOM     46  CE1 PHE A   4       8.287   1.395   3.890  1.00  0.00     0.001 A 
ATOM     47  CZ  PHE A   4       7.558   0.426   3.274  1.00  0.00     0.000 A 
ATOM     48  CE2 PHE A   4       6.610   0.710   2.271  1.00  0.00     0.001 A 
ATOM     49  CD2 PHE A   4       6.114   1.950   2.144  1.00  0.00     0.007 A 
ENDBRANCH  43  44
ENDBRANCH  29  43
ENDBRANCH   1  29
TORSDOF 18
