REMARK  23 active torsions:
REMARK  status: ('A' for Active; 'I' for Inactive)
REMARK    1  A    between atoms: C_2  and  C_5 
REMARK    2  A    between atoms: C_9  and  C_12 
REMARK    3  A    between atoms: C_10  and  O_11 
REMARK    4  A    between atoms: C_22  and  C_44 
REMARK    5  A    between atoms: C_22  and  C_65 
REMARK    6  A    between atoms: C_32  and  O_39 
REMARK    7  A    between atoms: C_33  and  C_35 
REMARK    8  A    between atoms: C_44  and  O_45 
REMARK    9  A    between atoms: O_45  and  C_46 
REMARK   10  A    between atoms: C_46  and  C_48 
REMARK   11  A    between atoms: C_48  and  C_49 
REMARK   12  A    between atoms: C_49  and  C_50 
REMARK   13  A    between atoms: C_52  and  C_61 
REMARK   14  A    between atoms: C_53  and  O_60 
REMARK   15  A    between atoms: C_54  and  C_56 
REMARK   16  A    between atoms: C_65  and  O_66 
REMARK   17  A    between atoms: O_66  and  C_67 
REMARK   18  A    between atoms: C_67  and  C_69 
REMARK   19  A    between atoms: C_69  and  C_70 
REMARK   20  A    between atoms: C_70  and  C_71 
REMARK   21  A    between atoms: C_73  and  C_82 
REMARK   22  A    between atoms: C_74  and  O_81 
REMARK   23  A    between atoms: C_75  and  C_77 
ROOT
HETATM    1  C   UNL     1       3.824   5.628 -13.294  1.00  0.00    -0.017 C 
HETATM    2  C   UNL     1       4.322   4.298 -12.361  1.00  0.00     0.014 C 
HETATM    3  C   UNL     1       3.577   2.718 -12.383  1.00  0.00    -0.071 C 
HETATM    4  C   UNL     1       2.056   2.580 -13.647  1.00  0.00     0.044 C 
HETATM    5  C   UNL     1       1.386   4.182 -14.400  1.00  0.00    -0.031 C 
HETATM    6  C   UNL     1       2.412   5.582 -14.244  1.00  0.00     0.076 C 
HETATM    7  C   UNL     1       4.028   1.620 -10.662  1.00  0.00     0.044 C 
HETATM    8  C   UNL     1       5.160   1.048  -9.910  1.00  0.00     0.115 C 
HETATM    9  C   UNL     1       5.421   1.938  -8.778  1.00  0.00     0.259 C 
HETATM   10  O   UNL     1       4.639   2.501  -8.030  1.00  0.00    -0.265 OA
HETATM   11  O   UNL     1       6.740   2.054  -8.823  1.00  0.00    -0.320 OA
HETATM   12  C   UNL     1       7.177   3.171  -8.126  1.00  0.00     0.195 C 
HETATM   13  C   UNL     1       7.286   4.353  -9.071  1.00  0.00     0.048 C 
HETATM   14  C   UNL     1       5.985   5.146  -9.305  1.00  0.00     0.195 C 
HETATM   15  O   UNL     1       5.070   5.448  -8.202  1.00  0.00    -0.320 OA
HETATM   16  C   UNL     1       4.530   6.722  -8.180  1.00  0.00     0.259 C 
HETATM   17  O   UNL     1       5.068   7.695  -8.695  1.00  0.00    -0.265 OA
HETATM   18  C   UNL     1       3.218   6.813  -7.394  1.00  0.00     0.116 C 
HETATM   19  C   UNL     1       2.044   7.657  -8.052  1.00  0.00     0.048 C 
HETATM   20  C   UNL     1       1.138   7.110  -9.175  1.00  0.00    -0.056 C 
HETATM   21  C   UNL     1       1.067   5.795  -9.500  1.00  0.00     0.018 C 
HETATM   22  C   UNL     1       0.798   5.172 -11.040  1.00  0.00    -0.016 C 
HETATM   23  C   UNL     1       0.329   6.142 -11.744  1.00  0.00     0.079 C 
HETATM   24  C   UNL     1      -0.134   7.364 -11.353  1.00  0.00    -0.016 C 
HETATM   25  C   UNL     1       0.363   7.858 -10.069  1.00  0.00     0.018 C 
HETATM   26  C   UNL     1       2.015   3.837 -12.165  1.00  0.00    -0.020 C 
HETATM   27  C   UNL     1       3.383   3.489 -10.525  1.00  0.00     0.019 C 
HETATM   28  C   UNL     1       0.571   2.369 -12.341  1.00  0.00     0.019 C 
HETATM   29  C   UNL     1       3.338   3.749 -14.012  1.00  0.00     0.036 C 
ENDROOT
BRANCH  13  30
HETATM   30  C   UNL     1       7.991   5.454  -8.326  1.00  0.00     0.195 C 
BRANCH  30  31
HETATM   31  O   UNL     1       9.238   4.978  -7.919  1.00  0.00    -0.320 OA
BRANCH  31  32
HETATM   32  C   UNL     1      10.244   5.684  -8.473  1.00  0.00     0.259 C 
HETATM   33  O   UNL     1      10.309   5.998  -9.650  1.00  0.00    -0.265 OA
BRANCH  32  34
HETATM   34  C   UNL     1      11.105   6.190  -7.363  1.00  0.00     0.116 C 
BRANCH  34  35
HETATM   35  C   UNL     1      11.106   5.204  -6.194  1.00  0.00     0.048 C 
BRANCH  35  36
HETATM   36  C   UNL     1      11.954   5.635  -5.029  1.00  0.00    -0.056 C 
HETATM   37  C   UNL     1      11.373   6.357  -3.985  1.00  0.00     0.018 C 
HETATM   38  C   UNL     1      12.055   6.664  -2.783  1.00  0.00    -0.016 C 
HETATM   39  C   UNL     1      13.323   6.087  -2.633  1.00  0.00     0.079 C 
HETATM   40  C   UNL     1      13.984   5.421  -3.685  1.00  0.00    -0.016 C 
HETATM   41  C   UNL     1      13.284   5.249  -4.907  1.00  0.00     0.018 C 
BRANCH  38  42
HETATM   42  C   UNL     1      11.396   7.554  -1.712  1.00  0.00    -0.021 C 
HETATM   43  C   UNL     1      10.066   8.125  -2.251  1.00  0.00     0.019 C 
HETATM   44  C   UNL     1      11.096   6.796  -0.399  1.00  0.00     0.019 C 
HETATM   45  C   UNL     1      12.265   8.789  -1.368  1.00  0.00     0.019 C 
ENDBRANCH  38  42
BRANCH  39  46
HETATM   46  O   UNL     1      13.909   5.980  -1.406  1.00  0.00    -0.360 OA
HETATM   47  H   UNL     1      13.571   6.614  -0.771  1.00  0.00     0.217 HD
ENDBRANCH  39  46
BRANCH  40  48
HETATM   48  C   UNL     1      15.258   4.585  -3.423  1.00  0.00    -0.021 C 
HETATM   49  C   UNL     1      14.660   3.181  -3.223  1.00  0.00     0.019 C 
HETATM   50  C   UNL     1      16.239   4.582  -4.614  1.00  0.00     0.019 C 
HETATM   51  C   UNL     1      16.111   4.873  -2.151  1.00  0.00     0.019 C 
ENDBRANCH  40  48
ENDBRANCH  35  36
ENDBRANCH  34  35
ENDBRANCH  32  34
ENDBRANCH  31  32
ENDBRANCH  30  31
ENDBRANCH  13  30
BRANCH  13  52
HETATM   52  C   UNL     1       8.136   3.843 -10.375  1.00  0.00     0.195 C 
BRANCH  52  53
HETATM   53  O   UNL     1       7.757   2.562 -11.177  1.00  0.00    -0.320 OA
BRANCH  53  54
HETATM   54  C   UNL     1       6.866   2.843 -12.118  1.00  0.00     0.258 C 
HETATM   55  O   UNL     1       6.535   4.001 -12.021  1.00  0.00    -0.265 OA
BRANCH  54  56
HETATM   56  C   UNL     1       6.340   2.060 -13.349  1.00  0.00     0.112 C 
BRANCH  56  57
HETATM   57  C   UNL     1       5.558   0.569 -13.362  1.00  0.00     0.022 C 
BRANCH  57  58
HETATM   58  C   UNL     1       3.801  -0.020 -13.114  1.00  0.00     0.032 C 
HETATM   59  C   UNL     1       2.961   0.813 -12.338  1.00  0.00    -0.008 C 
HETATM   60  C   UNL     1       1.858   1.464 -10.981  1.00  0.00    -0.020 C 
HETATM   61  C   UNL     1       1.375   0.282 -10.549  1.00  0.00     0.079 C 
HETATM   62  C   UNL     1       2.181  -0.891 -11.112  1.00  0.00    -0.020 C 
HETATM   63  C   UNL     1       3.444  -0.989 -12.260  1.00  0.00    -0.008 C 
BRANCH  60  64
HETATM   64  C   UNL     1       1.373   3.310 -10.336  1.00  0.00    -0.022 C 
HETATM   65  C   UNL     1       2.625   5.146 -10.731  1.00  0.00     0.019 C 
HETATM   66  C   UNL     1      -0.521   3.402 -10.617  1.00  0.00     0.019 C 
HETATM   67  C   UNL     1       0.898   3.305  -8.761  1.00  0.00     0.019 C 
ENDBRANCH  60  64
BRANCH  61  68
HETATM   68  O   UNL     1       0.255   0.170  -9.817  1.00  0.00    -0.360 OA
HETATM   69  H   UNL     1      -0.281   0.970  -9.899  1.00  0.00     0.217 HD
ENDBRANCH  61  68
BRANCH  62  70
HETATM   70  C   UNL     1       1.778  -2.271 -10.757  1.00  0.00    -0.022 C 
HETATM   71  C   UNL     1       1.007  -2.607 -12.043  1.00  0.00     0.019 C 
HETATM   72  C   UNL     1       3.088  -3.005 -10.470  1.00  0.00     0.019 C 
HETATM   73  C   UNL     1       0.937  -2.301  -9.493  1.00  0.00     0.019 C 
ENDBRANCH  62  70
ENDBRANCH  57  58
ENDBRANCH  56  57
ENDBRANCH  54  56
ENDBRANCH  53  54
ENDBRANCH  52  53
ENDBRANCH  13  52
BRANCH   1  74
HETATM   74  C   UNL     1       4.980   6.540 -13.548  1.00  0.00    -0.021 C 
HETATM   75  C   UNL     1       6.215   6.392 -12.662  1.00  0.00     0.019 C 
HETATM   76  C   UNL     1       4.327   7.823 -13.147  1.00  0.00     0.019 C 
HETATM   77  C   UNL     1       5.510   6.180 -14.940  1.00  0.00     0.019 C 
ENDBRANCH   1  74
BRANCH   5  78
HETATM   78  C   UNL     1      -0.418   4.532 -14.674  1.00  0.00    -0.025 C 
HETATM   79  C   UNL     1      -1.246   5.491 -13.732  1.00  0.00     0.019 C 
HETATM   80  C   UNL     1      -0.506   5.465 -15.890  1.00  0.00     0.019 C 
HETATM   81  C   UNL     1      -1.557   3.519 -14.418  1.00  0.00     0.019 C 
ENDBRANCH   5  78
BRANCH  24  82
HETATM   82  C   UNL     1      -1.275   7.992 -12.220  1.00  0.00    -0.021 C 
HETATM   83  C   UNL     1      -2.559   7.339 -11.593  1.00  0.00     0.019 C 
HETATM   84  C   UNL     1      -0.984   9.452 -12.041  1.00  0.00     0.019 C 
HETATM   85  C   UNL     1      -1.431   8.112 -13.843  1.00  0.00     0.019 C 
ENDBRANCH  24  82
BRANCH   6  86
HETATM   86  O   UNL     1       2.344   6.619 -15.135  1.00  0.00    -0.360 OA
HETATM   87  H   UNL     1       1.674   6.399 -15.782  1.00  0.00     0.217 HD
ENDBRANCH   6  86
BRANCH  23  88
HETATM   88  O   UNL     1       0.614   5.545 -12.826  1.00  0.00    -0.360 OA
HETATM   89  H   UNL     1       0.241   4.634 -12.685  1.00  0.00     0.217 HD
ENDBRANCH  23  88
TORSDOF 23
