REMARK  2 active torsions:
REMARK  status: ('A' for Active; 'I' for Inactive)
REMARK    1  A    between atoms: C_1  and  C_2 
REMARK    2  A    between atoms: C_1  and  C_5 
ROOT
HETATM    1  C   UNL     1       1.003  -0.063   0.118  1.00  0.00     0.188 C 
ENDROOT
BRANCH   1   2
HETATM    2  C   UNL     1       0.497  -1.105  -0.837  1.00  0.00     0.361 C 
HETATM    3  F   UNL     1      -0.861  -1.140  -0.758  1.00  0.00    -0.214 F 
HETATM    4  F   UNL     1       0.801  -0.744  -2.109  1.00  0.00    -0.214 F 
ENDBRANCH   1   2
BRANCH   1   5
HETATM    5  C   UNL     1       2.500  -0.042   0.104  1.00  0.00     0.392 C 
HETATM    6  F   UNL     1       3.042  -1.063  -0.588  1.00  0.00    -0.171 F 
HETATM    7  F   UNL     1       2.970   1.112  -0.421  1.00  0.00    -0.171 F 
HETATM    8  F   UNL     1       2.976  -0.127   1.368  1.00  0.00    -0.171 F 
ENDBRANCH   1   5
TORSDOF 2
