REMARK  7 active torsions:
REMARK  status: ('A' for Active; 'I' for Inactive)
REMARK    1  A    between atoms: SI_2  and  O_5 
REMARK    2  A    between atoms: O_5  and  SI_6 
REMARK    3  A    between atoms: SI_6  and  C_7 
REMARK    4  A    between atoms: SI_6  and  O_13 
REMARK    5  A    between atoms: SI_6  and  O_18 
REMARK    6  A    between atoms: O_13  and  SI_14 
REMARK    7  A    between atoms: O_18  and  SI_19 
ROOT
HETATM    1 SI   UNL     1       5.199   1.282   0.498  1.00  0.00     0.000 Si
ENDROOT
BRANCH   1   2
HETATM    2  O   UNL     1       3.594   0.867   0.683  1.00  0.00     0.000 OA
BRANCH   2   3
HETATM    3 SI   UNL     1       2.605  -0.493   0.574  1.00  0.00     0.000 Si
HETATM    4  C   UNL     1       2.836  -1.453  -1.024  1.00  0.00     0.000 C 
HETATM    5  C   UNL     1       0.804   0.021   0.760  1.00  0.00     0.000 C 
HETATM    6  C   UNL     1       2.880  -1.791   1.930  1.00  0.00     0.000 C 
ENDBRANCH   2   3
ENDBRANCH   1   2
BRANCH   1   7
HETATM    7  C   UNL     1       6.130   0.447   1.911  1.00  0.00    -0.026 C 
HETATM    8  C   UNL     1       5.410  -0.020   3.032  1.00  0.00     0.012 C 
HETATM    9  C   UNL     1       6.037  -0.719   4.058  1.00  0.00     0.001 C 
HETATM   10  C   UNL     1       7.421  -0.846   4.061  1.00  0.00     0.000 C 
HETATM   11  C   UNL     1       8.163  -0.279   3.024  1.00  0.00     0.001 C 
HETATM   12  C   UNL     1       7.520   0.361   1.950  1.00  0.00     0.012 C 
ENDBRANCH   1   7
BRANCH   1  13
HETATM   13  O   UNL     1       5.725   0.741  -0.978  1.00  0.00     0.000 OA
BRANCH  13  14
HETATM   14 SI   UNL     1       5.559   1.104  -2.607  1.00  0.00     0.000 Si
HETATM   15  C   UNL     1       6.108   2.864  -2.959  1.00  0.00     0.000 C 
HETATM   16  C   UNL     1       6.522  -0.148  -3.636  1.00  0.00     0.000 C 
HETATM   17  C   UNL     1       3.786   1.013  -3.266  1.00  0.00     0.000 C 
ENDBRANCH  13  14
ENDBRANCH   1  13
BRANCH   1  18
HETATM   18  O   UNL     1       5.529   2.904   0.667  1.00  0.00     0.000 OA
BRANCH  18  19
HETATM   19 SI   UNL     1       5.578   4.100   1.838  1.00  0.00     0.000 Si
HETATM   20  C   UNL     1       6.591   5.613   1.322  1.00  0.00     0.000 C 
HETATM   21  C   UNL     1       3.821   4.659   2.181  1.00  0.00     0.000 C 
HETATM   22  C   UNL     1       6.373   3.535   3.453  1.00  0.00     0.000 C 
ENDBRANCH  18  19
ENDBRANCH   1  18
TORSDOF 7
