REMARK  3 active torsions:
REMARK  status: ('A' for Active; 'I' for Inactive)
REMARK    1  A    between atoms: C_2  and  C_3 
REMARK    2  A    between atoms: C_3  and  C_4 
REMARK    3  A    between atoms: C_3  and  O_10 
ROOT
HETATM    1  C   UNL     1       2.535  -2.570   0.170  1.00  0.00    -0.030 A 
HETATM    2  C   UNL     1       2.330  -2.788  -1.200  1.00  0.00     0.010 A 
HETATM    3  C   UNL     1       2.081  -4.072  -1.690  1.00  0.00     0.001 A 
HETATM    4  C   UNL     1       2.046  -5.160  -0.822  1.00  0.00     0.000 A 
HETATM    5  C   UNL     1       2.261  -4.966   0.540  1.00  0.00     0.001 A 
HETATM    6  C   UNL     1       2.506  -3.682   1.031  1.00  0.00     0.010 A 
ENDROOT
BRANCH   1   7
HETATM    7  C   UNL     1       2.852  -1.206   0.752  1.00  0.00     0.150 C 
BRANCH   7   8
HETATM    8  C   UNL     1       2.318   0.025   0.007  1.00  0.00     0.032 C 
HETATM    9  C   UNL     1       0.801   0.111  -0.035  1.00  0.00     0.008 C 
ENDBRANCH   7   8
BRANCH   7  10
HETATM   10  O   UNL     1       4.276  -1.073   0.811  1.00  0.00    -0.391 OA
HETATM   11  H   UNL     1       4.645  -1.598   0.078  1.00  0.00     0.210 HD
ENDBRANCH   7  10
ENDBRANCH   1   7
TORSDOF 3
