REMARK  3 active torsions:
REMARK  status: ('A' for Active; 'I' for Inactive)
REMARK    1  A    between atoms: C_4  and  C_7 
REMARK    2  A    between atoms: C_7  and  C_8 
REMARK    3  A    between atoms: C_8  and  O_9 
ROOT
HETATM    1  C   UNL     1       1.421  -0.183   0.083  1.00  0.00     0.000 A 
HETATM    2  C   UNL     1       0.568  -1.284   0.043  1.00  0.00     0.001 A 
HETATM    3  C   UNL     1      -0.814  -1.100  -0.040  1.00  0.00     0.007 A 
HETATM    4  C   UNL     1      -1.353   0.192  -0.095  1.00  0.00    -0.056 A 
HETATM    5  C   UNL     1      -0.486   1.292  -0.044  1.00  0.00     0.007 A 
HETATM    6  C   UNL     1       0.895   1.106   0.044  1.00  0.00     0.001 A 
ENDROOT
BRANCH   4   7
HETATM    7  C   UNL     1      -2.846   0.406  -0.204  1.00  0.00     0.064 C 
BRANCH   7   8
HETATM    8  C   UNL     1      -3.554   0.462   1.148  1.00  0.00     0.168 C 
BRANCH   8   9
HETATM    9  O   UNL     1      -3.126   1.579   1.920  1.00  0.00    -0.401 OA
HETATM   10  H   UNL     1      -2.196   1.415   2.159  1.00  0.00     0.209 HD
ENDBRANCH   8   9
ENDBRANCH   7   8
ENDBRANCH   4   7
TORSDOF 3
