REMARK  0 active torsions:
REMARK  status: ('A' for Active; 'I' for Inactive)
ROOT
HETATM    1  C   UNL     1       2.290   0.097   0.288  1.00  0.00     0.042 C 
HETATM    2  C   UNL     1       3.748   0.282   0.084  1.00  0.00     0.141 A 
HETATM    3  C   UNL     1       4.282   0.958  -1.152  1.00  0.00     0.199 A 
HETATM    4  O   UNL     1       4.283  -0.471  -1.012  1.00  0.00    -0.382 OA
ENDROOT
TORSDOF 0
