REMARK  32 active torsions:
REMARK  status: ('A' for Active; 'I' for Inactive)
REMARK    1  A    between atoms: C_2  and  C_3 
REMARK    2  A    between atoms: C_3  and  C_4 
REMARK    3  A    between atoms: C_4  and  C_5 
REMARK    4  A    between atoms: C_5  and  C_6 
REMARK    5  A    between atoms: C_6  and  C_7 
REMARK    6  A    between atoms: C_7  and  C_8 
REMARK    7  A    between atoms: C_7  and  O_36 
REMARK    8  A    between atoms: C_8  and  C_9 
REMARK    9  A    between atoms: C_10  and  C_11 
REMARK   10  A    between atoms: C_11  and  C_12 
REMARK   11  A    between atoms: C_12  and  C_13 
REMARK   12  A    between atoms: C_13  and  C_14 
REMARK   13  A    between atoms: C_14  and  C_15 
REMARK   14  A    between atoms: C_15  and  C_16 
REMARK   15  A    between atoms: C_16  and  C_17 
REMARK   16  A    between atoms: C_17  and  C_18 
REMARK   17  A    between atoms: C_18  and  O_20 
REMARK   18  A    between atoms: O_20  and  C_21 
REMARK   19  A    between atoms: C_21  and  C_22 
REMARK   20  A    between atoms: C_22  and  C_23 
REMARK   21  A    between atoms: C_22  and  O_35 
REMARK   22  A    between atoms: C_23  and  O_24 
REMARK   23  A    between atoms: O_24  and  C_25 
REMARK   24  A    between atoms: C_25  and  C_26 
REMARK   25  A    between atoms: C_26  and  C_27 
REMARK   26  A    between atoms: C_26  and  O_34 
REMARK   27  A    between atoms: C_27  and  O_28 
REMARK   28  A    between atoms: O_28  and  C_29 
REMARK   29  A    between atoms: C_29  and  C_30 
REMARK   30  A    between atoms: C_30  and  C_31 
REMARK   31  A    between atoms: C_30  and  O_33 
REMARK   32  A    between atoms: C_31  and  O_32 
ROOT
HETATM    1  C   UNL     1      -1.173   3.265  11.392  1.00  0.00     0.258 C 
HETATM    2  O   UNL     1      -1.217   4.415  11.838  1.00  0.00    -0.265 OA
ENDROOT
BRANCH   1   3
HETATM    3  C   UNL     1      -2.306   2.756  10.490  1.00  0.00     0.111 C 
BRANCH   3   4
HETATM    4  C   UNL     1      -2.307   1.686   9.382  1.00  0.00     0.010 C 
BRANCH   4   5
HETATM    5  C   UNL     1      -1.525   1.892   8.075  1.00  0.00     0.000 C 
BRANCH   5   6
HETATM    6  C   UNL     1      -0.035   1.573   8.140  1.00  0.00     0.000 C 
BRANCH   6   7
HETATM    7  C   UNL     1       0.250   0.086   8.393  1.00  0.00     0.000 C 
BRANCH   7   8
HETATM    8  C   UNL     1       1.747  -0.220   8.574  1.00  0.00     0.004 C 
BRANCH   8   9
HETATM    9  C   UNL     1       2.410   0.518   9.738  1.00  0.00     0.027 C 
BRANCH   9  10
HETATM   10  C   UNL     1       1.710   0.122  10.990  1.00  0.00    -0.031 C 
HETATM   11  C   UNL     1       2.248  -0.318  12.121  1.00  0.00    -0.028 C 
BRANCH  11  12
HETATM   12  C   UNL     1       1.454  -0.574  13.363  1.00  0.00     0.058 C 
BRANCH  12  13
HETATM   13  C   UNL     1      -0.121  -0.588  13.413  1.00  0.00     0.121 C 
BRANCH  13  14
HETATM   14  C   UNL     1      -0.835  -1.587  12.525  1.00  0.00     0.032 C 
BRANCH  14  15
HETATM   15  C   UNL     1      -0.332  -2.984  12.764  1.00  0.00     0.002 C 
BRANCH  15  16
HETATM   16  C   UNL     1      -0.485  -3.322  14.239  1.00  0.00     0.000 C 
BRANCH  16  17
HETATM   17  C   UNL     1       0.048  -4.692  14.541  1.00  0.00    -0.000 C 
BRANCH  17  18
HETATM   18  C   UNL     1      -0.278  -5.055  15.981  1.00  0.00    -0.005 C 
HETATM   19  C   UNL     1       0.204  -6.459  16.254  1.00  0.00     0.005 C 
ENDBRANCH  17  18
ENDBRANCH  16  17
ENDBRANCH  15  16
ENDBRANCH  14  15
ENDBRANCH  13  14
BRANCH  13  20
HETATM   20  O   UNL     1      -0.817   0.616  13.185  1.00  0.00    -0.395 OA
HETATM   21  H   UNL     1      -0.725   0.868  12.252  1.00  0.00     0.210 HD
ENDBRANCH  13  20
ENDBRANCH  12  13
ENDBRANCH  11  12
ENDBRANCH   9  10
ENDBRANCH   8   9
ENDBRANCH   7   8
ENDBRANCH   6   7
ENDBRANCH   5   6
ENDBRANCH   4   5
ENDBRANCH   3   4
ENDBRANCH   1   3
BRANCH   1  22
HETATM   22  O   UNL     1      -0.232   2.392  11.805  1.00  0.00    -0.319 OA
BRANCH  22  23
HETATM   23  C   UNL     1       0.860   2.874  12.667  1.00  0.00     0.212 C 
BRANCH  23  24
HETATM   24  C   UNL     1       0.820   2.959  14.249  1.00  0.00     0.166 C 
BRANCH  24  25
HETATM   25  C   UNL     1       0.317   1.879  15.237  1.00  0.00     0.201 C 
BRANCH  25  26
HETATM   26  O   UNL     1       0.392   2.262  16.621  1.00  0.00    -0.386 OA
BRANCH  26  27
HETATM   27  C   UNL     1      -0.794   2.948  17.037  1.00  0.00     0.201 C 
BRANCH  27  28
HETATM   28  C   UNL     1      -0.839   2.869  18.555  1.00  0.00     0.165 C 
BRANCH  28  29
HETATM   29  C   UNL     1      -1.212   1.511  19.181  1.00  0.00     0.201 C 
BRANCH  29  30
HETATM   30  O   UNL     1      -2.550   1.006  19.012  1.00  0.00    -0.386 OA
BRANCH  30  31
HETATM   31  C   UNL     1      -2.926   0.272  17.837  1.00  0.00     0.201 C 
BRANCH  31  32
HETATM   32  C   UNL     1      -2.318  -1.135  17.679  1.00  0.00     0.165 C 
BRANCH  32  33
HETATM   33  C   UNL     1      -2.963  -1.923  16.523  1.00  0.00     0.198 C 
BRANCH  33  34
HETATM   34  O   UNL     1      -4.349  -2.174  16.697  1.00  0.00    -0.398 OA
HETATM   35  H   UNL     1      -4.620  -2.737  15.944  1.00  0.00     0.209 HD
ENDBRANCH  33  34
ENDBRANCH  32  33
BRANCH  32  36
HETATM   36  O   UNL     1      -0.922  -1.056  17.362  1.00  0.00    -0.391 OA
HETATM   37  H   UNL     1      -0.450  -0.962  18.206  1.00  0.00     0.210 HD
ENDBRANCH  32  36
ENDBRANCH  31  32
ENDBRANCH  30  31
ENDBRANCH  29  30
ENDBRANCH  28  29
BRANCH  28  38
HETATM   38  O   UNL     1       0.481   3.210  19.030  1.00  0.00    -0.391 OA
HETATM   39  H   UNL     1       1.092   2.866  18.341  1.00  0.00     0.210 HD
ENDBRANCH  28  38
ENDBRANCH  27  28
ENDBRANCH  26  27
ENDBRANCH  25  26
ENDBRANCH  24  25
BRANCH  24  40
HETATM   40  O   UNL     1       2.215   3.226  14.630  1.00  0.00    -0.391 OA
HETATM   41  H   UNL     1       2.672   2.362  14.643  1.00  0.00     0.210 HD
ENDBRANCH  24  40
ENDBRANCH  23  24
ENDBRANCH  22  23
ENDBRANCH   1  22
TORSDOF 32
