REMARK  5 active torsions:
REMARK  status: ('A' for Active; 'I' for Inactive)
REMARK    1  A    between atoms: C_2  and  C_3 
REMARK    2  A    between atoms: C_3  and  O_4 
REMARK    3  A    between atoms: O_4  and  C_5 
REMARK    4  A    between atoms: C_5  and  C_7 
REMARK    5  A    between atoms: C_10  and  O_13 
ROOT
HETATM    1  C   UNL     1       6.602   1.883   1.917  1.00  0.00     0.039 A 
HETATM    2  C   UNL     1       7.314   0.809   1.360  1.00  0.00     0.020 A 
HETATM    3  C   UNL     1       8.710   0.838   1.307  1.00  0.00     0.037 A 
HETATM    4  C   UNL     1       9.390   1.942   1.811  1.00  0.00     0.065 A 
HETATM    5  C   UNL     1       8.700   3.011   2.372  1.00  0.00     0.037 A 
HETATM    6  C   UNL     1       7.303   2.981   2.432  1.00  0.00     0.020 A 
ENDROOT
BRANCH   1   7
HETATM    7  C   UNL     1       5.119   1.850   2.051  1.00  0.00     0.293 C 
HETATM    8  O   UNL     1       4.491   2.540   2.836  1.00  0.00    -0.259 OA
BRANCH   7   9
HETATM    9  O   UNL     1       4.608   0.908   1.220  1.00  0.00    -0.318 OA
BRANCH   9  10
HETATM   10  C   UNL     1       3.284   0.450   1.520  1.00  0.00     0.178 C 
BRANCH  10  11
HETATM   11  C   UNL     1       2.254   1.017   0.553  1.00  0.00     0.022 C 
HETATM   12  C   UNL     1       0.880   0.434   0.848  1.00  0.00     0.007 C 
ENDBRANCH  10  11
ENDBRANCH   9  10
ENDBRANCH   7   9
ENDBRANCH   1   7
BRANCH   4  13
HETATM   13  O   UNL     1      10.752   2.009   1.780  1.00  0.00    -0.361 OA
HETATM   14  H   UNL     1      11.097   1.205   1.356  1.00  0.00     0.217 HD
ENDBRANCH   4  13
TORSDOF 5
