REMARK  3 active torsions:
REMARK  status: ('A' for Active; 'I' for Inactive)
REMARK    1  A    between atoms: C_2  and  C_3 
REMARK    2  A    between atoms: C_2  and  O_5 
REMARK    3  A    between atoms: C_3  and  O_4 
ROOT
HETATM    1  C   UNL     1       1.044   0.069  -0.020  1.00  0.00     0.041 C 
HETATM    2  C   UNL     1       2.561   0.109  -0.094  1.00  0.00     0.137 C 
ENDROOT
BRANCH   2   3
HETATM    3  C   UNL     1       3.056   0.764  -1.386  1.00  0.00     0.195 C 
BRANCH   3   4
HETATM    4  O   UNL     1       4.482   0.806  -1.389  1.00  0.00    -0.398 OA
HETATM    5  H   UNL     1       4.744   1.001  -0.467  1.00  0.00     0.209 HD
ENDBRANCH   3   4
ENDBRANCH   2   3
BRANCH   2   6
HETATM    6  O   UNL     1       3.083   0.845   1.020  1.00  0.00    -0.394 OA
HETATM    7  H   UNL     1       2.609   1.694   1.065  1.00  0.00     0.210 HD
ENDBRANCH   2   6
TORSDOF 3
