REMARK  15 active torsions:
REMARK  status: ('A' for Active; 'I' for Inactive)
REMARK    1  A    between atoms: C_2  and  C_3 
REMARK    2  A    between atoms: C_3  and  C_4 
REMARK    3  A    between atoms: C_4  and  C_5 
REMARK    4  A    between atoms: C_5  and  C_6 
REMARK    5  A    between atoms: C_6  and  C_7 
REMARK    6  A    between atoms: C_7  and  C_8 
REMARK    7  A    between atoms: C_8  and  O_10 
REMARK    8  A    between atoms: O_10  and  C_11 
REMARK    9  A    between atoms: C_11  and  C_12 
REMARK   10  A    between atoms: C_12  and  C_13 
REMARK   11  A    between atoms: C_12  and  C_16 
REMARK   12  A    between atoms: C_13  and  C_14 
REMARK   13  A    between atoms: C_16  and  C_17 
REMARK   14  A    between atoms: C_17  and  C_18 
REMARK   15  A    between atoms: C_18  and  C_19 
ROOT
HETATM    1  O   UNL     1       9.226   3.140   4.369  1.00  0.00    -0.321 OA
ENDROOT
BRANCH   1   2
HETATM    2  C   UNL     1       8.860   3.799   3.227  1.00  0.00     0.258 C 
HETATM    3  O   UNL     1       9.525   4.621   2.635  1.00  0.00    -0.265 OA
BRANCH   2   4
HETATM    4  C   UNL     1       7.534   3.257   2.726  1.00  0.00     0.111 C 
BRANCH   4   5
HETATM    5  C   UNL     1       6.427   3.552   3.727  1.00  0.00     0.010 C 
BRANCH   5   6
HETATM    6  C   UNL     1       5.062   3.041   3.277  1.00  0.00     0.000 C 
BRANCH   6   7
HETATM    7  C   UNL     1       4.007   3.375   4.334  1.00  0.00     0.000 C 
BRANCH   7   8
HETATM    8  C   UNL     1       2.627   2.877   3.916  1.00  0.00    -0.000 C 
BRANCH   8   9
HETATM    9  C   UNL     1       1.575   3.213   4.971  1.00  0.00    -0.005 C 
HETATM   10  C   UNL     1       0.206   2.711   4.546  1.00  0.00     0.005 C 
ENDBRANCH   8   9
ENDBRANCH   7   8
ENDBRANCH   6   7
ENDBRANCH   5   6
ENDBRANCH   4   5
ENDBRANCH   2   4
ENDBRANCH   1   2
BRANCH   1  11
HETATM   11  C   UNL     1      10.645   3.029   4.549  1.00  0.00     0.183 C 
BRANCH  11  12
HETATM   12  C   UNL     1      11.139   3.748   5.817  1.00  0.00     0.010 C 
BRANCH  12  13
HETATM   13  C   UNL     1      10.463   3.195   7.094  1.00  0.00     0.006 C 
BRANCH  13  14
HETATM   14  C   UNL     1      10.904   3.893   8.382  1.00  0.00    -0.004 C 
HETATM   15  C   UNL     1      10.213   3.310   9.601  1.00  0.00     0.005 C 
ENDBRANCH  13  14
ENDBRANCH  12  13
BRANCH  12  16
HETATM   16  C   UNL     1      12.675   3.623   5.914  1.00  0.00     0.007 C 
BRANCH  16  17
HETATM   17  C   UNL     1      13.401   4.246   4.723  1.00  0.00     0.000 C 
BRANCH  17  18
HETATM   18  C   UNL     1      14.912   4.113   4.846  1.00  0.00    -0.000 C 
BRANCH  18  19
HETATM   19  C   UNL     1      15.597   4.740   3.633  1.00  0.00    -0.005 C 
HETATM   20  C   UNL     1      17.105   4.620   3.742  1.00  0.00     0.005 C 
ENDBRANCH  18  19
ENDBRANCH  17  18
ENDBRANCH  16  17
ENDBRANCH  12  16
ENDBRANCH  11  12
ENDBRANCH   1  11
TORSDOF 15
