REMARK  22 active torsions:
REMARK  status: ('A' for Active; 'I' for Inactive)
REMARK    1  A    between atoms: O_2  and  C_3 
REMARK    2  A    between atoms: C_3  and  C_4 
REMARK    3  A    between atoms: C_5  and  O_39 
REMARK    4  A    between atoms: C_6  and  O_38 
REMARK    5  A    between atoms: C_7  and  O_37 
REMARK    6  A    between atoms: C_8  and  C_10 
REMARK    7  A    between atoms: C_10  and  O_11 
REMARK    8  A    between atoms: O_11  and  C_12 
REMARK    9  A    between atoms: C_12  and  C_13 
REMARK   10  A    between atoms: C_14  and  C_35 
REMARK   11  A    between atoms: C_16  and  C_21 
REMARK   12  A    between atoms: C_17  and  O_20 
REMARK   13  A    between atoms: C_18  and  O_19 
REMARK   14  A    between atoms: C_21  and  O_22 
REMARK   15  A    between atoms: O_22  and  C_23 
REMARK   16  A    between atoms: C_23  and  C_24 
REMARK   17  A    between atoms: C_25  and  C_33 
REMARK   18  A    between atoms: C_27  and  O_32 
REMARK   19  A    between atoms: C_28  and  O_31 
REMARK   20  A    between atoms: C_29  and  O_30 
REMARK   21  A    between atoms: C_33  and  O_34 
REMARK   22  A    between atoms: C_35  and  O_36 
ROOT
HETATM    1  C   UNL     1       4.227   5.419  -4.212  1.00  0.00     0.072 C 
HETATM    2  C   UNL     1       3.245   4.704  -5.154  1.00  0.00     0.154 C 
HETATM    3  O   UNL     1       3.548   4.878  -6.541  1.00  0.00    -0.373 OA
HETATM    4  C   UNL     1       3.861   6.196  -7.016  1.00  0.00     0.177 C 
HETATM    5  C   UNL     1       4.929   6.888  -6.148  1.00  0.00     0.178 C 
HETATM    6  C   UNL     1       4.502   6.855  -4.680  1.00  0.00     0.158 C 
ENDROOT
BRANCH   1   7
HETATM    7  C   UNL     1       5.482   4.551  -4.040  1.00  0.00     0.177 C 
BRANCH   7   8
HETATM    8  O   UNL     1       6.470   5.141  -3.215  1.00  0.00    -0.388 OA
BRANCH   8   9
HETATM    9  C   UNL     1       6.021   5.495  -1.906  1.00  0.00     0.202 C 
BRANCH   9  10
HETATM   10  C   UNL     1       7.159   6.249  -1.228  1.00  0.00     0.177 C 
HETATM   11  C   UNL     1       8.403   5.359  -1.127  1.00  0.00     0.180 C 
HETATM   12  C   UNL     1       9.499   6.126  -0.388  1.00  0.00     0.180 C 
HETATM   13  C   UNL     1       9.002   6.702   0.956  1.00  0.00     0.180 C 
HETATM   14  C   UNL     1       7.692   7.489   0.779  1.00  0.00     0.177 C 
HETATM   15  O   UNL     1       6.734   6.652   0.085  1.00  0.00    -0.371 OA
BRANCH  11  16
HETATM   16  O   UNL     1       8.136   4.130  -0.422  1.00  0.00    -0.390 OA
HETATM   17  H   UNL     1       7.269   4.210   0.009  1.00  0.00     0.210 HD
ENDBRANCH  11  16
BRANCH  12  18
HETATM   18  O   UNL     1      10.616   5.263  -0.169  1.00  0.00    -0.390 OA
HETATM   19  H   UNL     1      10.229   4.482   0.280  1.00  0.00     0.210 HD
ENDBRANCH  12  18
BRANCH  13  20
HETATM   20  O   UNL     1       8.770   5.632   1.894  1.00  0.00    -0.390 OA
HETATM   21  H   UNL     1       7.884   5.273   1.702  1.00  0.00     0.210 HD
ENDBRANCH  13  20
BRANCH  14  22
HETATM   22  C   UNL     1       7.895   8.878   0.139  1.00  0.00     0.201 C 
BRANCH  22  23
HETATM   23  O   UNL     1       6.634   9.549   0.065  1.00  0.00    -0.393 OA
HETATM   24  C   UNL     1       6.741  10.855  -0.484  1.00  0.00     0.201 C 
ENDBRANCH  22  23
ENDBRANCH  14  22
ENDBRANCH   9  10
ENDBRANCH   8   9
ENDBRANCH   7   8
ENDBRANCH   1   7
BRANCH   2  25
HETATM   25  C   UNL     1       1.781   5.008  -4.792  1.00  0.00     0.196 C 
BRANCH  25  26
HETATM   26  O   UNL     1       1.474   4.607  -3.457  1.00  0.00    -0.398 OA
HETATM   27  H   UNL     1       1.855   3.727  -3.299  1.00  0.00     0.209 HD
ENDBRANCH  25  26
ENDBRANCH   2  25
BRANCH   6  28
HETATM   28  O   UNL     1       5.465   7.544  -3.882  1.00  0.00    -0.392 OA
HETATM   29  H   UNL     1       6.181   7.845  -4.477  1.00  0.00     0.210 HD
ENDBRANCH   6  28
BRANCH   5  30
HETATM   30  O   UNL     1       5.188   8.253  -6.489  1.00  0.00    -0.390 OA
HETATM   31  H   UNL     1       4.337   8.711  -6.403  1.00  0.00     0.210 HD
ENDBRANCH   5  30
BRANCH   4  32
HETATM   32  C   UNL     1       2.589   7.019  -7.297  1.00  0.00     0.202 C 
BRANCH  32  33
HETATM   33  O   UNL     1       2.956   8.285  -7.828  1.00  0.00    -0.388 OA
BRANCH  33  34
HETATM   34  C   UNL     1       1.849   9.141  -8.089  1.00  0.00     0.177 C 
BRANCH  34  35
HETATM   35  C   UNL     1       2.418  10.454  -8.652  1.00  0.00     0.072 C 
HETATM   36  C   UNL     1       3.334  11.163  -7.622  1.00  0.00     0.157 C 
HETATM   37  O   UNL     1       2.583  11.762  -6.564  1.00  0.00    -0.351 OA
HETATM   38  C   UNL     1       1.582  12.696  -6.945  1.00  0.00     0.288 C 
HETATM   39  C   UNL     1       0.584  12.087  -7.951  1.00  0.00     0.202 C 
HETATM   40  C   UNL     1       1.322  11.414  -9.122  1.00  0.00     0.160 C 
BRANCH  36  41
HETATM   41  C   UNL     1       4.360  12.121  -8.250  1.00  0.00     0.196 C 
BRANCH  41  42
HETATM   42  O   UNL     1       5.248  11.432  -9.121  1.00  0.00    -0.398 OA
HETATM   43  H   UNL     1       5.806  10.849  -8.575  1.00  0.00     0.209 HD
ENDBRANCH  41  42
ENDBRANCH  36  41
BRANCH  38  44
HETATM   44  O   UNL     1       2.158  13.921  -7.376  1.00  0.00    -0.369 OA
HETATM   45  H   UNL     1       2.183  13.951  -8.342  1.00  0.00     0.212 HD
ENDBRANCH  38  44
BRANCH  39  46
HETATM   46  O   UNL     1      -0.352  13.054  -8.432  1.00  0.00    -0.388 OA
HETATM   47  H   UNL     1       0.131  13.785  -8.850  1.00  0.00     0.210 HD
ENDBRANCH  39  46
BRANCH  40  48
HETATM   48  O   UNL     1       0.415  10.730  -9.990  1.00  0.00    -0.392 OA
HETATM   49  H   UNL     1      -0.337  10.396  -9.469  1.00  0.00     0.210 HD
ENDBRANCH  40  48
ENDBRANCH  34  35
ENDBRANCH  33  34
ENDBRANCH  32  33
ENDBRANCH   4  32
TORSDOF 22
