REMARK  19 active torsions:
REMARK  status: ('A' for Active; 'I' for Inactive)
REMARK    1  A    between atoms: C_2  and  C_3 
REMARK    2  A    between atoms: C_3  and  C_4 
REMARK    3  A    between atoms: C_4  and  C_5 
REMARK    4  A    between atoms: C_5  and  C_6 
REMARK    5  A    between atoms: C_6  and  C_7 
REMARK    6  A    between atoms: C_7  and  C_8 
REMARK    7  A    between atoms: C_8  and  O_10 
REMARK    8  A    between atoms: O_10  and  C_11 
REMARK    9  A    between atoms: C_11  and  C_12 
REMARK   10  A    between atoms: C_17  and  O_30 
REMARK   11  A    between atoms: C_18  and  C_19 
REMARK   12  A    between atoms: C_19  and  O_20 
REMARK   13  A    between atoms: O_20  and  C_21 
REMARK   14  A    between atoms: C_21  and  C_23 
REMARK   15  A    between atoms: C_23  and  C_24 
REMARK   16  A    between atoms: C_24  and  C_25 
REMARK   17  A    between atoms: C_25  and  C_26 
REMARK   18  A    between atoms: C_26  and  C_27 
REMARK   19  A    between atoms: C_27  and  C_28 
ROOT
HETATM    1  C   UNL     1      11.136   5.063   4.897  1.00  0.00    -0.007 A 
HETATM    2  C   UNL     1      10.917   6.410   4.610  1.00  0.00     0.098 A 
HETATM    3  N   UNL     1      11.157   7.428   5.466  1.00  0.00    -0.367 N 
ATOM      4  HN  UNL     1      10.965   8.396   5.206  1.00  0.00     0.165 HD
HETATM    5  C   UNL     1      11.662   7.113   6.680  1.00  0.00     0.039 A 
HETATM    6  C   UNL     1      11.982   5.801   7.038  1.00  0.00     0.096 A 
HETATM    7  C   UNL     1      11.723   4.749   6.138  1.00  0.00     0.011 A 
HETATM    8  C   UNL     1      11.843   8.254   7.632  1.00  0.00     0.071 C 
ENDROOT
BRANCH   1   9
HETATM    9  C   UNL     1      10.689   4.039   3.883  1.00  0.00     0.219 C 
BRANCH   9  10
HETATM   10  O   UNL     1      11.791   3.243   3.384  1.00  0.00    -0.317 OA
BRANCH  10  11
HETATM   11  C   UNL     1      12.529   3.860   2.421  1.00  0.00     0.259 C 
HETATM   12  O   UNL     1      12.282   4.975   1.969  1.00  0.00    -0.265 OA
BRANCH  11  13
HETATM   13  C   UNL     1      13.683   3.003   1.941  1.00  0.00     0.111 C 
BRANCH  13  14
HETATM   14  C   UNL     1      14.836   3.890   1.467  1.00  0.00     0.010 C 
BRANCH  14  15
HETATM   15  C   UNL     1      16.017   3.072   0.962  1.00  0.00     0.000 C 
BRANCH  15  16
HETATM   16  C   UNL     1      17.142   3.994   0.503  1.00  0.00     0.000 C 
BRANCH  16  17
HETATM   17  C   UNL     1      18.323   3.177   0.001  1.00  0.00    -0.000 C 
BRANCH  17  18
HETATM   18  C   UNL     1      19.448   4.092  -0.459  1.00  0.00    -0.005 C 
HETATM   19  C   UNL     1      20.619   3.271  -0.959  1.00  0.00     0.005 C 
ENDBRANCH  17  18
ENDBRANCH  16  17
ENDBRANCH  15  16
ENDBRANCH  14  15
ENDBRANCH  13  14
ENDBRANCH  11  13
ENDBRANCH  10  11
ENDBRANCH   9  10
ENDBRANCH   1   9
BRANCH   7  20
HETATM   20  C   UNL     1      12.094   3.332   6.523  1.00  0.00     0.221 C 
BRANCH  20  21
HETATM   21  O   UNL     1      10.974   2.423   6.501  1.00  0.00    -0.317 OA
BRANCH  21  22
HETATM   22  C   UNL     1      10.190   2.431   7.611  1.00  0.00     0.259 C 
HETATM   23  O   UNL     1      10.349   3.163   8.590  1.00  0.00    -0.265 OA
BRANCH  22  24
HETATM   24  C   UNL     1       9.018   1.482   7.495  1.00  0.00     0.111 C 
BRANCH  24  25
HETATM   25  C   UNL     1       7.698   2.239   7.587  1.00  0.00     0.010 C 
BRANCH  25  26
HETATM   26  C   UNL     1       7.552   3.252   6.458  1.00  0.00     0.000 C 
BRANCH  26  27
HETATM   27  C   UNL     1       6.228   3.987   6.576  1.00  0.00     0.000 C 
BRANCH  27  28
HETATM   28  C   UNL     1       6.090   4.999   5.451  1.00  0.00    -0.000 C 
BRANCH  28  29
HETATM   29  C   UNL     1       4.766   5.738   5.563  1.00  0.00    -0.005 C 
HETATM   30  C   UNL     1       4.634   6.744   4.438  1.00  0.00     0.005 C 
ENDBRANCH  28  29
ENDBRANCH  27  28
ENDBRANCH  26  27
ENDBRANCH  25  26
ENDBRANCH  24  25
ENDBRANCH  22  24
ENDBRANCH  21  22
ENDBRANCH  20  21
ENDBRANCH   7  20
BRANCH   6  31
HETATM   31  O   UNL     1      12.531   5.490   8.256  1.00  0.00    -0.358 OA
HETATM   32  H   UNL     1      12.617   6.271   8.824  1.00  0.00     0.217 HD
ENDBRANCH   6  31
TORSDOF 19
