REMARK  5 active torsions:
REMARK  status: ('A' for Active; 'I' for Inactive)
REMARK    1  A    between atoms: C_6  and  C_12 
REMARK    2  A    between atoms: C_7  and  C_10 
REMARK    3  A    between atoms: C_8  and  O_9 
REMARK    4  A    between atoms: C_10  and  O_11 
REMARK    5  A    between atoms: C_12  and  O_13 
ROOT
HETATM    1  C   UNL     1      -1.514  -1.824   0.006  1.00  0.00     0.071 C 
HETATM    2  C   UNL     1      -0.397  -0.822   0.006  1.00  0.00     0.039 A 
HETATM    3  N   UNL     1       0.862  -1.312  -0.025  1.00  0.00    -0.367 N 
ATOM      4  HN  UNL     1       1.046  -2.315  -0.054  1.00  0.00     0.165 HD
HETATM    5  C   UNL     1       1.862  -0.410  -0.015  1.00  0.00     0.098 A 
HETATM    6  C   UNL     1       1.701   0.979  -0.006  1.00  0.00    -0.008 A 
HETATM    7  C   UNL     1       0.380   1.487   0.022  1.00  0.00     0.010 A 
HETATM    8  C   UNL     1      -0.670   0.547   0.044  1.00  0.00     0.096 A 
ENDROOT
BRANCH   6   9
HETATM    9  C   UNL     1       2.970   1.793   0.064  1.00  0.00     0.205 C 
BRANCH   9  10
HETATM   10  O   UNL     1       2.860   3.050  -0.587  1.00  0.00    -0.396 OA
HETATM   11  H   UNL     1       3.241   2.945  -1.471  1.00  0.00     0.209 HD
ENDBRANCH   9  10
ENDBRANCH   6   9
BRANCH   7  12
HETATM   12  C   UNL     1       0.121   2.977   0.018  1.00  0.00     0.206 C 
BRANCH  12  13
HETATM   13  O   UNL     1      -1.280   3.282   0.022  1.00  0.00    -0.396 OA
HETATM   14  H   UNL     1      -1.515   3.450  -0.912  1.00  0.00     0.209 HD
ENDBRANCH  12  13
ENDBRANCH   7  12
BRANCH   8  15
HETATM   15  O   UNL     1      -1.987   0.923   0.121  1.00  0.00    -0.358 OA
HETATM   16  H   UNL     1      -1.999   1.876   0.345  1.00  0.00     0.217 HD
ENDBRANCH   8  15
TORSDOF 5
