REMARK  5 active torsions:
REMARK  status: ('A' for Active; 'I' for Inactive)
REMARK    1  A    between atoms: C_6  and  C_12 
REMARK    2  A    between atoms: C_7  and  C_10 
REMARK    3  A    between atoms: C_8  and  O_9 
REMARK    4  A    between atoms: C_10  and  O_11 
REMARK    5  A    between atoms: C_12  and  O_13 
ROOT
HETATM    1  C   UNL     1      -1.640  -1.843  -0.184  1.00  0.00     0.071 C 
HETATM    2  C   UNL     1      -0.541  -0.827  -0.254  1.00  0.00     0.039 A 
HETATM    3  N   UNL     1       0.734  -1.254  -0.416  1.00  0.00    -0.367 N 
ATOM      4  HN  UNL     1       0.911  -2.255  -0.505  1.00  0.00     0.165 HD
HETATM    5  C   UNL     1       1.781  -0.398  -0.464  1.00  0.00     0.098 A 
HETATM    6  C   UNL     1       1.583   0.986  -0.348  1.00  0.00    -0.008 A 
HETATM    7  C   UNL     1       0.256   1.485  -0.196  1.00  0.00     0.010 A 
HETATM    8  C   UNL     1      -0.818   0.548  -0.142  1.00  0.00     0.096 A 
ENDROOT
BRANCH   6   9
HETATM    9  C   UNL     1       2.806   1.880  -0.368  1.00  0.00     0.205 C 
BRANCH   9  10
HETATM   10  O   UNL     1       2.758   2.771  -1.451  1.00  0.00    -0.396 OA
HETATM   11  H   UNL     1       3.424   2.460  -2.119  1.00  0.00     0.209 HD
ENDBRANCH   9  10
ENDBRANCH   6   9
BRANCH   7  12
HETATM   12  C   UNL     1       0.018   2.987  -0.103  1.00  0.00     0.206 C 
BRANCH  12  13
HETATM   13  O   UNL     1       0.672   3.530   1.010  1.00  0.00    -0.396 OA
HETATM   14  H   UNL     1       0.085   3.365   1.793  1.00  0.00     0.209 HD
ENDBRANCH  12  13
ENDBRANCH   7  12
BRANCH   8  15
HETATM   15  O   UNL     1      -2.113   0.911   0.027  1.00  0.00    -0.358 OA
HETATM   16  H   UNL     1      -2.442   1.805   0.164  1.00  0.00     0.217 HD
ENDBRANCH   8  15
TORSDOF 5
