REMARK WARNING: 32 MAX_TORS EXCEEDED!!!
REMARK  35 active torsions:
REMARK  status: ('A' for Active; 'I' for Inactive)
REMARK    1  A    between atoms: C_2  and  C_3 
REMARK    2  A    between atoms: C_3  and  C_4 
REMARK    3  A    between atoms: C_4  and  C_5 
REMARK    4  A    between atoms: C_5  and  C_6 
REMARK    5  A    between atoms: C_6  and  C_7 
REMARK    6  A    between atoms: C_7  and  C_8 
REMARK    7  A    between atoms: C_8  and  C_9 
REMARK    8  A    between atoms: C_9  and  C_10 
REMARK    9  A    between atoms: C_10  and  C_11 
REMARK   10  A    between atoms: C_11  and  C_12 
REMARK   11  A    between atoms: C_12  and  C_13 
REMARK   12  A    between atoms: C_13  and  C_14 
REMARK   13  A    between atoms: C_14  and  C_15 
REMARK   14  A    between atoms: C_15  and  C_16 
REMARK   15  A    between atoms: C_16  and  O_18 
REMARK   16  A    between atoms: O_18  and  C_19 
REMARK   17  A    between atoms: C_19  and  C_20 
REMARK   18  A    between atoms: C_25  and  O_46 
REMARK   19  A    between atoms: C_26  and  C_27 
REMARK   20  A    between atoms: C_27  and  O_28 
REMARK   21  A    between atoms: O_28  and  C_29 
REMARK   22  A    between atoms: C_29  and  C_31 
REMARK   23  A    between atoms: C_31  and  C_32 
REMARK   24  A    between atoms: C_32  and  C_33 
REMARK   25  A    between atoms: C_33  and  C_34 
REMARK   26  A    between atoms: C_34  and  C_35 
REMARK   27  A    between atoms: C_35  and  C_36 
REMARK   28  A    between atoms: C_36  and  C_37 
REMARK   29  A    between atoms: C_37  and  C_38 
REMARK   30  A    between atoms: C_38  and  C_39 
REMARK   31  A    between atoms: C_39  and  C_40 
REMARK   32  A    between atoms: C_40  and  C_41 
REMARK   33  A    between atoms: C_41  and  C_42 
REMARK   34  A    between atoms: C_42  and  C_43 
REMARK   35  A    between atoms: C_43  and  C_44 
ROOT
HETATM    1  C   UNL     1      19.164  -5.700  11.445  1.00  0.00    -0.007 A 
HETATM    2  C   UNL     1      19.657  -4.921  12.487  1.00  0.00     0.098 A 
HETATM    3  N   UNL     1      20.009  -5.392  13.700  1.00  0.00    -0.367 N 
ATOM      4  HN  UNL     1      20.362  -4.773  14.430  1.00  0.00     0.165 HD
HETATM    5  C   UNL     1      19.874  -6.721  13.907  1.00  0.00     0.039 A 
HETATM    6  C   UNL     1      19.441  -7.599  12.909  1.00  0.00     0.096 A 
HETATM    7  C   UNL     1      19.090  -7.095  11.645  1.00  0.00     0.011 A 
HETATM    8  C   UNL     1      20.192  -7.206  15.289  1.00  0.00     0.071 C 
ENDROOT
BRANCH   1   9
HETATM    9  C   UNL     1      18.722  -5.007  10.182  1.00  0.00     0.219 C 
BRANCH   9  10
HETATM   10  O   UNL     1      18.212  -3.690  10.486  1.00  0.00    -0.317 OA
BRANCH  10  11
HETATM   11  C   UNL     1      16.941  -3.667  10.995  1.00  0.00     0.259 C 
HETATM   12  O   UNL     1      16.230  -4.642  11.158  1.00  0.00    -0.265 OA
BRANCH  11  13
HETATM   13  C   UNL     1      16.531  -2.246  11.314  1.00  0.00     0.111 C 
BRANCH  13  14
HETATM   14  C   UNL     1      15.527  -2.236  12.466  1.00  0.00     0.010 C 
BRANCH  14  15
HETATM   15  C   UNL     1      15.068  -0.828  12.832  1.00  0.00     0.000 C 
BRANCH  15  16
HETATM   16  C   UNL     1      14.070  -0.884  13.986  1.00  0.00     0.000 C 
BRANCH  16  17
HETATM   17  C   UNL     1      13.603   0.513  14.367  1.00  0.00     0.000 C 
BRANCH  17  18
HETATM   18  C   UNL     1      12.610   0.449  15.519  1.00  0.00     0.000 C 
BRANCH  18  19
HETATM   19  C   UNL     1      12.150   1.849  15.894  1.00  0.00     0.000 C 
BRANCH  19  20
HETATM   20  C   UNL     1      11.161   1.787  17.045  1.00  0.00     0.000 C 
BRANCH  20  21
HETATM   21  C   UNL     1      10.702   3.187  17.416  1.00  0.00     0.000 C 
BRANCH  21  22
HETATM   22  C   UNL     1       9.713   3.125  18.567  1.00  0.00     0.000 C 
BRANCH  22  23
HETATM   23  C   UNL     1       9.254   4.525  18.940  1.00  0.00     0.000 C 
BRANCH  23  24
HETATM   24  C   UNL     1       8.262   4.464  20.092  1.00  0.00     0.000 C 
BRANCH  24  25
HETATM   25  C   UNL     1       7.802   5.865  20.467  1.00  0.00    -0.000 C 
BRANCH  25  26
HETATM   26  C   UNL     1       6.807   5.816  21.619  1.00  0.00    -0.005 C 
HETATM   27  C   UNL     1       6.352   7.215  21.993  1.00  0.00     0.005 C 
ENDBRANCH  25  26
ENDBRANCH  24  25
ENDBRANCH  23  24
ENDBRANCH  22  23
ENDBRANCH  21  22
ENDBRANCH  20  21
ENDBRANCH  19  20
ENDBRANCH  18  19
ENDBRANCH  17  18
ENDBRANCH  16  17
ENDBRANCH  15  16
ENDBRANCH  14  15
ENDBRANCH  13  14
ENDBRANCH  11  13
ENDBRANCH  10  11
ENDBRANCH   9  10
ENDBRANCH   1   9
BRANCH   7  28
HETATM   28  C   UNL     1      18.622  -7.981  10.508  1.00  0.00     0.221 C 
BRANCH  28  29
HETATM   29  O   UNL     1      19.589  -8.952  10.123  1.00  0.00    -0.317 OA
BRANCH  29  30
HETATM   30  C   UNL     1      20.581  -8.497   9.312  1.00  0.00     0.259 C 
HETATM   31  O   UNL     1      20.708  -7.359   8.912  1.00  0.00    -0.265 OA
BRANCH  30  32
HETATM   32  C   UNL     1      21.534  -9.634   9.016  1.00  0.00     0.111 C 
BRANCH  32  33
HETATM   33  C   UNL     1      22.927  -9.293   9.516  1.00  0.00     0.010 C 
BRANCH  33  34
HETATM   34  C   UNL     1      22.953  -9.050  11.019  1.00  0.00     0.000 C 
BRANCH  34  35
HETATM   35  C   UNL     1      24.373  -8.711  11.450  1.00  0.00     0.000 C 
BRANCH  35  36
HETATM   36  C   UNL     1      24.432  -8.460  12.945  1.00  0.00     0.000 C 
BRANCH  36  37
HETATM   37  C   UNL     1      25.854  -8.124  13.362  1.00  0.00     0.000 C 
BRANCH  37  38
HETATM   38  C   UNL     1      25.910  -7.875  14.859  1.00  0.00     0.000 C 
BRANCH  38  39
HETATM   39  C   UNL     1      27.330  -7.538  15.280  1.00  0.00     0.000 C 
BRANCH  39  40
HETATM   40  C   UNL     1      27.383  -7.289  16.777  1.00  0.00     0.000 C 
BRANCH  40  41
HETATM   41  C   UNL     1      28.803  -6.951  17.199  1.00  0.00     0.000 C 
BRANCH  41  42
HETATM   42  C   UNL     1      28.858  -6.701  18.697  1.00  0.00     0.000 C 
BRANCH  42  43
HETATM   43  C   UNL     1      30.279  -6.362  19.121  1.00  0.00     0.000 C 
BRANCH  43  44
HETATM   44  C   UNL     1      30.335  -6.109  20.620  1.00  0.00    -0.000 C 
BRANCH  44  45
HETATM   45  C   UNL     1      31.755  -5.771  21.057  1.00  0.00    -0.005 C 
HETATM   46  C   UNL     1      31.809  -5.519  22.552  1.00  0.00     0.005 C 
ENDBRANCH  44  45
ENDBRANCH  43  44
ENDBRANCH  42  43
ENDBRANCH  41  42
ENDBRANCH  40  41
ENDBRANCH  39  40
ENDBRANCH  38  39
ENDBRANCH  37  38
ENDBRANCH  36  37
ENDBRANCH  35  36
ENDBRANCH  34  35
ENDBRANCH  33  34
ENDBRANCH  32  33
ENDBRANCH  30  32
ENDBRANCH  29  30
ENDBRANCH  28  29
ENDBRANCH   7  28
BRANCH   6  47
HETATM   47  O   UNL     1      19.357  -8.945  13.161  1.00  0.00    -0.358 OA
HETATM   48  H   UNL     1      19.558  -9.109  14.091  1.00  0.00     0.217 HD
ENDBRANCH   6  47
TORSDOF 35
