REMARK  4 active torsions:
REMARK  status: ('A' for Active; 'I' for Inactive)
REMARK    1  A    between atoms: C_9  and  O_25 
REMARK    2  A    between atoms: C_10  and  N_11 
REMARK    3  A    between atoms: N_13  and  C_15 
REMARK    4  A    between atoms: C_18  and  N_21 
ROOT
HETATM    1  N   UNL     1       1.372  -2.530   0.276  1.00  0.00    -0.297 N 
ATOM      2  HN  UNL     1       0.877  -3.109   0.955  1.00  0.00     0.187 HD
HETATM    3  N   UNL     1       2.260  -2.968  -0.484  1.00  0.00    -0.299 N 
ATOM      4  HN  UNL     1       2.723  -2.398  -1.192  1.00  0.00     0.187 HD
ENDROOT
BRANCH   1   5
HETATM    5  C   UNL     1       1.121  -1.145   0.099  1.00  0.00     0.092 A 
HETATM    6  C   UNL     1      -0.230  -0.695   0.041  1.00  0.00     0.005 A 
HETATM    7  C   UNL     1      -1.338  -1.574   0.046  1.00  0.00     0.014 A 
HETATM    8  C   UNL     1      -0.500   0.699  -0.015  1.00  0.00    -0.024 A 
HETATM    9  C   UNL     1      -2.653  -1.102   0.015  1.00  0.00     0.001 A 
HETATM   10  C   UNL     1      -2.898   0.265  -0.022  1.00  0.00     0.001 A 
HETATM   11  C   UNL     1      -1.828   1.159  -0.041  1.00  0.00     0.012 A 
HETATM   12  C   UNL     1       0.557   1.615  -0.028  1.00  0.00     0.015 A 
HETATM   13  C   UNL     1       1.879   1.180   0.018  1.00  0.00     0.040 A 
HETATM   14  C   UNL     1       2.155  -0.184   0.094  1.00  0.00     0.094 A 
BRANCH  14  15
HETATM   15  O   UNL     1       3.465  -0.579   0.202  1.00  0.00    -0.358 OA
HETATM   16  H   UNL     1       4.044   0.178   0.024  1.00  0.00     0.217 HD
ENDBRANCH  14  15
ENDBRANCH   1   5
BRANCH   3  17
HETATM   17  C   UNL     1       2.561  -4.335  -0.265  1.00  0.00     0.070 A 
HETATM   18  C   UNL     1       3.327  -5.037  -1.217  1.00  0.00     0.064 A 
HETATM   19  C   UNL     1       3.630  -6.395  -1.060  1.00  0.00     0.062 A 
HETATM   20 CL   UNL     1       3.931  -4.249  -2.635  1.00  0.00    -0.082 Cl
HETATM   21  C   UNL     1       3.173  -7.075   0.075  1.00  0.00     0.104 A 
HETATM   22  C   UNL     1       2.435  -6.400   1.053  1.00  0.00     0.038 A 
HETATM   23  C   UNL     1       2.142  -5.041   0.881  1.00  0.00     0.035 A 
BRANCH  21  24
HETATM   24  N   UNL     1       3.465  -8.505   0.243  1.00  0.00    -0.116 N 
HETATM   25  O   UNL     1       4.134  -9.057  -0.640  1.00  0.00    -0.532 OA
HETATM   26  O   UNL     1       3.031  -9.066   1.258  1.00  0.00    -0.532 OA
ENDBRANCH  21  24
ENDBRANCH   3  17
TORSDOF 4
