REMARK  5 active torsions:
REMARK  status: ('A' for Active; 'I' for Inactive)
REMARK    1  A    between atoms: C_3  and  O_17 
REMARK    2  A    between atoms: C_6  and  C_7 
REMARK    3  A    between atoms: C_8  and  C_9 
REMARK    4  A    between atoms: C_11  and  O_16 
REMARK    5  A    between atoms: C_13  and  O_15 
ROOT
HETATM    1  C   UNL     1      -5.621  -0.959  -0.088  1.00  0.00    -0.031 A 
HETATM    2  C   UNL     1      -6.310   0.101  -0.698  1.00  0.00     0.048 A 
HETATM    3  C   UNL     1      -7.704   0.105  -0.726  1.00  0.00     0.069 A 
HETATM    4  C   UNL     1      -8.437  -0.937  -0.172  1.00  0.00     0.073 A 
HETATM    5  C   UNL     1      -7.755  -1.996   0.414  1.00  0.00     0.069 A 
HETATM    6  C   UNL     1      -6.362  -2.016   0.457  1.00  0.00     0.048 A 
ENDROOT
BRANCH   1   7
HETATM    7  C   UNL     1      -4.150  -1.033  -0.061  1.00  0.00     0.012 C 
HETATM    8  C   UNL     1      -3.338   0.037  -0.026  1.00  0.00     0.012 C 
BRANCH   8   9
HETATM    9  C   UNL     1      -1.868  -0.027  -0.028  1.00  0.00    -0.036 A 
HETATM   10  C   UNL     1      -1.152  -1.065   0.583  1.00  0.00     0.014 A 
HETATM   11  C   UNL     1       0.246  -1.070   0.576  1.00  0.00     0.037 A 
HETATM   12  C   UNL     1       0.932  -0.026  -0.034  1.00  0.00     0.065 A 
HETATM   13  C   UNL     1       0.243   1.023  -0.629  1.00  0.00     0.037 A 
HETATM   14  C   UNL     1      -1.154   1.025  -0.621  1.00  0.00     0.014 A 
BRANCH  12  15
HETATM   15  O   UNL     1       2.294   0.009  -0.067  1.00  0.00    -0.361 OA
HETATM   16  H   UNL     1       2.634  -0.789   0.369  1.00  0.00     0.217 HD
ENDBRANCH  12  15
ENDBRANCH   8   9
ENDBRANCH   1   7
BRANCH   3  17
HETATM   17  O   UNL     1      -8.398   1.127  -1.306  1.00  0.00    -0.361 OA
HETATM   18  H   UNL     1      -7.763   1.778  -1.651  1.00  0.00     0.217 HD
ENDBRANCH   3  17
BRANCH   5  19
HETATM   19  O   UNL     1      -8.424  -3.052   0.962  1.00  0.00    -0.361 OA
HETATM   20  H   UNL     1      -9.377  -2.904   0.850  1.00  0.00     0.217 HD
ENDBRANCH   5  19
TORSDOF 5
