REMARK  8 active torsions:
REMARK  status: ('A' for Active; 'I' for Inactive)
REMARK    1  A    between atoms: C_2  and  C_3 
REMARK    2  A    between atoms: C_3  and  O_5 
REMARK    3  A    between atoms: O_5  and  C_6 
REMARK    4  A    between atoms: C_6  and  C_7 
REMARK    5  A    between atoms: C_8  and  C_10 
REMARK    6  A    between atoms: C_11  and  C_12 
REMARK    7  A    between atoms: C_13  and  C_15 
REMARK    8  A    between atoms: C_16  and  C_17 
ROOT
HETATM    1  C   UNL     1      10.733   3.841   3.730  1.00  0.00     0.007 C 
HETATM    2  C   UNL     1      11.424   4.676   4.544  1.00  0.00    -0.062 C 
HETATM    3  C   UNL     1      10.783   5.701   5.458  1.00  0.00     0.048 C 
ENDROOT
BRANCH   2   4
HETATM    4  C   UNL     1      12.899   4.639   4.562  1.00  0.00     0.007 C 
HETATM    5  C   UNL     1      13.699   5.416   5.322  1.00  0.00     0.009 C 
BRANCH   5   6
HETATM    6  C   UNL     1      15.166   5.422   5.296  1.00  0.00    -0.048 C 
HETATM    7  C   UNL     1      15.857   5.724   4.167  1.00  0.00    -0.077 C 
HETATM    8  C   UNL     1      17.369   5.661   4.091  1.00  0.00     0.034 C 
HETATM    9  C   UNL     1      15.250   6.194   2.865  1.00  0.00     0.044 C 
HETATM   10  C   UNL     1      18.032   4.978   5.277  1.00  0.00     0.005 C 
HETATM   11  C   UNL     1      17.404   5.468   6.568  1.00  0.00     0.014 C 
HETATM   12  C   UNL     1      15.884   5.143   6.647  1.00  0.00    -0.020 C 
HETATM   13  C   UNL     1      15.338   6.006   7.811  1.00  0.00     0.020 C 
HETATM   14  C   UNL     1      15.710   3.657   7.029  1.00  0.00     0.020 C 
ENDBRANCH   5   6
ENDBRANCH   2   4
BRANCH   1  15
HETATM   15  C   UNL     1       9.283   3.781   3.620  1.00  0.00     0.001 C 
HETATM   16  C   UNL     1       8.557   2.977   2.835  1.00  0.00     0.006 C 
BRANCH  16  17
HETATM   17  C   UNL     1       7.082   2.968   2.807  1.00  0.00    -0.064 C 
HETATM   18  C   UNL     1       6.400   2.143   2.002  1.00  0.00     0.006 C 
HETATM   19  C   UNL     1       6.372   3.925   3.744  1.00  0.00     0.048 C 
BRANCH  18  20
HETATM   20  C   UNL     1       4.894   2.071   1.942  1.00  0.00     0.206 C 
BRANCH  20  21
HETATM   21  O   UNL     1       4.343   1.706   3.212  1.00  0.00    -0.318 OA
BRANCH  21  22
HETATM   22  C   UNL     1       4.402   0.368   3.445  1.00  0.00     0.258 C 
HETATM   23  O   UNL     1       4.865  -0.454   2.660  1.00  0.00    -0.265 OA
BRANCH  22  24
HETATM   24  C   UNL     1       3.816   0.026   4.787  1.00  0.00     0.106 C 
HETATM   25  C   UNL     1       3.877  -1.472   5.049  1.00  0.00     0.015 C 
ENDBRANCH  22  24
ENDBRANCH  21  22
ENDBRANCH  20  21
ENDBRANCH  18  20
ENDBRANCH  16  17
ENDBRANCH   1  15
TORSDOF 8
