REMARK  7 active torsions:
REMARK  status: ('A' for Active; 'I' for Inactive)
REMARK    1  A    between atoms: C_3  and  C_10 
REMARK    2  A    between atoms: C_11  and  C_12 
REMARK    3  A    between atoms: C_13  and  C_14 
REMARK    4  A    between atoms: C_15  and  C_16 
REMARK    5  A    between atoms: C_17  and  C_18 
REMARK    6  A    between atoms: C_18  and  O_19 
REMARK    7  A    between atoms: O_19  and  C_20 
ROOT
HETATM    1  C   UNL     1       1.037  -4.829   0.975  1.00  0.00    -0.062 C 
HETATM    2  C   UNL     1      -0.193  -5.351   1.188  1.00  0.00     0.007 C 
HETATM    3  C   UNL     1       2.235  -5.722   0.787  1.00  0.00     0.048 C 
ENDROOT
BRANCH   1   4
HETATM    4  C   UNL     1       1.316  -3.401   0.871  1.00  0.00     0.007 C 
HETATM    5  C   UNL     1       0.706  -2.617  -0.031  1.00  0.00     0.009 C 
BRANCH   5   6
HETATM    6  C   UNL     1       0.884  -1.176  -0.213  1.00  0.00    -0.048 C 
HETATM    7  C   UNL     1       0.546  -0.281   0.744  1.00  0.00    -0.077 C 
HETATM    8  C   UNL     1       0.041  -0.627   2.125  1.00  0.00     0.044 C 
HETATM    9  C   UNL     1       0.585   1.221   0.517  1.00  0.00     0.034 C 
HETATM   10  C   UNL     1       0.807   1.669  -0.922  1.00  0.00     0.005 C 
HETATM   11  C   UNL     1       1.788   0.753  -1.631  1.00  0.00     0.014 C 
HETATM   12  C   UNL     1       1.331  -0.731  -1.621  1.00  0.00    -0.020 C 
HETATM   13  C   UNL     1       2.543  -1.543  -2.133  1.00  0.00     0.020 C 
HETATM   14  C   UNL     1       0.138  -0.909  -2.590  1.00  0.00     0.020 C 
ENDBRANCH   5   6
ENDBRANCH   1   4
BRANCH   2  15
HETATM   15  C   UNL     1      -1.404  -4.589   1.450  1.00  0.00     0.001 C 
HETATM   16  C   UNL     1      -2.559  -4.809   0.802  1.00  0.00     0.006 C 
BRANCH  16  17
HETATM   17  C   UNL     1      -3.746  -3.972   0.900  1.00  0.00    -0.064 C 
HETATM   18  C   UNL     1      -4.574  -3.874   1.956  1.00  0.00     0.006 C 
HETATM   19  C   UNL     1      -4.067  -3.189  -0.349  1.00  0.00     0.048 C 
BRANCH  18  20
HETATM   20  C   UNL     1      -4.543  -4.580   3.274  1.00  0.00     0.206 C 
BRANCH  20  21
HETATM   21  O   UNL     1      -5.835  -5.183   3.467  1.00  0.00    -0.318 OA
BRANCH  21  22
HETATM   22  C   UNL     1      -5.848  -6.485   3.846  1.00  0.00     0.255 C 
HETATM   23  O   UNL     1      -4.862  -7.199   4.004  1.00  0.00    -0.266 OA
HETATM   24  C   UNL     1      -7.255  -6.954   4.063  1.00  0.00     0.126 C 
ENDBRANCH  21  22
ENDBRANCH  20  21
ENDBRANCH  18  20
ENDBRANCH  16  17
ENDBRANCH   2  15
TORSDOF 7
