REMARK  21 active torsions:
REMARK  status: ('A' for Active; 'I' for Inactive)
REMARK    1  A    between atoms: C_2  and  C_3 
REMARK    2  A    between atoms: C_3  and  C_4 
REMARK    3  A    between atoms: C_4  and  C_5 
REMARK    4  A    between atoms: C_5  and  C_6 
REMARK    5  A    between atoms: C_6  and  C_7 
REMARK    6  A    between atoms: C_7  and  C_8 
REMARK    7  A    between atoms: C_8  and  C_9 
REMARK    8  A    between atoms: C_9  and  C_10 
REMARK    9  A    between atoms: C_10  and  C_11 
REMARK   10  A    between atoms: C_11  and  C_12 
REMARK   11  A    between atoms: C_12  and  C_13 
REMARK   12  A    between atoms: C_13  and  C_14 
REMARK   13  A    between atoms: C_14  and  C_15 
REMARK   14  A    between atoms: C_15  and  C_16 
REMARK   15  A    between atoms: C_16  and  O_18 
REMARK   16  A    between atoms: O_18  and  C_19 
REMARK   17  A    between atoms: C_19  and  C_20 
REMARK   18  A    between atoms: C_21  and  C_23 
REMARK   19  A    between atoms: C_24  and  C_25 
REMARK   20  A    between atoms: C_26  and  C_28 
REMARK   21  A    between atoms: C_29  and  C_30 
ROOT
HETATM    1  C   UNL     1      18.806  -8.248  -7.813  1.00  0.00     0.206 C 
ENDROOT
BRANCH   1   2
HETATM    2  O   UNL     1      17.367  -8.248  -7.803  1.00  0.00    -0.318 OA
BRANCH   2   3
HETATM    3  C   UNL     1      16.819  -7.318  -6.966  1.00  0.00     0.259 C 
HETATM    4  O   UNL     1      17.461  -6.561  -6.235  1.00  0.00    -0.265 OA
BRANCH   3   5
HETATM    5  C   UNL     1      15.316  -7.363  -6.979  1.00  0.00     0.111 C 
BRANCH   5   6
HETATM    6  C   UNL     1      14.790  -8.347  -5.946  1.00  0.00     0.010 C 
BRANCH   6   7
HETATM    7  C   UNL     1      13.266  -8.401  -5.938  1.00  0.00     0.000 C 
BRANCH   7   8
HETATM    8  C   UNL     1      12.777  -9.400  -4.895  1.00  0.00     0.000 C 
BRANCH   8   9
HETATM    9  C   UNL     1      11.258  -9.461  -4.882  1.00  0.00     0.000 C 
BRANCH   9  10
HETATM   10  C   UNL     1      10.777 -10.457  -3.839  1.00  0.00     0.000 C 
BRANCH  10  11
HETATM   11  C   UNL     1       9.260 -10.513  -3.835  1.00  0.00     0.000 C 
BRANCH  11  12
HETATM   12  C   UNL     1       8.778 -11.507  -2.794  1.00  0.00     0.000 C 
BRANCH  12  13
HETATM   13  C   UNL     1       7.261 -11.558  -2.792  1.00  0.00     0.000 C 
BRANCH  13  14
HETATM   14  C   UNL     1       6.781 -12.553  -1.752  1.00  0.00     0.000 C 
BRANCH  14  15
HETATM   15  C   UNL     1       5.264 -12.606  -1.748  1.00  0.00     0.000 C 
BRANCH  15  16
HETATM   16  C   UNL     1       4.782 -13.603  -0.707  1.00  0.00     0.000 C 
BRANCH  16  17
HETATM   17  C   UNL     1       3.264 -13.658  -0.701  1.00  0.00    -0.000 C 
BRANCH  17  18
HETATM   18  C   UNL     1       2.771 -14.652   0.340  1.00  0.00    -0.005 C 
HETATM   19  C   UNL     1       1.256 -14.704   0.343  1.00  0.00     0.005 C 
ENDBRANCH  17  18
ENDBRANCH  16  17
ENDBRANCH  15  16
ENDBRANCH  14  15
ENDBRANCH  13  14
ENDBRANCH  12  13
ENDBRANCH  11  12
ENDBRANCH  10  11
ENDBRANCH   9  10
ENDBRANCH   8   9
ENDBRANCH   7   8
ENDBRANCH   6   7
ENDBRANCH   5   6
ENDBRANCH   3   5
ENDBRANCH   2   3
ENDBRANCH   1   2
BRANCH   1  20
HETATM   20  C   UNL     1      19.385  -9.593  -7.419  1.00  0.00     0.006 C 
HETATM   21  C   UNL     1      20.708  -9.848  -7.335  1.00  0.00    -0.064 C 
HETATM   22  C   UNL     1      21.728  -8.767  -7.645  1.00  0.00     0.048 C 
BRANCH  21  23
HETATM   23  C   UNL     1      21.221 -11.180  -6.935  1.00  0.00     0.006 C 
HETATM   24  C   UNL     1      22.511 -11.495  -6.838  1.00  0.00     0.001 C 
BRANCH  24  25
HETATM   25  C   UNL     1      23.101 -12.761  -6.417  1.00  0.00     0.007 C 
HETATM   26  C   UNL     1      24.430 -12.995  -6.342  1.00  0.00    -0.062 C 
HETATM   27  C   UNL     1      25.478 -11.992  -6.764  1.00  0.00     0.048 C 
BRANCH  26  28
HETATM   28  C   UNL     1      24.939 -14.292  -5.871  1.00  0.00     0.007 C 
HETATM   29  C   UNL     1      26.236 -14.644  -5.746  1.00  0.00     0.009 C 
BRANCH  29  30
HETATM   30  C   UNL     1      26.710 -16.007  -5.467  1.00  0.00    -0.048 C 
HETATM   31  C   UNL     1      26.405 -17.019  -6.319  1.00  0.00    -0.077 C 
HETATM   32  C   UNL     1      26.822 -18.454  -6.078  1.00  0.00     0.034 C 
HETATM   33  C   UNL     1      25.667 -16.871  -7.630  1.00  0.00     0.044 C 
HETATM   34  C   UNL     1      27.372 -18.734  -4.690  1.00  0.00     0.005 C 
HETATM   35  C   UNL     1      28.338 -17.633  -4.293  1.00  0.00     0.014 C 
HETATM   36  C   UNL     1      27.644 -16.235  -4.243  1.00  0.00    -0.020 C 
HETATM   37  C   UNL     1      28.792 -15.203  -4.166  1.00  0.00     0.020 C 
HETATM   38  C   UNL     1      26.832 -16.148  -2.935  1.00  0.00     0.020 C 
ENDBRANCH  29  30
ENDBRANCH  26  28
ENDBRANCH  24  25
ENDBRANCH  21  23
ENDBRANCH   1  20
TORSDOF 21
