REMARK  11 active torsions:
REMARK  status: ('A' for Active; 'I' for Inactive)
REMARK    1  A    between atoms: C_1  and  C_2 
REMARK    2  A    between atoms: C_1  and  C_9 
REMARK    3  A    between atoms: C_2  and  C_3 
REMARK    4  A    between atoms: C_3  and  C_4 
REMARK    5  A    between atoms: C_4  and  C_5 
REMARK    6  A    between atoms: C_5  and  C_6 
REMARK    7  A    between atoms: C_6  and  O_8 
REMARK    8  A    between atoms: C_9  and  C_10 
REMARK    9  A    between atoms: C_10  and  C_11 
REMARK   10  A    between atoms: C_11  and  C_12 
REMARK   11  A    between atoms: C_12  and  O_14 
ROOT
HETATM    1  C   UNL     1       1.044  -0.044   0.085  1.00  0.00     0.000 C 
ENDROOT
BRANCH   1   2
HETATM    2  C   UNL     1       0.504   0.011  -1.346  1.00  0.00     0.000 C 
BRANCH   2   3
HETATM    3  C   UNL     1       0.927  -1.190  -2.195  1.00  0.00     0.001 C 
BRANCH   3   4
HETATM    4  C   UNL     1       0.353  -1.102  -3.607  1.00  0.00     0.010 C 
BRANCH   4   5
HETATM    5  C   UNL     1       0.803  -2.286  -4.461  1.00  0.00     0.110 C 
BRANCH   5   6
HETATM    6  C   UNL     1       0.260  -2.196  -5.868  1.00  0.00     0.139 C 
HETATM    7  O   UNL     1      -0.440  -1.294  -6.300  1.00  0.00    -0.650 OA
BRANCH   6   8
HETATM    8  O   UNL     1       0.643  -3.243  -6.634  1.00  0.00    -0.776 OA
HETATM    9  H   UNL     1       1.201  -3.891  -6.163  1.00  0.00     0.167 HD
ENDBRANCH   6   8
ENDBRANCH   5   6
ENDBRANCH   4   5
ENDBRANCH   3   4
ENDBRANCH   2   3
ENDBRANCH   1   2
BRANCH   1  10
HETATM   10  C   UNL     1       2.573  -0.020   0.152  1.00  0.00     0.001 C 
BRANCH  10  11
HETATM   11  C   UNL     1       3.066  -0.058   1.597  1.00  0.00     0.010 C 
BRANCH  11  12
HETATM   12  C   UNL     1       4.592  -0.069   1.660  1.00  0.00     0.110 C 
BRANCH  12  13
HETATM   13  C   UNL     1       5.090  -0.129   3.085  1.00  0.00     0.139 C 
HETATM   14  O   UNL     1       4.386  -0.179   4.080  1.00  0.00    -0.650 OA
BRANCH  13  15
HETATM   15  O   UNL     1       6.442  -0.129   3.157  1.00  0.00    -0.776 OA
HETATM   16  H   UNL     1       6.881  -0.084   2.287  1.00  0.00     0.167 HD
ENDBRANCH  13  15
ENDBRANCH  12  13
ENDBRANCH  11  12
ENDBRANCH  10  11
ENDBRANCH   1  10
TORSDOF 11
