REMARK  5 active torsions:
REMARK  status: ('A' for Active; 'I' for Inactive)
REMARK    1  A    between atoms: SI_2  and  O_4 
REMARK    2  A    between atoms: SI_2  and  O_5 
REMARK    3  A    between atoms: O_5  and  C_6 
REMARK    4  A    between atoms: C_6  and  C_8 
REMARK    5  A    between atoms: C_13  and  O_14 
ROOT
HETATM    1  C   UNL     1       5.208   1.567   2.825  1.00  0.00     0.075 A 
HETATM    2  C   UNL     1       6.432   1.184   3.401  1.00  0.00     0.020 A 
HETATM    3  C   UNL     1       6.798   1.645   4.667  1.00  0.00     0.001 A 
HETATM    4  C   UNL     1       5.948   2.497   5.366  1.00  0.00     0.003 A 
HETATM    5  C   UNL     1       4.743   2.909   4.794  1.00  0.00     0.037 A 
HETATM    6  C   UNL     1       4.379   2.455   3.522  1.00  0.00     0.082 A 
ENDROOT
BRANCH   1   7
HETATM    7  C   UNL     1       4.898   1.002   1.486  1.00  0.00     0.325 C 
HETATM    8  O   UNL     1       5.780   0.635   0.718  1.00  0.00    -0.257 OA
BRANCH   7   9
HETATM    9  O   UNL     1       3.569   0.866   1.293  1.00  0.00    -0.144 OA
BRANCH   9  10
HETATM   10 SI   UNL     1       2.905   0.249  -0.102  1.00  0.00     0.000 Si
HETATM   11  C   UNL     1       3.372  -1.554  -0.331  1.00  0.00     0.000 C 
HETATM   12  C   UNL     1       3.492   1.195  -1.613  1.00  0.00     0.000 C 
BRANCH  10  13
HETATM   13  O   UNL     1       1.240   0.378   0.015  1.00  0.00    -0.253 OA
HETATM   14  H   UNL     1       0.736   0.110  -0.769  1.00  0.00     0.253 HD
ENDBRANCH  10  13
ENDBRANCH   9  10
ENDBRANCH   7   9
ENDBRANCH   1   7
BRANCH   6  15
HETATM   15  O   UNL     1       3.224   2.925   2.963  1.00  0.00    -0.360 OA
HETATM   16  H   UNL     1       2.751   3.483   3.602  1.00  0.00     0.217 HD
ENDBRANCH   6  15
TORSDOF 5
