REMARK  13 active torsions:
REMARK  status: ('A' for Active; 'I' for Inactive)
REMARK       I    between atoms: C_2  and  N_4 
REMARK    1  A    between atoms: N_4  and  C_5 
REMARK    2  A    between atoms: C_6  and  O_18 
REMARK    3  A    between atoms: C_7  and  O_17 
REMARK    4  A    between atoms: C_8  and  O_12 
REMARK    5  A    between atoms: C_10  and  O_11 
REMARK    6  A    between atoms: O_12  and  S_13 
REMARK    7  A    between atoms: S_13  and  O_16 
REMARK    8  A    between atoms: O_18  and  C_19 
REMARK    9  A    between atoms: C_20  and  O_30 
REMARK   10  A    between atoms: C_21  and  O_29 
REMARK   11  A    between atoms: C_22  and  O_28 
REMARK   12  A    between atoms: C_23  and  C_25 
REMARK   13  A    between atoms: C_25  and  O_27 
ROOT
HETATM    1  C   UNL     1       4.401   0.937   1.121  1.00  0.00     0.171 C 
HETATM    2  C   UNL     1       5.020   0.994   2.544  1.00  0.00     0.185 C 
HETATM    3  C   UNL     1       4.864   2.458   3.043  1.00  0.00     0.205 C 
HETATM    4  C   UNL     1       5.472   3.488   2.069  1.00  0.00     0.315 C 
HETATM    5  O   UNL     1       4.838   3.349   0.790  1.00  0.00    -0.326 OA
HETATM    6  C   UNL     1       5.025   2.046   0.238  1.00  0.00     0.285 C 
ENDROOT
BRANCH   2   7
HETATM    7  O   UNL     1       6.400   0.549   2.606  1.00  0.00    -0.348 OA
BRANCH   7   8
HETATM    8  C   UNL     1       6.648  -0.743   2.032  1.00  0.00     0.292 C 
HETATM    9  C   UNL     1       6.128  -1.981   2.803  1.00  0.00     0.204 C 
HETATM   10  C   UNL     1       7.061  -2.352   3.971  1.00  0.00     0.183 C 
HETATM   11  C   UNL     1       8.535  -2.389   3.543  1.00  0.00     0.189 C 
HETATM   12  C   UNL     1       8.873  -1.062   2.861  1.00  0.00     0.253 C 
HETATM   13  O   UNL     1       8.043  -0.870   1.704  1.00  0.00    -0.340 OA
BRANCH   9  14
HETATM   14  O   UNL     1       6.011  -3.080   1.872  1.00  0.00    -0.388 OA
HETATM   15  H   UNL     1       6.838  -3.147   1.365  1.00  0.00     0.210 HD
ENDBRANCH   9  14
BRANCH  10  16
HETATM   16  O   UNL     1       6.701  -3.631   4.509  1.00  0.00    -0.390 OA
HETATM   17  H   UNL     1       6.992  -4.281   3.834  1.00  0.00     0.210 HD
ENDBRANCH  10  16
BRANCH  11  18
HETATM   18  O   UNL     1       8.677  -3.540   2.683  1.00  0.00    -0.390 OA
HETATM   19  H   UNL     1       9.050  -3.282   1.825  1.00  0.00     0.210 HD
ENDBRANCH  11  18
BRANCH  12  20
HETATM   20  C   UNL     1      10.321  -1.028   2.390  1.00  0.00     0.172 C 
HETATM   21  O   UNL     1      11.283  -1.359   3.054  1.00  0.00    -0.648 OA
BRANCH  20  22
HETATM   22  O   UNL     1      10.430  -0.584   1.111  1.00  0.00    -0.774 OA
HETATM   23  H   UNL     1       9.534  -0.354   0.775  1.00  0.00     0.167 HD
ENDBRANCH  20  22
ENDBRANCH  12  20
ENDBRANCH   7   8
ENDBRANCH   2   7
BRANCH   1  24
HETATM   24  N   UNL     1       2.937   0.934   1.162  1.00  0.00    -0.349 N 
HETATM   25  C   UNL     1       2.303  -0.170   1.698  1.00  0.00     0.214 C 
HETATM   26  C   UNL     1       0.807  -0.126   1.689  1.00  0.00     0.117 C 
HETATM   27  O   UNL     1       2.927  -1.118   2.163  1.00  0.00    -0.274 OA
HETATM   28  H   UNL     1       2.401   1.702   0.768  1.00  0.00     0.163 HD
ENDBRANCH   1  24
BRANCH   3  29
HETATM   29  O   UNL     1       5.347   2.625   4.371  1.00  0.00    -0.388 OA
HETATM   30  H   UNL     1       6.219   2.199   4.416  1.00  0.00     0.210 HD
ENDBRANCH   3  29
BRANCH   6  31
HETATM   31  O   UNL     1       4.486   2.039  -1.075  1.00  0.00    -0.369 OA
HETATM   32  H   UNL     1       3.851   1.306  -1.144  1.00  0.00     0.212 HD
ENDBRANCH   6  31
BRANCH   4  33
HETATM   33  O   UNL     1       6.873   3.339   1.979  1.00  0.00    -0.228 OA
BRANCH  33  34
HETATM   34  S   UNL     1       7.724   4.475   1.195  1.00  0.00     0.243 S 
HETATM   35  O   UNL     1       7.340   5.771   1.702  1.00  0.00    -0.579 OA
HETATM   36  O   UNL     1       9.101   4.037   1.168  1.00  0.00    -0.579 OA
BRANCH  34  37
HETATM   37  O   UNL     1       7.159   4.373  -0.309  1.00  0.00    -0.273 OA
HETATM   38  H   UNL     1       6.204   4.599  -0.327  1.00  0.00     0.234 HD
ENDBRANCH  34  37
ENDBRANCH  33  34
ENDBRANCH   4  33
TORSDOF 13
