REMARK  1 active torsions:
REMARK  status: ('A' for Active; 'I' for Inactive)
REMARK    1  A    between atoms: C_9  and  C_12 
ROOT
HETATM    1  C   UNL     1       2.454  -0.658  -0.016  1.00  0.00     0.001 A 
HETATM    2  C   UNL     1       2.407   0.731  -0.030  1.00  0.00     0.002 A 
HETATM    3  C   UNL     1       1.171   1.388  -0.060  1.00  0.00     0.030 A 
HETATM    4  C   UNL     1      -0.031   0.690  -0.070  1.00  0.00     0.042 A 
HETATM    5  C   UNL     1       0.028  -0.719  -0.063  1.00  0.00    -0.009 A 
HETATM    6  C   UNL     1       1.266  -1.385  -0.037  1.00  0.00     0.013 A 
HETATM    7  C   UNL     1      -1.177  -1.425  -0.071  1.00  0.00     0.015 A 
HETATM    8  C   UNL     1      -2.382  -0.733  -0.057  1.00  0.00     0.027 A 
HETATM    9  C   UNL     1      -2.359   0.657  -0.039  1.00  0.00     0.029 A 
HETATM   10  N   UNL     1      -1.200   1.365  -0.068  1.00  0.00    -0.358 N 
ATOM     11  HN  UNL     1      -1.213   2.385  -0.088  1.00  0.00     0.166 HD
ENDROOT
BRANCH   9  12
HETATM   12  C   UNL     1      -3.647   1.418   0.092  1.00  0.00     0.185 A 
HETATM   13  C   UNL     1      -3.957   2.334  -1.072  1.00  0.00     0.177 A 
HETATM   14  O   UNL     1      -4.080   2.034  -2.248  1.00  0.00    -0.291 OA
HETATM   15  C   UNL     1      -4.204   3.679  -0.549  1.00  0.00     0.025 A 
HETATM   16  C   UNL     1      -4.636   4.806  -1.225  1.00  0.00     0.016 A 
HETATM   17  C   UNL     1      -4.004   3.692   0.825  1.00  0.00     0.025 A 
HETATM   18  C   UNL     1      -4.854   5.968  -0.476  1.00  0.00     0.001 A 
HETATM   19  C   UNL     1      -4.631   5.983   0.915  1.00  0.00     0.001 A 
HETATM   20  C   UNL     1      -4.201   4.833   1.582  1.00  0.00     0.016 A 
HETATM   21  C   UNL     1      -3.653   2.350   1.287  1.00  0.00     0.177 A 
HETATM   22  O   UNL     1      -3.486   2.066   2.461  1.00  0.00    -0.291 OA
ENDBRANCH   9  12
TORSDOF 1
