REMARK  2 active torsions:
REMARK  status: ('A' for Active; 'I' for Inactive)
REMARK    1  A    between atoms: C_5  and  O_8 
REMARK    2  A    between atoms: C_13  and  O_32 
ROOT
HETATM    1  C   UNL     1       0.450   2.454   0.587  1.00  0.00     0.036 A 
HETATM    2  C   UNL     1      -0.395   1.356   0.306  1.00  0.00     0.023 A 
HETATM    3  C   UNL     1      -1.666   1.578  -0.232  1.00  0.00     0.106 A 
HETATM    4  C   UNL     1      -2.063   2.907  -0.507  1.00  0.00     0.080 A 
HETATM    5  C   UNL     1      -1.204   3.992  -0.226  1.00  0.00     0.103 A 
HETATM    6  C   UNL     1       0.051   3.758   0.324  1.00  0.00     0.046 A 
HETATM    7 BR   UNL     1       1.272   5.154   0.721  1.00  0.00    -0.048 Br
HETATM    8 BR   UNL     1      -3.759   3.272  -1.291  1.00  0.00    -0.045 Br
HETATM    9  O   UNL     1      -2.533   0.533  -0.521  1.00  0.00    -0.306 OA
HETATM   10  C   UNL     1      -2.178  -0.779  -0.242  1.00  0.00     0.106 A 
HETATM   11  C   UNL     1      -3.097  -1.819  -0.507  1.00  0.00     0.080 A 
HETATM   12  C   UNL     1      -2.756  -3.168  -0.264  1.00  0.00     0.103 A 
HETATM   13  C   UNL     1      -1.500  -3.485   0.243  1.00  0.00     0.046 A 
HETATM   14  C   UNL     1      -0.595  -2.467   0.510  1.00  0.00     0.036 A 
HETATM   15  C   UNL     1      -0.920  -1.113   0.270  1.00  0.00     0.023 A 
HETATM   16  C   UNL     1       0.112  -0.047   0.512  1.00  0.00     0.161 A 
HETATM   17  C   UNL     1       1.380  -0.298  -0.242  1.00  0.00     0.028 A 
HETATM   18  C   UNL     1       2.408  -0.513   0.664  1.00  0.00     0.074 A 
HETATM   19  C   UNL     1       3.717  -0.722   0.247  1.00  0.00     0.074 A 
HETATM   20  C   UNL     1       3.972  -0.734  -1.136  1.00  0.00     0.080 A 
HETATM   21  C   UNL     1       2.921  -0.543  -2.061  1.00  0.00     0.080 A 
HETATM   22  C   UNL     1       1.613  -0.317  -1.612  1.00  0.00     0.068 A 
HETATM   23 CL   UNL     1       0.304  -0.053  -2.710  1.00  0.00    -0.082 Cl
HETATM   24 CL   UNL     1       3.235  -0.593  -3.777  1.00  0.00    -0.081 Cl
HETATM   25 CL   UNL     1       5.598  -0.974  -1.709  1.00  0.00    -0.081 Cl
HETATM   26 CL   UNL     1       4.978  -0.932   1.408  1.00  0.00    -0.081 Cl
HETATM   27  C   UNL     1       1.855  -0.470   2.021  1.00  0.00     0.297 A 
HETATM   28  O   UNL     1       2.422  -0.672   3.059  1.00  0.00    -0.259 OA
HETATM   29  O   UNL     1       0.529  -0.158   1.889  1.00  0.00    -0.291 OA
HETATM   30 BR   UNL     1      -0.952  -5.268   0.582  1.00  0.00    -0.048 Br
HETATM   31 BR   UNL     1      -4.822  -1.433  -1.213  1.00  0.00    -0.045 Br
ENDROOT
BRANCH   5  32
HETATM   32  O   UNL     1      -1.556   5.295  -0.475  1.00  0.00    -0.358 OA
HETATM   33  H   UNL     1      -2.462   5.325  -0.828  1.00  0.00     0.217 HD
ENDBRANCH   5  32
BRANCH  12  34
HETATM   34  O   UNL     1      -3.621  -4.203  -0.512  1.00  0.00    -0.358 OA
HETATM   35  H   UNL     1      -4.463  -3.849  -0.845  1.00  0.00     0.217 HD
ENDBRANCH  12  34
TORSDOF 2
