REMARK  5 active torsions:
REMARK  status: ('A' for Active; 'I' for Inactive)
REMARK    1  A    between atoms: C_4  and  N_7 
REMARK    2  A    between atoms: N_9  and  C_11 
REMARK    3  A    between atoms: C_14  and  N_17 
REMARK    4  A    between atoms: N_19  and  C_21 
REMARK    5  A    between atoms: C_22  and  O_31 
ROOT
HETATM    1  C   UNL     1      -5.109  -0.196  -0.619  1.00  0.00     0.048 A 
HETATM    2  C   UNL     1      -5.544   0.779  -1.541  1.00  0.00     0.033 A 
HETATM    3  C   UNL     1      -6.894   0.959  -1.855  1.00  0.00     0.033 A 
HETATM    4  C   UNL     1      -7.887   0.198  -1.243  1.00  0.00     0.048 A 
HETATM    5  C   UNL     1      -7.473  -0.755  -0.296  1.00  0.00     0.033 A 
HETATM    6  C   UNL     1      -6.114  -0.942   0.010  1.00  0.00     0.033 A 
ENDROOT
BRANCH   4   7
HETATM    7  N   UNL     1      -9.278   0.290  -1.520  1.00  0.00    -0.300 N 
HETATM    8  N   UNL     1      -9.666   1.422  -1.904  1.00  0.00    -0.297 N 
ATOM      9  HN  UNL     1      -9.050   2.194  -2.157  1.00  0.00     0.187 HD
ATOM     10  HN  UNL     1      -9.912  -0.502  -1.415  1.00  0.00     0.187 HD
BRANCH   8  11
HETATM   11  C   UNL     1     -11.092   1.473  -1.936  1.00  0.00     0.092 C 
HETATM   12  C   UNL     1     -11.766   1.786  -3.134  1.00  0.00     0.094 C 
HETATM   13  C   UNL     1     -13.152   1.863  -3.204  1.00  0.00     0.040 C 
HETATM   14  C   UNL     1     -13.908   1.455  -2.114  1.00  0.00     0.015 C 
HETATM   15  C   UNL     1     -13.276   1.128  -0.915  1.00  0.00    -0.024 C 
HETATM   16  C   UNL     1     -14.039   0.710   0.185  1.00  0.00     0.012 C 
HETATM   17  C   UNL     1     -11.882   1.299  -0.766  1.00  0.00     0.005 C 
HETATM   18  C   UNL     1     -13.554   0.887   1.473  1.00  0.00     0.001 C 
HETATM   19  C   UNL     1     -12.226   1.244   1.659  1.00  0.00     0.001 C 
HETATM   20  C   UNL     1     -11.375   1.334   0.554  1.00  0.00     0.014 C 
BRANCH  12  21
HETATM   21  O   UNL     1     -11.092   2.052  -4.294  1.00  0.00    -0.358 OA
HETATM   22  H   UNL     1     -10.170   1.777  -4.151  1.00  0.00     0.217 HD
ENDBRANCH  12  21
ENDBRANCH   8  11
ENDBRANCH   4   7
BRANCH   1  23
HETATM   23  N   UNL     1      -3.766  -0.486  -0.335  1.00  0.00    -0.300 N 
HETATM   24  N   UNL     1      -3.003   0.501  -0.470  1.00  0.00    -0.300 N 
ATOM     25  HN  UNL     1      -3.336   1.442  -0.678  1.00  0.00     0.187 HD
ATOM     26  HN  UNL     1      -3.441  -1.409  -0.047  1.00  0.00     0.187 HD
BRANCH  24  27
HETATM   27  C   UNL     1      -1.631   0.177  -0.304  1.00  0.00     0.048 A 
HETATM   28  C   UNL     1      -1.075  -1.081  -0.596  1.00  0.00     0.031 A 
HETATM   29  C   UNL     1       0.302  -1.309  -0.474  1.00  0.00     0.002 A 
HETATM   30  C   UNL     1       1.149  -0.280  -0.068  1.00  0.00     0.000 A 
HETATM   31  C   UNL     1       0.619   0.974   0.223  1.00  0.00     0.002 A 
HETATM   32  C   UNL     1      -0.759   1.196   0.103  1.00  0.00     0.031 A 
ENDBRANCH  24  27
ENDBRANCH   1  23
TORSDOF 5
