REMARK  3 active torsions:
REMARK  status: ('A' for Active; 'I' for Inactive)
REMARK    1  A    between atoms: C_3  and  C_4 
REMARK    2  A    between atoms: C_5  and  C_6 
REMARK    3  A    between atoms: C_6  and  O_8 
ROOT
HETATM    1  C   UNL     1       4.702   0.399   1.260  1.00  0.00     0.006 C 
HETATM    2  C   UNL     1       5.419   0.720   2.348  1.00  0.00     0.081 C 
ENDROOT
BRANCH   2   3
HETATM    3  C   UNL     1       6.894   0.697   2.270  1.00  0.00     0.165 C 
HETATM    4  O   UNL     1       7.534   0.404   1.275  1.00  0.00    -0.647 OA
BRANCH   3   5
HETATM    5  O   UNL     1       7.470   1.042   3.440  1.00  0.00    -0.773 OA
HETATM    6  H   UNL     1       6.859   1.256   4.166  1.00  0.00     0.167 HD
ENDBRANCH   3   5
ENDBRANCH   2   3
BRANCH   1   7
HETATM    7  C   UNL     1       3.256   0.393   1.237  1.00  0.00    -0.004 C 
HETATM    8  C   UNL     1       2.552   0.070   0.142  1.00  0.00    -0.031 C 
HETATM    9  C   UNL     1       1.058   0.060   0.107  1.00  0.00     0.036 C 
ENDBRANCH   1   7
TORSDOF 3
