REMARK  23 active torsions:
REMARK  status: ('A' for Active; 'I' for Inactive)
REMARK    1  A    between atoms: C_2  and  C_3 
REMARK    2  A    between atoms: C_3  and  C_4 
REMARK    3  A    between atoms: C_4  and  C_5 
REMARK    4  A    between atoms: C_5  and  C_6 
REMARK    5  A    between atoms: C_6  and  C_7 
REMARK    6  A    between atoms: C_7  and  C_8 
REMARK    7  A    between atoms: C_8  and  C_9 
REMARK    8  A    between atoms: C_9  and  C_10 
REMARK    9  A    between atoms: C_10  and  C_11 
REMARK   10  A    between atoms: C_11  and  C_12 
REMARK   11  A    between atoms: C_12  and  C_13 
REMARK   12  A    between atoms: C_13  and  C_14 
REMARK   13  A    between atoms: C_14  and  C_15 
REMARK   14  A    between atoms: C_15  and  C_16 
REMARK   15  A    between atoms: C_16  and  C_17 
REMARK   16  A    between atoms: C_17  and  C_18 
REMARK   17  A    between atoms: C_18  and  O_20 
REMARK   18  A    between atoms: O_20  and  C_21 
REMARK   19  A    between atoms: C_21  and  C_22 
REMARK   20  A    between atoms: C_22  and  C_23 
REMARK   21  A    between atoms: C_22  and  O_30 
REMARK   22  A    between atoms: C_24  and  O_29 
REMARK   23  A    between atoms: C_25  and  O_28 
ROOT
HETATM    1  C   UNL     1      17.276  -8.119   4.669  1.00  0.00     0.111 C 
ENDROOT
BRANCH   1   2
HETATM    2  C   UNL     1      16.678  -7.931   6.059  1.00  0.00     0.010 C 
BRANCH   2   3
HETATM    3  C   UNL     1      15.154  -7.920   6.044  1.00  0.00     0.000 C 
BRANCH   3   4
HETATM    4  C   UNL     1      14.629  -6.778   5.181  1.00  0.00     0.000 C 
BRANCH   4   5
HETATM    5  C   UNL     1      13.114  -6.770   5.172  1.00  0.00     0.000 C 
BRANCH   5   6
HETATM    6  C   UNL     1      12.604  -5.632   4.305  1.00  0.00     0.000 C 
BRANCH   6   7
HETATM    7  C   UNL     1      11.086  -5.626   4.301  1.00  0.00     0.000 C 
BRANCH   7   8
HETATM    8  C   UNL     1      10.575  -4.489   3.435  1.00  0.00     0.000 C 
BRANCH   8   9
HETATM    9  C   UNL     1       9.057  -4.485   3.432  1.00  0.00     0.000 C 
BRANCH   9  10
HETATM   10  C   UNL     1       8.546  -3.348   2.567  1.00  0.00     0.000 C 
BRANCH  10  11
HETATM   11  C   UNL     1       7.029  -3.342   2.562  1.00  0.00     0.000 C 
BRANCH  11  12
HETATM   12  C   UNL     1       6.517  -2.205   1.697  1.00  0.00     0.000 C 
BRANCH  12  13
HETATM   13  C   UNL     1       4.999  -2.198   1.694  1.00  0.00     0.000 C 
BRANCH  13  14
HETATM   14  C   UNL     1       4.486  -1.062   0.827  1.00  0.00     0.000 C 
BRANCH  14  15
HETATM   15  C   UNL     1       2.966  -1.053   0.823  1.00  0.00    -0.000 C 
BRANCH  15  16
HETATM   16  C   UNL     1       2.444   0.084  -0.043  1.00  0.00    -0.005 C 
HETATM   17  C   UNL     1       0.928   0.091  -0.046  1.00  0.00     0.005 C 
ENDBRANCH  15  16
ENDBRANCH  14  15
ENDBRANCH  13  14
ENDBRANCH  12  13
ENDBRANCH  11  12
ENDBRANCH  10  11
ENDBRANCH   9  10
ENDBRANCH   8   9
ENDBRANCH   7   8
ENDBRANCH   6   7
ENDBRANCH   5   6
ENDBRANCH   4   5
ENDBRANCH   3   4
ENDBRANCH   2   3
ENDBRANCH   1   2
BRANCH   1  18
HETATM   18  C   UNL     1      18.788  -8.096   4.744  1.00  0.00     0.258 C 
HETATM   19  O   UNL     1      19.420  -7.154   5.163  1.00  0.00    -0.265 OA
BRANCH  18  20
HETATM   20  O   UNL     1      19.314  -9.252   4.221  1.00  0.00    -0.319 OA
BRANCH  20  21
HETATM   21  C   UNL     1      20.636  -9.155   3.633  1.00  0.00     0.213 C 
BRANCH  21  22
HETATM   22  C   UNL     1      21.780  -9.122   4.657  1.00  0.00     0.174 C 
BRANCH  22  23
HETATM   23  C   UNL     1      21.788 -10.390   5.535  1.00  0.00     0.183 C 
HETATM   24  C   UNL     1      22.928 -10.369   6.569  1.00  0.00     0.180 C 
HETATM   25  C   UNL     1      23.414 -11.814   6.649  1.00  0.00     0.173 C 
HETATM   26  C   UNL     1      22.496 -12.569   5.706  1.00  0.00     0.202 C 
HETATM   27  O   UNL     1      22.011 -11.607   4.768  1.00  0.00    -0.378 OA
BRANCH  24  28
HETATM   28  O   UNL     1      22.594  -9.885   7.864  1.00  0.00    -0.390 OA
HETATM   29  H   UNL     1      21.628  -9.932   8.002  1.00  0.00     0.210 HD
ENDBRANCH  24  28
BRANCH  25  30
HETATM   30  O   UNL     1      23.403 -12.363   7.966  1.00  0.00    -0.391 OA
HETATM   31  H   UNL     1      22.490 -12.334   8.303  1.00  0.00     0.210 HD
ENDBRANCH  25  30
ENDBRANCH  22  23
BRANCH  22  32
HETATM   32  O   UNL     1      23.044  -8.933   3.999  1.00  0.00    -0.391 OA
HETATM   33  H   UNL     1      23.086  -9.550   3.247  1.00  0.00     0.210 HD
ENDBRANCH  22  32
ENDBRANCH  21  22
ENDBRANCH  20  21
ENDBRANCH  18  20
ENDBRANCH   1  18
TORSDOF 23
