REMARK  22 active torsions:
REMARK  status: ('A' for Active; 'I' for Inactive)
REMARK    1  A    between atoms: C_2  and  C_4 
REMARK    2  A    between atoms: C_4  and  C_5 
REMARK    3  A    between atoms: C_5  and  C_6 
REMARK    4  A    between atoms: C_6  and  C_7 
REMARK    5  A    between atoms: C_7  and  C_8 
REMARK    6  A    between atoms: C_8  and  C_9 
REMARK    7  A    between atoms: C_9  and  C_10 
REMARK    8  A    between atoms: C_10  and  C_11 
REMARK    9  A    between atoms: C_11  and  C_12 
REMARK   10  A    between atoms: C_12  and  C_13 
REMARK   11  A    between atoms: C_13  and  C_14 
REMARK   12  A    between atoms: C_14  and  C_15 
REMARK   13  A    between atoms: C_15  and  C_16 
REMARK   14  A    between atoms: C_16  and  C_17 
REMARK   15  A    between atoms: C_17  and  C_18 
REMARK   16  A    between atoms: C_18  and  O_20 
REMARK   17  A    between atoms: O_20  and  C_21 
REMARK   18  A    between atoms: C_21  and  C_22 
REMARK   19  A    between atoms: C_21  and  C_24 
REMARK   20  A    between atoms: C_22  and  O_23 
REMARK   21  A    between atoms: C_25  and  O_30 
REMARK   22  A    between atoms: C_26  and  O_29 
ROOT
HETATM    1  C   UNL     1      16.740  -9.081   4.452  1.00  0.00     0.111 C 
ENDROOT
BRANCH   1   2
HETATM    2  C   UNL     1      15.215  -8.993   4.431  1.00  0.00     0.010 C 
BRANCH   2   3
HETATM    3  C   UNL     1      14.723  -7.692   3.801  1.00  0.00     0.000 C 
BRANCH   3   4
HETATM    4  C   UNL     1      13.193  -7.653   3.793  1.00  0.00     0.000 C 
BRANCH   4   5
HETATM    5  C   UNL     1      12.666  -6.368   3.163  1.00  0.00     0.000 C 
BRANCH   5   6
HETATM    6  C   UNL     1      11.139  -6.358   3.164  1.00  0.00     0.000 C 
BRANCH   6   7
HETATM    7  C   UNL     1      10.604  -5.077   2.534  1.00  0.00     0.000 C 
BRANCH   7   8
HETATM    8  C   UNL     1       9.079  -5.072   2.536  1.00  0.00     0.000 C 
BRANCH   8   9
HETATM    9  C   UNL     1       8.545  -3.793   1.905  1.00  0.00     0.000 C 
BRANCH   9  10
HETATM   10  C   UNL     1       7.021  -3.787   1.907  1.00  0.00     0.000 C 
BRANCH  10  11
HETATM   11  C   UNL     1       6.494  -2.508   1.272  1.00  0.00     0.000 C 
BRANCH  11  12
HETATM   12  C   UNL     1       4.969  -2.489   1.264  1.00  0.00     0.000 C 
BRANCH  12  13
HETATM   13  C   UNL     1       4.468  -1.191   0.639  1.00  0.00     0.000 C 
BRANCH  13  14
HETATM   14  C   UNL     1       2.942  -1.129   0.631  1.00  0.00     0.004 C 
BRANCH  14  15
HETATM   15  C   UNL     1       2.398   0.160  -0.007  1.00  0.00    -0.023 C 
HETATM   16  C   UNL     1       0.869   0.129  -0.001  1.00  0.00     0.009 C 
HETATM   17  C   UNL     1       2.893   1.422   0.702  1.00  0.00     0.009 C 
ENDBRANCH  14  15
ENDBRANCH  13  14
ENDBRANCH  12  13
ENDBRANCH  11  12
ENDBRANCH  10  11
ENDBRANCH   9  10
ENDBRANCH   8   9
ENDBRANCH   7   8
ENDBRANCH   6   7
ENDBRANCH   5   6
ENDBRANCH   4   5
ENDBRANCH   3   4
ENDBRANCH   2   3
ENDBRANCH   1   2
BRANCH   1  18
HETATM   18  C   UNL     1      17.209 -10.325   5.173  1.00  0.00     0.259 C 
HETATM   19  O   UNL     1      16.478 -11.145   5.709  1.00  0.00    -0.265 OA
BRANCH  18  20
HETATM   20  O   UNL     1      18.573 -10.333   5.222  1.00  0.00    -0.311 OA
BRANCH  20  21
HETATM   21  C   UNL     1      19.172 -10.573   6.528  1.00  0.00     0.187 C 
BRANCH  21  22
HETATM   22  C   UNL     1      19.038 -12.062   6.924  1.00  0.00     0.199 C 
BRANCH  22  23
HETATM   23  O   UNL     1      19.764 -12.931   6.037  1.00  0.00    -0.398 OA
HETATM   24  H   UNL     1      19.332 -12.807   5.165  1.00  0.00     0.209 HD
ENDBRANCH  22  23
ENDBRANCH  21  22
BRANCH  21  25
HETATM   25  C   UNL     1      20.641 -10.085   6.450  1.00  0.00     0.184 C 
HETATM   26  C   UNL     1      21.432 -10.162   7.766  1.00  0.00     0.180 C 
HETATM   27  C   UNL     1      22.194  -8.845   7.855  1.00  0.00     0.173 C 
HETATM   28  C   UNL     1      22.017  -8.249   6.478  1.00  0.00     0.202 C 
HETATM   29  O   UNL     1      20.730  -8.693   6.060  1.00  0.00    -0.378 OA
BRANCH  26  30
HETATM   30  O   UNL     1      22.429 -11.193   7.742  1.00  0.00    -0.390 OA
HETATM   31  H   UNL     1      21.952 -12.028   7.513  1.00  0.00     0.210 HD
ENDBRANCH  26  30
BRANCH  27  32
HETATM   32  O   UNL     1      23.557  -9.069   8.171  1.00  0.00    -0.391 OA
HETATM   33  H   UNL     1      23.673 -10.047   8.157  1.00  0.00     0.210 HD
ENDBRANCH  27  32
ENDBRANCH  21  25
ENDBRANCH  20  21
ENDBRANCH  18  20
ENDBRANCH   1  18
TORSDOF 22
