REMARK WARNING: 32 MAX_TORS EXCEEDED!!!
REMARK  70 active torsions:
REMARK  status: ('A' for Active; 'I' for Inactive)
REMARK    1  A    between atoms: C_2  and  C_3 
REMARK    2  A    between atoms: C_3  and  C_4 
REMARK    3  A    between atoms: C_4  and  C_5 
REMARK    4  A    between atoms: C_5  and  C_6 
REMARK    5  A    between atoms: C_6  and  C_7 
REMARK    6  A    between atoms: C_7  and  C_8 
REMARK    7  A    between atoms: C_8  and  C_9 
REMARK    8  A    between atoms: C_10  and  C_11 
REMARK    9  A    between atoms: C_11  and  C_12 
REMARK   10  A    between atoms: C_12  and  C_13 
REMARK   11  A    between atoms: C_13  and  C_14 
REMARK   12  A    between atoms: C_14  and  C_15 
REMARK   13  A    between atoms: C_15  and  C_16 
REMARK   14  A    between atoms: C_16  and  C_17 
REMARK   15  A    between atoms: C_17  and  C_18 
REMARK   16  A    between atoms: C_18  and  O_20 
REMARK   17  A    between atoms: C_23  and  C_24 
REMARK   18  A    between atoms: C_24  and  C_25 
REMARK   19  A    between atoms: C_25  and  C_26 
REMARK   20  A    between atoms: C_26  and  C_27 
REMARK   21  A    between atoms: C_27  and  C_28 
REMARK   22  A    between atoms: C_28  and  C_29 
REMARK   23  A    between atoms: C_29  and  C_30 
REMARK   24  A    between atoms: C_31  and  C_32 
REMARK   25  A    between atoms: C_32  and  C_33 
REMARK   26  A    between atoms: C_33  and  C_34 
REMARK   27  A    between atoms: C_34  and  C_35 
REMARK   28  A    between atoms: C_35  and  C_36 
REMARK   29  A    between atoms: C_36  and  C_37 
REMARK   30  A    between atoms: C_37  and  C_38 
REMARK   31  A    between atoms: C_38  and  C_39 
REMARK   32  A    between atoms: C_39  and  O_41 
REMARK   33  A    between atoms: C_44  and  C_45 
REMARK   34  A    between atoms: C_45  and  C_46 
REMARK   35  A    between atoms: C_46  and  C_47 
REMARK   36  A    between atoms: C_47  and  C_48 
REMARK   37  A    between atoms: C_48  and  C_49 
REMARK   38  A    between atoms: C_49  and  C_50 
REMARK   39  A    between atoms: C_50  and  C_51 
REMARK   40  A    between atoms: C_52  and  C_53 
REMARK   41  A    between atoms: C_53  and  C_54 
REMARK   42  A    between atoms: C_54  and  C_55 
REMARK   43  A    between atoms: C_55  and  C_56 
REMARK   44  A    between atoms: C_56  and  C_57 
REMARK   45  A    between atoms: C_57  and  C_58 
REMARK   46  A    between atoms: C_58  and  C_59 
REMARK   47  A    between atoms: C_59  and  C_60 
REMARK   48  A    between atoms: C_60  and  O_62 
REMARK   49  A    between atoms: C_64  and  C_65 
REMARK   50  A    between atoms: C_64  and  O_75 
REMARK   51  A    between atoms: C_65  and  C_66 
REMARK   52  A    between atoms: C_65  and  O_74 
REMARK   53  A    between atoms: C_66  and  C_67 
REMARK   54  A    between atoms: C_66  and  O_73 
REMARK   55  A    between atoms: C_67  and  C_68 
REMARK   56  A    between atoms: C_67  and  O_72 
REMARK   57  A    between atoms: C_68  and  C_69 
REMARK   58  A    between atoms: C_68  and  O_71 
REMARK   59  A    between atoms: C_69  and  O_70 
REMARK   60  A    between atoms: C_82  and  C_83 
REMARK   61  A    between atoms: C_82  and  O_93 
REMARK   62  A    between atoms: C_83  and  C_84 
REMARK   63  A    between atoms: C_83  and  O_92 
REMARK   64  A    between atoms: C_84  and  C_85 
REMARK   65  A    between atoms: C_84  and  O_91 
REMARK   66  A    between atoms: C_85  and  C_86 
REMARK   67  A    between atoms: C_85  and  O_90 
REMARK   68  A    between atoms: C_86  and  C_87 
REMARK   69  A    between atoms: C_86  and  O_89 
REMARK   70  A    between atoms: C_87  and  O_88 
ROOT
HETATM    1  C   UNL     4      -0.558  -1.551   2.775  1.00  0.00     0.180 C 
ENDROOT
BRANCH   1   2
HETATM    2  C   UNL     4      -1.654  -1.243   1.687  1.00  0.00     0.173 C 
BRANCH   2   3
HETATM    3  C   UNL     4      -2.220   0.146   1.286  1.00  0.00     0.198 C 
BRANCH   3   4
HETATM    4  O   UNL     4      -1.325   1.022   0.641  1.00  0.00    -0.398 OA
HETATM    5  H   UNL     4      -1.730   1.914   0.644  1.00  0.00     0.209 HD
ENDBRANCH   3   4
ENDBRANCH   2   3
BRANCH   2   6
HETATM    6  O   UNL     4      -2.784  -2.089   1.962  1.00  0.00    -0.391 OA
HETATM    7  H   UNL     4      -3.426  -1.944   1.241  1.00  0.00     0.210 HD
ENDBRANCH   2   6
ENDBRANCH   1   2
BRANCH   1   8
HETATM    8  C   UNL     4      -0.943  -1.411   4.282  1.00  0.00     0.180 C 
BRANCH   8   9
HETATM    9  C   UNL     4      -0.076  -2.264   5.289  1.00  0.00     0.173 C 
BRANCH   9  10
HETATM   10  C   UNL     4       1.408  -1.910   5.325  1.00  0.00     0.198 C 
BRANCH  10  11
HETATM   11  O   UNL     4       2.149  -2.657   6.290  1.00  0.00    -0.398 OA
HETATM   12  H   UNL     4       1.536  -2.833   7.027  1.00  0.00     0.209 HD
ENDBRANCH  10  11
ENDBRANCH   9  10
BRANCH   9  13
HETATM   13  O   UNL     4      -0.568  -2.078   6.633  1.00  0.00    -0.391 OA
HETATM   14  H   UNL     4      -0.699  -1.114   6.731  1.00  0.00     0.210 HD
ENDBRANCH   9  13
ENDBRANCH   8   9
BRANCH   8  15
HETATM   15  O   UNL     4      -0.921  -0.049   4.741  1.00  0.00    -0.390 OA
HETATM   16  H   UNL     4      -0.684   0.526   3.998  1.00  0.00     0.210 HD
ENDBRANCH   8  15
ENDBRANCH   1   8
BRANCH   1  17
HETATM   17  O   UNL     4      -0.183  -2.936   2.567  1.00  0.00    -0.390 OA
HETATM   18  H   UNL     4      -0.986  -3.461   2.761  1.00  0.00     0.210 HD
ENDBRANCH   1  17
TORSDOF 70
