REMARK  17 active torsions:
REMARK  status: ('A' for Active; 'I' for Inactive)
REMARK    1  A    between atoms: C_2  and  C_3 
REMARK    2  A    between atoms: C_3  and  C_4 
REMARK    3  A    between atoms: C_4  and  C_5 
REMARK    4  A    between atoms: C_5  and  C_6 
REMARK    5  A    between atoms: C_6  and  C_7 
REMARK    6  A    between atoms: C_7  and  C_8 
REMARK    7  A    between atoms: C_8  and  C_9 
REMARK    8  A    between atoms: C_9  and  C_10 
REMARK    9  A    between atoms: C_10  and  C_11 
REMARK   10  A    between atoms: C_11  and  C_12 
REMARK   11  A    between atoms: C_12  and  O_14 
REMARK   12  A    between atoms: O_14  and  C_15 
REMARK   13  A    between atoms: C_15  and  C_16 
REMARK   14  A    between atoms: C_16  and  C_17 
REMARK   15  A    between atoms: C_16  and  O_24 
REMARK   16  A    between atoms: C_18  and  O_23 
REMARK   17  A    between atoms: C_19  and  O_22 
ROOT
HETATM    1  O   UNL     1      10.293   4.598   7.821  1.00  0.00    -0.319 OA
ENDROOT
BRANCH   1   2
HETATM    2  C   UNL     1      10.973   4.403   6.658  1.00  0.00     0.258 C 
HETATM    3  O   UNL     1      11.303   5.287   5.883  1.00  0.00    -0.265 OA
BRANCH   2   4
HETATM    4  C   UNL     1      11.311   2.948   6.479  1.00  0.00     0.111 C 
BRANCH   4   5
HETATM    5  C   UNL     1      10.747   2.379   5.187  1.00  0.00     0.010 C 
BRANCH   5   6
HETATM    6  C   UNL     1       9.219   2.362   5.187  1.00  0.00     0.000 C 
BRANCH   6   7
HETATM    7  C   UNL     1       8.688   1.758   3.891  1.00  0.00     0.000 C 
BRANCH   7   8
HETATM    8  C   UNL     1       7.163   1.757   3.874  1.00  0.00     0.000 C 
BRANCH   8   9
HETATM    9  C   UNL     1       6.638   1.155   2.573  1.00  0.00     0.000 C 
BRANCH   9  10
HETATM   10  C   UNL     1       5.113   1.151   2.551  1.00  0.00     0.000 C 
BRANCH  10  11
HETATM   11  C   UNL     1       4.587   0.550   1.250  1.00  0.00     0.000 C 
BRANCH  11  12
HETATM   12  C   UNL     1       3.060   0.549   1.231  1.00  0.00    -0.000 C 
BRANCH  12  13
HETATM   13  C   UNL     1       2.522  -0.052  -0.064  1.00  0.00    -0.005 C 
HETATM   14  C   UNL     1       1.003  -0.052  -0.081  1.00  0.00     0.005 C 
ENDBRANCH  12  13
ENDBRANCH  11  12
ENDBRANCH  10  11
ENDBRANCH   9  10
ENDBRANCH   8   9
ENDBRANCH   7   8
ENDBRANCH   6   7
ENDBRANCH   5   6
ENDBRANCH   4   5
ENDBRANCH   2   4
ENDBRANCH   1   2
BRANCH   1  15
HETATM   15  C   UNL     1      10.299   5.941   8.315  1.00  0.00     0.213 C 
BRANCH  15  16
HETATM   16  C   UNL     1       9.346   6.911   7.597  1.00  0.00     0.174 C 
BRANCH  16  17
HETATM   17  C   UNL     1       7.875   6.485   7.699  1.00  0.00     0.183 C 
HETATM   18  C   UNL     1       6.907   7.453   6.991  1.00  0.00     0.180 C 
HETATM   19  C   UNL     1       5.714   7.567   7.949  1.00  0.00     0.173 C 
HETATM   20  C   UNL     1       6.041   6.596   9.072  1.00  0.00     0.202 C 
HETATM   21  O   UNL     1       7.466   6.463   9.083  1.00  0.00    -0.378 OA
BRANCH  18  22
HETATM   22  O   UNL     1       6.550   7.012   5.687  1.00  0.00    -0.390 OA
HETATM   23  H   UNL     1       6.244   6.085   5.728  1.00  0.00     0.210 HD
ENDBRANCH  18  22
BRANCH  19  24
HETATM   24  O   UNL     1       4.442   7.301   7.380  1.00  0.00    -0.391 OA
HETATM   25  H   UNL     1       4.501   6.499   6.836  1.00  0.00     0.210 HD
ENDBRANCH  19  24
ENDBRANCH  16  17
BRANCH  16  26
HETATM   26  O   UNL     1       9.513   8.210   8.191  1.00  0.00    -0.391 OA
HETATM   27  H   UNL     1       9.178   8.142   9.104  1.00  0.00     0.210 HD
ENDBRANCH  16  26
ENDBRANCH  15  16
ENDBRANCH   1  15
TORSDOF 17
