REMARK WARNING: 32 MAX_TORS EXCEEDED!!!
REMARK  78 active torsions:
REMARK  status: ('A' for Active; 'I' for Inactive)
REMARK    1  A    between atoms: C_2  and  C_3 
REMARK    2  A    between atoms: C_3  and  C_4 
REMARK    3  A    between atoms: C_4  and  C_5 
REMARK    4  A    between atoms: C_5  and  C_6 
REMARK    5  A    between atoms: C_6  and  C_7 
REMARK    6  A    between atoms: C_7  and  C_8 
REMARK    7  A    between atoms: C_8  and  C_9 
REMARK    8  A    between atoms: C_9  and  C_10 
REMARK    9  A    between atoms: C_10  and  C_11 
REMARK   10  A    between atoms: C_11  and  C_12 
REMARK   11  A    between atoms: C_12  and  C_13 
REMARK   12  A    between atoms: C_13  and  C_14 
REMARK   13  A    between atoms: C_14  and  C_15 
REMARK   14  A    between atoms: C_15  and  C_16 
REMARK   15  A    between atoms: C_16  and  C_17 
REMARK   16  A    between atoms: C_17  and  C_18 
REMARK       I    between atoms: C_18  and  N_20 
REMARK   17  A    between atoms: N_20  and  C_21 
REMARK   18  A    between atoms: C_21  and  C_22 
REMARK   19  A    between atoms: C_22  and  C_23 
REMARK   20  A    between atoms: C_23  and  N_24 
REMARK   21  A    between atoms: N_24  and  C_27 
REMARK   22  A    between atoms: C_27  and  C_28 
REMARK   23  A    between atoms: C_28  and  C_29 
REMARK   24  A    between atoms: C_28  and  O_95 
REMARK   25  A    between atoms: C_29  and  O_30 
REMARK   26  A    between atoms: O_30  and  P_31 
REMARK   27  A    between atoms: P_31  and  O_33 
REMARK   28  A    between atoms: P_31  and  O_64 
REMARK   29  A    between atoms: O_33  and  C_34 
REMARK   30  A    between atoms: C_34  and  C_35 
REMARK   31  A    between atoms: C_35  and  C_36 
REMARK   32  A    between atoms: C_35  and  O_63 
REMARK   33  A    between atoms: C_36  and  N_37 
REMARK   34  A    between atoms: N_37  and  C_40 
REMARK   35  A    between atoms: C_40  and  C_41 
REMARK   36  A    between atoms: C_41  and  C_42 
REMARK   37  A    between atoms: C_42  and  N_43 
REMARK       I    between atoms: N_43  and  C_44 
REMARK   38  A    between atoms: C_44  and  C_46 
REMARK   39  A    between atoms: C_46  and  C_47 
REMARK   40  A    between atoms: C_47  and  C_48 
REMARK   41  A    between atoms: C_48  and  C_49 
REMARK   42  A    between atoms: C_49  and  C_50 
REMARK   43  A    between atoms: C_50  and  C_51 
REMARK   44  A    between atoms: C_51  and  C_52 
REMARK   45  A    between atoms: C_52  and  C_53 
REMARK   46  A    between atoms: C_53  and  C_54 
REMARK   47  A    between atoms: C_54  and  C_55 
REMARK   48  A    between atoms: C_55  and  C_56 
REMARK   49  A    between atoms: C_56  and  C_57 
REMARK   50  A    between atoms: C_57  and  C_58 
REMARK   51  A    between atoms: C_58  and  C_59 
REMARK   52  A    between atoms: C_59  and  C_60 
REMARK   53  A    between atoms: C_60  and  C_61 
REMARK   54  A    between atoms: O_64  and  C_65 
REMARK   55  A    between atoms: C_65  and  C_66 
REMARK   56  A    between atoms: C_66  and  C_67 
REMARK   57  A    between atoms: C_66  and  O_94 
REMARK   58  A    between atoms: C_67  and  N_68 
REMARK   59  A    between atoms: N_68  and  C_71 
REMARK   60  A    between atoms: C_71  and  C_72 
REMARK   61  A    between atoms: C_72  and  C_73 
REMARK   62  A    between atoms: C_73  and  N_74 
REMARK       I    between atoms: N_74  and  C_75 
REMARK   63  A    between atoms: C_75  and  C_77 
REMARK   64  A    between atoms: C_77  and  C_78 
REMARK   65  A    between atoms: C_78  and  C_79 
REMARK   66  A    between atoms: C_79  and  C_80 
REMARK   67  A    between atoms: C_80  and  C_81 
REMARK   68  A    between atoms: C_81  and  C_82 
REMARK   69  A    between atoms: C_82  and  C_83 
REMARK   70  A    between atoms: C_83  and  C_84 
REMARK   71  A    between atoms: C_84  and  C_85 
REMARK   72  A    between atoms: C_85  and  C_86 
REMARK   73  A    between atoms: C_86  and  C_87 
REMARK   74  A    between atoms: C_87  and  C_88 
REMARK   75  A    between atoms: C_88  and  C_89 
REMARK   76  A    between atoms: C_89  and  C_90 
REMARK   77  A    between atoms: C_90  and  C_91 
REMARK   78  A    between atoms: C_91  and  C_92 
ROOT
HETATM    1 CL   UNL     2       1.871  -0.139  -3.001  1.00  0.00     0.000 Cl
ENDROOT
TORSDOF 78
