REMARK  23 active torsions:
REMARK  status: ('A' for Active; 'I' for Inactive)
REMARK    1  A    between atoms: C_2  and  C_3 
REMARK    2  A    between atoms: C_3  and  C_4 
REMARK    3  A    between atoms: C_4  and  C_5 
REMARK    4  A    between atoms: C_5  and  C_6 
REMARK    5  A    between atoms: C_6  and  C_7 
REMARK    6  A    between atoms: C_7  and  C_8 
REMARK    7  A    between atoms: C_8  and  C_9 
REMARK    8  A    between atoms: C_9  and  C_10 
REMARK    9  A    between atoms: C_10  and  C_11 
REMARK   10  A    between atoms: C_11  and  C_12 
REMARK   11  A    between atoms: C_12  and  C_13 
REMARK   12  A    between atoms: C_13  and  C_14 
REMARK   13  A    between atoms: C_14  and  C_15 
REMARK   14  A    between atoms: C_15  and  C_16 
REMARK   15  A    between atoms: C_16  and  C_17 
REMARK   16  A    between atoms: C_17  and  C_18 
REMARK       I    between atoms: C_18  and  N_20 
REMARK   17  A    between atoms: N_20  and  C_21 
REMARK   18  A    between atoms: C_21  and  C_22 
REMARK   19  A    between atoms: C_22  and  C_23 
REMARK   20  A    between atoms: C_23  and  N_24 
REMARK   21  A    between atoms: C_29  and  C_30 
REMARK   22  A    between atoms: C_29  and  O_33 
REMARK   23  A    between atoms: C_30  and  O_32 
ROOT
HETATM    1  C   UNL     2       1.758   1.422  -0.485  1.00  0.00     0.050 C 
HETATM    2  C   UNL     2       3.271   1.570  -0.532  1.00  0.00     0.211 C 
ENDROOT
BRANCH   2   3
HETATM    3  C   UNL     2       3.807   2.115   0.798  1.00  0.00     0.169 C 
HETATM    4  O   UNL     2       3.264   2.962   1.490  1.00  0.00    -0.648 OA
BRANCH   3   5
HETATM    5  O   UNL     2       4.996   1.552   1.122  1.00  0.00    -0.775 OA
HETATM    6  H   UNL     2       5.241   0.913   0.415  1.00  0.00     0.167 HD
ENDBRANCH   3   5
ENDBRANCH   2   3
BRANCH   2   7
HETATM    7  O   UNL     2       3.910   0.320  -0.819  1.00  0.00    -0.385 OA
HETATM    8  H   UNL     2       3.406  -0.388  -0.373  1.00  0.00     0.210 HD
ENDBRANCH   2   7
TORSDOF 23
