REMARK  20 active torsions:
REMARK  status: ('A' for Active; 'I' for Inactive)
REMARK    1  A    between atoms: C_2  and  C_3 
REMARK    2  A    between atoms: C_3  and  C_4 
REMARK    3  A    between atoms: C_4  and  C_5 
REMARK    4  A    between atoms: C_5  and  C_6 
REMARK    5  A    between atoms: C_6  and  C_7 
REMARK    6  A    between atoms: C_7  and  C_8 
REMARK    7  A    between atoms: C_8  and  C_9 
REMARK    8  A    between atoms: C_9  and  C_10 
REMARK    9  A    between atoms: C_10  and  C_11 
REMARK   10  A    between atoms: C_11  and  C_12 
REMARK   11  A    between atoms: C_12  and  C_13 
REMARK   12  A    between atoms: C_13  and  C_14 
REMARK   13  A    between atoms: C_14  and  C_15 
REMARK   14  A    between atoms: C_15  and  C_16 
REMARK   15  A    between atoms: C_16  and  C_17 
REMARK   16  A    between atoms: C_17  and  C_18 
REMARK   17  A    between atoms: C_18  and  O_19 
REMARK   18  A    between atoms: O_19  and  C_20 
REMARK   19  A    between atoms: C_20  and  C_22 
REMARK   20  A    between atoms: C_41  and  O_45 
ROOT
HETATM    1  C   UNL     1      21.389  -5.839  12.832  1.00  0.00     0.045 C 
HETATM    2  C   UNL     1      21.347  -4.308  12.954  1.00  0.00     0.020 C 
HETATM    3  C   UNL     1      22.345  -3.821  13.961  1.00  0.00     0.011 C 
HETATM    4  C   UNL     1      22.001  -4.378  15.343  1.00  0.00    -0.036 C 
HETATM    5  C   UNL     1      23.207  -3.989  16.178  1.00  0.00     0.011 C 
HETATM    6  C   UNL     1      22.889  -4.357  17.575  1.00  0.00     0.015 C 
HETATM    7  C   UNL     1      22.601  -5.867  17.874  1.00  0.00    -0.012 C 
HETATM    8  C   UNL     1      21.837  -6.680  16.823  1.00  0.00    -0.062 C 
HETATM    9  C   UNL     1      21.195  -7.795  17.284  1.00  0.00     0.054 C 
HETATM   10  C   UNL     1      20.945  -8.167  18.855  1.00  0.00     0.155 C 
HETATM   11  O   UNL     1      20.372  -9.232  19.130  1.00  0.00    -0.293 OA
HETATM   12  C   UNL     1      21.482  -7.158  19.950  1.00  0.00     0.077 C 
HETATM   13  C   UNL     1      21.654  -5.876  19.116  1.00  0.00    -0.021 C 
HETATM   14  C   UNL     1      22.261  -4.877  20.050  1.00  0.00     0.011 C 
HETATM   15  C   UNL     1      23.213  -5.523  21.027  1.00  0.00     0.007 C 
HETATM   16  C   UNL     1      22.353  -5.813  22.237  1.00  0.00     0.005 C 
HETATM   17  C   UNL     1      21.026  -6.603  21.608  1.00  0.00    -0.028 C 
HETATM   18  C   UNL     1      19.756  -5.645  21.742  1.00  0.00     0.013 C 
HETATM   19  C   UNL     1      19.858  -4.138  22.171  1.00  0.00     0.033 C 
HETATM   20  C   UNL     1      21.226  -3.463  22.379  1.00  0.00     0.126 C 
HETATM   21  C   UNL     1      22.229  -4.429  23.047  1.00  0.00    -0.017 C 
HETATM   22  C   UNL     1      21.827  -4.661  24.508  1.00  0.00     0.018 C 
HETATM   23  C   UNL     1      23.620  -3.707  23.123  1.00  0.00     0.018 C 
HETATM   24  C   UNL     1      20.733  -7.778  22.572  1.00  0.00     0.016 C 
HETATM   25  C   UNL     1      20.153  -5.504  18.674  1.00  0.00     0.017 C 
HETATM   26  C   UNL     1      21.912  -6.004  15.377  1.00  0.00     0.025 C 
HETATM   27  C   UNL     1      20.977  -6.491  14.207  1.00  0.00     0.029 C 
HETATM   28  C   UNL     1      24.023  -6.473  18.070  1.00  0.00     0.021 C 
HETATM   29  C   UNL     1      20.757  -3.551  15.823  1.00  0.00     0.016 C 
HETATM   30  C   UNL     1      22.790  -6.348  12.408  1.00  0.00     0.026 C 
ENDROOT
BRANCH   1  31
HETATM   31  C   UNL     1      20.543  -6.001  11.581  1.00  0.00     0.267 C 
HETATM   32  O   UNL     1      21.049  -5.812  10.464  1.00  0.00    -0.264 OA
BRANCH  31  33
HETATM   33  O   UNL     1      19.205  -6.069  11.794  1.00  0.00    -0.321 OA
BRANCH  33  34
HETATM   34  C   UNL     1      18.448  -5.650  10.637  1.00  0.00     0.178 C 
BRANCH  34  35
HETATM   35  C   UNL     1      18.534  -6.663   9.497  1.00  0.00     0.027 C 
BRANCH  35  36
HETATM   36  C   UNL     1      17.899  -6.139   8.216  1.00  0.00     0.002 C 
BRANCH  36  37
HETATM   37  C   UNL     1      18.085  -7.161   7.101  1.00  0.00     0.000 C 
BRANCH  37  38
HETATM   38  C   UNL     1      17.411  -6.706   5.815  1.00  0.00     0.000 C 
BRANCH  38  39
HETATM   39  C   UNL     1      17.595  -7.760   4.731  1.00  0.00     0.000 C 
BRANCH  39  40
HETATM   40  C   UNL     1      16.915  -7.327   3.441  1.00  0.00     0.000 C 
BRANCH  40  41
HETATM   41  C   UNL     1      17.077  -8.396   2.369  1.00  0.00     0.000 C 
BRANCH  41  42
HETATM   42  C   UNL     1      16.390  -7.965   1.082  1.00  0.00     0.000 C 
BRANCH  42  43
HETATM   43  C   UNL     1      16.559  -9.030   0.007  1.00  0.00     0.000 C 
BRANCH  43  44
HETATM   44  C   UNL     1      15.872  -8.604  -1.284  1.00  0.00     0.000 C 
BRANCH  44  45
HETATM   45  C   UNL     1      16.047  -9.675  -2.355  1.00  0.00     0.000 C 
BRANCH  45  46
HETATM   46  C   UNL     1      15.364  -9.256  -3.649  1.00  0.00     0.000 C 
BRANCH  46  47
HETATM   47  C   UNL     1      15.534 -10.322  -4.724  1.00  0.00     0.000 C 
BRANCH  47  48
HETATM   48  C   UNL     1      14.845  -9.895  -6.020  1.00  0.00     0.000 C 
BRANCH  48  49
HETATM   49  C   UNL     1      15.017 -10.964  -7.098  1.00  0.00    -0.000 C 
BRANCH  49  50
HETATM   50  C   UNL     1      14.327 -10.540  -8.392  1.00  0.00    -0.005 C 
HETATM   51  C   UNL     1      14.491 -11.596  -9.468  1.00  0.00     0.005 C 
ENDBRANCH  49  50
ENDBRANCH  48  49
ENDBRANCH  47  48
ENDBRANCH  46  47
ENDBRANCH  45  46
ENDBRANCH  44  45
ENDBRANCH  43  44
ENDBRANCH  42  43
ENDBRANCH  41  42
ENDBRANCH  40  41
ENDBRANCH  39  40
ENDBRANCH  38  39
ENDBRANCH  37  38
ENDBRANCH  36  37
ENDBRANCH  35  36
ENDBRANCH  34  35
ENDBRANCH  33  34
ENDBRANCH  31  33
ENDBRANCH   1  31
BRANCH  20  52
HETATM   52  O   UNL     1      21.101  -2.213  23.059  1.00  0.00    -0.395 OA
HETATM   53  H   UNL     1      20.611  -2.327  23.879  1.00  0.00     0.210 HD
ENDBRANCH  20  52
TORSDOF 20
