REMARK  19 active torsions:
REMARK  status: ('A' for Active; 'I' for Inactive)
REMARK    1  A    between atoms: C_2  and  C_3 
REMARK    2  A    between atoms: C_3  and  C_4 
REMARK    3  A    between atoms: C_4  and  C_5 
REMARK    4  A    between atoms: C_5  and  C_6 
REMARK    5  A    between atoms: C_6  and  C_7 
REMARK    6  A    between atoms: C_7  and  C_8 
REMARK    7  A    between atoms: C_8  and  C_9 
REMARK    8  A    between atoms: C_9  and  C_10 
REMARK    9  A    between atoms: C_10  and  C_11 
REMARK   10  A    between atoms: C_11  and  C_12 
REMARK   11  A    between atoms: C_12  and  C_13 
REMARK   12  A    between atoms: C_13  and  C_14 
REMARK   13  A    between atoms: C_14  and  C_15 
REMARK   14  A    between atoms: C_15  and  C_16 
REMARK   15  A    between atoms: C_16  and  C_17 
REMARK   16  A    between atoms: C_17  and  C_18 
REMARK       I    between atoms: C_18  and  N_20 
REMARK   17  A    between atoms: N_20  and  C_21 
REMARK   18  A    between atoms: C_21  and  C_24 
REMARK   19  A    between atoms: C_24  and  O_25 
ROOT
HETATM    1  C   UNL     1      14.628   7.234  -4.787  1.00  0.00     0.000 C 
ENDROOT
BRANCH   1   2
HETATM    2  C   UNL     1      13.107   7.220  -4.782  1.00  0.00     0.000 C 
BRANCH   2   3
HETATM    3  C   UNL     1      12.591   6.031  -3.986  1.00  0.00     0.000 C 
BRANCH   3   4
HETATM    4  C   UNL     1      11.071   6.021  -3.980  1.00  0.00     0.000 C 
BRANCH   4   5
HETATM    5  C   UNL     1      10.556   4.834  -3.182  1.00  0.00     0.000 C 
BRANCH   5   6
HETATM    6  C   UNL     1       9.036   4.825  -3.179  1.00  0.00     0.000 C 
BRANCH   6   7
HETATM    7  C   UNL     1       8.519   3.640  -2.379  1.00  0.00     0.000 C 
BRANCH   7   8
HETATM    8  C   UNL     1       6.998   3.630  -2.376  1.00  0.00     0.000 C 
BRANCH   8   9
HETATM    9  C   UNL     1       6.481   2.445  -1.575  1.00  0.00     0.000 C 
BRANCH   9  10
HETATM   10  C   UNL     1       4.959   2.431  -1.570  1.00  0.00     0.000 C 
BRANCH  10  11
HETATM   11  C   UNL     1       4.440   1.246  -0.768  1.00  0.00     0.000 C 
BRANCH  11  12
HETATM   12  C   UNL     1       2.915   1.231  -0.763  1.00  0.00    -0.000 C 
BRANCH  12  13
HETATM   13  C   UNL     1       2.385   0.048   0.037  1.00  0.00    -0.005 C 
HETATM   14  C   UNL     1       0.867   0.033   0.040  1.00  0.00     0.005 C 
ENDBRANCH  12  13
ENDBRANCH  11  12
ENDBRANCH  10  11
ENDBRANCH   9  10
ENDBRANCH   8   9
ENDBRANCH   7   8
ENDBRANCH   6   7
ENDBRANCH   5   6
ENDBRANCH   4   5
ENDBRANCH   3   4
ENDBRANCH   2   3
ENDBRANCH   1   2
BRANCH   1  15
HETATM   15  C   UNL     1      15.144   8.429  -5.576  1.00  0.00     0.000 C 
BRANCH  15  16
HETATM   16  C   UNL     1      16.666   8.454  -5.575  1.00  0.00     0.009 C 
BRANCH  16  17
HETATM   17  C   UNL     1      17.181   9.645  -6.364  1.00  0.00     0.103 C 
BRANCH  17  18
HETATM   18  C   UNL     1      18.684   9.592  -6.443  1.00  0.00     0.218 C 
HETATM   19  O   UNL     1      19.255   9.054  -7.385  1.00  0.00    -0.274 OA
HETATM   20  N   UNL     1      19.332  10.167  -5.374  1.00  0.00    -0.350 N 
HETATM   21  H   UNL     1      18.769  10.635  -4.669  1.00  0.00     0.163 HD
BRANCH  20  22
HETATM   22  C   UNL     1      20.800  10.252  -5.262  1.00  0.00     0.046 C 
HETATM   23  C   UNL     1      21.158  11.057  -3.999  1.00  0.00     0.040 C 
HETATM   24  C   UNL     1      21.372   8.828  -5.093  1.00  0.00     0.040 C 
BRANCH  22  25
HETATM   25  C   UNL     1      21.474  10.929  -6.497  1.00  0.00     0.194 C 
BRANCH  25  26
HETATM   26  O   UNL     1      21.159  12.319  -6.633  1.00  0.00    -0.398 OA
HETATM   27  H   UNL     1      20.224  12.374  -6.896  1.00  0.00     0.209 HD
ENDBRANCH  25  26
ENDBRANCH  22  25
ENDBRANCH  20  22
ENDBRANCH  17  18
ENDBRANCH  16  17
ENDBRANCH  15  16
ENDBRANCH   1  15
TORSDOF 19
