REMARK  5 active torsions:
REMARK  status: ('A' for Active; 'I' for Inactive)
REMARK    1  A    between atoms: C_1  and  C_2 
REMARK    2  A    between atoms: C_1  and  C_6 
REMARK    3  A    between atoms: C_2  and  C_3 
REMARK    4  A    between atoms: C_3  and  O_5 
REMARK    5  A    between atoms: C_6  and  O_8 
ROOT
HETATM    1  C   UNL     1       0.945  -0.060  -0.044  1.00  0.00     0.120 C 
ENDROOT
BRANCH   1   2
HETATM    2  C   UNL     1       0.363  -1.418  -0.424  1.00  0.00     0.120 C 
BRANCH   2   3
HETATM    3  C   UNL     1      -1.142  -1.363  -0.407  1.00  0.00     0.139 C 
HETATM    4  O   UNL     1      -1.799  -0.371  -0.129  1.00  0.00    -0.650 OA
BRANCH   3   5
HETATM    5  O   UNL     1      -1.715  -2.542  -0.736  1.00  0.00    -0.776 OA
HETATM    6  H   UNL     1      -1.079  -3.254  -0.936  1.00  0.00     0.167 HD
ENDBRANCH   3   5
ENDBRANCH   2   3
ENDBRANCH   1   2
BRANCH   1   7
HETATM    7  C   UNL     1       2.449  -0.079  -0.049  1.00  0.00     0.139 C 
HETATM    8  O   UNL     1       3.132  -1.053  -0.324  1.00  0.00    -0.650 OA
BRANCH   7   9
HETATM    9  O   UNL     1       2.983   1.116   0.287  1.00  0.00    -0.776 OA
HETATM   10  H   UNL     1       2.321   1.807   0.482  1.00  0.00     0.167 HD
ENDBRANCH   7   9
ENDBRANCH   1   7
TORSDOF 5
