REMARK  30 active torsions:
REMARK  status: ('A' for Active; 'I' for Inactive)
REMARK    1  A    between atoms: C_2  and  C_3 
REMARK    2  A    between atoms: C_3  and  C_4 
REMARK    3  A    between atoms: C_4  and  C_5 
REMARK    4  A    between atoms: C_5  and  C_6 
REMARK    5  A    between atoms: C_6  and  C_7 
REMARK    6  A    between atoms: C_7  and  C_8 
REMARK    7  A    between atoms: C_8  and  C_9 
REMARK    8  A    between atoms: C_9  and  C_10 
REMARK    9  A    between atoms: C_10  and  C_11 
REMARK   10  A    between atoms: C_11  and  C_12 
REMARK   11  A    between atoms: C_12  and  C_13 
REMARK   12  A    between atoms: C_13  and  C_14 
REMARK   13  A    between atoms: C_14  and  C_15 
REMARK   14  A    between atoms: C_15  and  C_16 
REMARK   15  A    between atoms: C_16  and  C_17 
REMARK   16  A    between atoms: C_17  and  C_18 
REMARK   17  A    between atoms: C_18  and  O_20 
REMARK   18  A    between atoms: O_20  and  C_21 
REMARK   19  A    between atoms: C_21  and  C_22 
REMARK   20  A    between atoms: C_22  and  O_31 
REMARK   21  A    between atoms: C_23  and  O_30 
REMARK   22  A    between atoms: C_24  and  O_29 
REMARK   23  A    between atoms: C_25  and  C_27 
REMARK   24  A    between atoms: C_27  and  O_28 
REMARK   25  A    between atoms: O_31  and  C_32 
REMARK   26  A    between atoms: C_33  and  O_42 
REMARK   27  A    between atoms: C_34  and  O_41 
REMARK   28  A    between atoms: C_35  and  O_40 
REMARK   29  A    between atoms: C_36  and  C_38 
REMARK   30  A    between atoms: C_38  and  O_39 
ROOT
HETATM    1  C   UNL     1      20.107   8.689  -1.780  1.00  0.00     0.218 C 
HETATM    2  C   UNL     1      19.569   7.639  -2.881  1.00  0.00     0.214 C 
HETATM    3  C   UNL     1      18.401   6.892  -2.186  1.00  0.00     0.183 C 
HETATM    4  C   UNL     1      18.633   7.218  -0.721  1.00  0.00     0.180 C 
HETATM    5  O   UNL     1      19.120   8.588  -0.730  1.00  0.00    -0.341 OA
ENDROOT
BRANCH   1   6
HETATM    6  C   UNL     1      20.237  10.139  -2.412  1.00  0.00     0.250 C 
BRANCH   6   7
HETATM    7  O   UNL     1      18.948  10.668  -2.793  1.00  0.00    -0.316 OA
BRANCH   7   8
HETATM    8  C   UNL     1      18.695  10.952  -4.103  1.00  0.00     0.258 C 
HETATM    9  O   UNL     1      19.519  11.082  -5.014  1.00  0.00    -0.265 OA
BRANCH   8  10
HETATM   10  C   UNL     1      17.188  10.966  -4.298  1.00  0.00     0.111 C 
BRANCH  10  11
HETATM   11  C   UNL     1      16.629   9.628  -3.822  1.00  0.00     0.010 C 
BRANCH  11  12
HETATM   12  C   UNL     1      15.118   9.549  -3.821  1.00  0.00     0.000 C 
BRANCH  12  13
HETATM   13  C   UNL     1      14.676   8.195  -3.258  1.00  0.00     0.000 C 
BRANCH  13  14
HETATM   14  C   UNL     1      13.161   8.106  -3.224  1.00  0.00     0.000 C 
BRANCH  14  15
HETATM   15  C   UNL     1      12.698   6.757  -2.693  1.00  0.00     0.000 C 
BRANCH  15  16
HETATM   16  C   UNL     1      11.176   6.723  -2.661  1.00  0.00     0.000 C 
BRANCH  16  17
HETATM   17  C   UNL     1      10.670   5.392  -2.130  1.00  0.00     0.000 C 
BRANCH  17  18
HETATM   18  C   UNL     1       9.147   5.381  -2.131  1.00  0.00     0.000 C 
BRANCH  18  19
HETATM   19  C   UNL     1       8.623   4.056  -1.600  1.00  0.00     0.000 C 
BRANCH  19  20
HETATM   20  C   UNL     1       7.101   4.051  -1.597  1.00  0.00     0.000 C 
BRANCH  20  21
HETATM   21  C   UNL     1       6.577   2.720  -1.079  1.00  0.00     0.000 C 
BRANCH  21  22
HETATM   22  C   UNL     1       5.054   2.708  -1.079  1.00  0.00     0.000 C 
BRANCH  22  23
HETATM   23  C   UNL     1       4.531   1.376  -0.555  1.00  0.00     0.000 C 
BRANCH  23  24
HETATM   24  C   UNL     1       3.007   1.362  -0.552  1.00  0.00    -0.000 C 
BRANCH  24  25
HETATM   25  C   UNL     1       2.474   0.033  -0.028  1.00  0.00    -0.005 C 
HETATM   26  C   UNL     1       0.954   0.019  -0.022  1.00  0.00     0.005 C 
ENDBRANCH  24  25
ENDBRANCH  23  24
ENDBRANCH  22  23
ENDBRANCH  21  22
ENDBRANCH  20  21
ENDBRANCH  19  20
ENDBRANCH  18  19
ENDBRANCH  17  18
ENDBRANCH  16  17
ENDBRANCH  15  16
ENDBRANCH  14  15
ENDBRANCH  13  14
ENDBRANCH  12  13
ENDBRANCH  11  12
ENDBRANCH  10  11
ENDBRANCH   8  10
ENDBRANCH   7   8
ENDBRANCH   6   7
ENDBRANCH   1   6
BRANCH   1  27
HETATM   27  O   UNL     1      21.329   8.243  -1.151  1.00  0.00    -0.318 OA
BRANCH  27  28
HETATM   28  C   UNL     1      21.986   9.190  -0.256  1.00  0.00     0.295 C 
HETATM   29  C   UNL     1      23.274   8.523   0.249  1.00  0.00     0.204 C 
HETATM   30  C   UNL     1      22.911   7.410   1.217  1.00  0.00     0.183 C 
HETATM   31  C   UNL     1      22.094   7.899   2.402  1.00  0.00     0.180 C 
HETATM   32  C   UNL     1      20.976   8.885   1.986  1.00  0.00     0.179 C 
HETATM   33  O   UNL     1      21.247   9.747   0.862  1.00  0.00    -0.348 OA
BRANCH  29  34
HETATM   34  O   UNL     1      24.155   9.478   0.838  1.00  0.00    -0.388 OA
HETATM   35  H   UNL     1      24.760   8.957   1.396  1.00  0.00     0.210 HD
ENDBRANCH  29  34
BRANCH  30  36
HETATM   36  O   UNL     1      24.098   6.759   1.697  1.00  0.00    -0.390 OA
HETATM   37  H   UNL     1      24.019   5.841   1.375  1.00  0.00     0.210 HD
ENDBRANCH  30  36
BRANCH  31  38
HETATM   38  O   UNL     1      22.996   8.416   3.391  1.00  0.00    -0.390 OA
HETATM   39  H   UNL     1      23.762   7.803   3.358  1.00  0.00     0.210 HD
ENDBRANCH  31  38
BRANCH  32  40
HETATM   40  C   UNL     1      20.551   9.707   3.218  1.00  0.00     0.198 C 
BRANCH  40  41
HETATM   41  O   UNL     1      19.405  10.504   2.935  1.00  0.00    -0.398 OA
HETATM   42  H   UNL     1      19.585  10.897   2.065  1.00  0.00     0.209 HD
ENDBRANCH  40  41
ENDBRANCH  32  40
ENDBRANCH  27  28
ENDBRANCH   1  27
BRANCH   2  43
HETATM   43  O   UNL     1      20.538   6.765  -3.479  1.00  0.00    -0.387 OA
HETATM   44  H   UNL     1      21.401   6.953  -3.061  1.00  0.00     0.210 HD
ENDBRANCH   2  43
BRANCH   3  45
HETATM   45  O   UNL     1      18.235   5.505  -2.493  1.00  0.00    -0.390 OA
HETATM   46  H   UNL     1      17.864   5.049  -1.723  1.00  0.00     0.210 HD
ENDBRANCH   3  45
BRANCH   4  47
HETATM   47  C   UNL     1      19.519   6.173   0.008  1.00  0.00     0.198 C 
BRANCH  47  48
HETATM   48  O   UNL     1      20.661   5.732  -0.720  1.00  0.00    -0.398 OA
HETATM   49  H   UNL     1      20.568   4.773  -0.857  1.00  0.00     0.209 HD
ENDBRANCH  47  48
ENDBRANCH   4  47
TORSDOF 30
