REMARK  13 active torsions:
REMARK  status: ('A' for Active; 'I' for Inactive)
REMARK    1  A    between atoms: C_1  and  C_2 
REMARK    2  A    between atoms: C_1  and  O_23 
REMARK    3  A    between atoms: C_3  and  O_22 
REMARK    4  A    between atoms: C_4  and  O_21 
REMARK    5  A    between atoms: C_5  and  O_20 
REMARK    6  A    between atoms: C_6  and  O_8 
REMARK    7  A    between atoms: O_8  and  C_9 
REMARK    8  A    between atoms: C_9  and  C_18 
REMARK    9  A    between atoms: C_10  and  O_17 
REMARK   10  A    between atoms: C_11  and  O_16 
REMARK   11  A    between atoms: C_12  and  C_14 
REMARK   12  A    between atoms: C_14  and  O_15 
REMARK   13  A    between atoms: C_18  and  O_19 
ROOT
HETATM    1  O   UNL     1       2.032   3.333  -2.339  1.00  0.00    -0.318 OA
ENDROOT
BRANCH   1   2
HETATM    2  C   UNL     1       2.111   2.044  -1.732  1.00  0.00     0.295 C 
HETATM    3  C   UNL     1       0.686   1.463  -1.911  1.00  0.00     0.204 C 
HETATM    4  C   UNL     1       0.530   0.131  -1.183  1.00  0.00     0.183 C 
HETATM    5  C   UNL     1       0.944   0.281   0.290  1.00  0.00     0.180 C 
HETATM    6  C   UNL     1       2.321   0.962   0.428  1.00  0.00     0.179 C 
HETATM    7  O   UNL     1       2.414   2.174  -0.348  1.00  0.00    -0.348 OA
BRANCH   3   8
HETATM    8  O   UNL     1      -0.286   2.385  -1.341  1.00  0.00    -0.388 OA
HETATM    9  H   UNL     1       0.100   3.276  -1.498  1.00  0.00     0.210 HD
ENDBRANCH   3   8
BRANCH   4  10
HETATM   10  O   UNL     1      -0.830  -0.316  -1.275  1.00  0.00    -0.390 OA
HETATM   11  H   UNL     1      -1.372   0.440  -0.971  1.00  0.00     0.210 HD
ENDBRANCH   4  10
BRANCH   5  12
HETATM   12  O   UNL     1      -0.032   1.072   0.997  1.00  0.00    -0.390 OA
HETATM   13  H   UNL     1      -0.219   1.857   0.440  1.00  0.00     0.210 HD
ENDBRANCH   5  12
BRANCH   6  14
HETATM   14  C   UNL     1       3.507   0.026   0.144  1.00  0.00     0.198 C 
BRANCH  14  15
HETATM   15  O   UNL     1       3.434  -0.560  -1.152  1.00  0.00    -0.398 OA
HETATM   16  H   UNL     1       3.259  -1.515  -1.036  1.00  0.00     0.209 HD
ENDBRANCH  14  15
ENDBRANCH   6  14
ENDBRANCH   1   2
BRANCH   1  17
HETATM   17  C   UNL     1       3.206   4.147  -2.447  1.00  0.00     0.217 C 
HETATM   18  C   UNL     1       4.385   3.507  -3.233  1.00  0.00     0.214 C 
HETATM   19  C   UNL     1       5.484   3.355  -2.183  1.00  0.00     0.183 C 
HETATM   20  C   UNL     1       5.135   4.382  -1.116  1.00  0.00     0.180 C 
HETATM   21  O   UNL     1       3.703   4.568  -1.162  1.00  0.00    -0.341 OA
BRANCH  18  22
HETATM   22  O   UNL     1       4.928   4.273  -4.323  1.00  0.00    -0.387 OA
HETATM   23  H   UNL     1       4.706   5.218  -4.189  1.00  0.00     0.210 HD
ENDBRANCH  18  22
BRANCH  19  24
HETATM   24  O   UNL     1       6.791   3.512  -2.728  1.00  0.00    -0.390 OA
HETATM   25  H   UNL     1       6.659   3.862  -3.639  1.00  0.00     0.210 HD
ENDBRANCH  19  24
BRANCH  20  26
HETATM   26  C   UNL     1       5.861   5.728  -1.260  1.00  0.00     0.198 C 
BRANCH  26  27
HETATM   27  O   UNL     1       5.335   6.697  -0.353  1.00  0.00    -0.398 OA
HETATM   28  H   UNL     1       4.944   6.220   0.401  1.00  0.00     0.209 HD
ENDBRANCH  26  27
ENDBRANCH  20  26
BRANCH  17  29
HETATM   29  C   UNL     1       2.647   5.423  -3.130  1.00  0.00     0.235 C 
BRANCH  29  30
HETATM   30  O   UNL     1       3.638   6.431  -3.335  1.00  0.00    -0.395 OA
HETATM   31  H   UNL     1       3.717   6.908  -2.486  1.00  0.00     0.209 HD
ENDBRANCH  29  30
ENDBRANCH  17  29
ENDBRANCH   1  17
TORSDOF 13
