REMARK  24 active torsions:
REMARK  status: ('A' for Active; 'I' for Inactive)
REMARK    1  A    between atoms: C_2  and  C_3 
REMARK    2  A    between atoms: C_3  and  C_4 
REMARK    3  A    between atoms: C_4  and  C_5 
REMARK    4  A    between atoms: C_5  and  C_6 
REMARK    5  A    between atoms: C_6  and  C_7 
REMARK    6  A    between atoms: C_7  and  C_8 
REMARK    7  A    between atoms: C_8  and  C_9 
REMARK    8  A    between atoms: C_9  and  C_10 
REMARK    9  A    between atoms: C_10  and  C_11 
REMARK   10  A    between atoms: C_11  and  C_12 
REMARK   11  A    between atoms: C_12  and  O_14 
REMARK   12  A    between atoms: O_14  and  C_15 
REMARK   13  A    between atoms: C_15  and  C_26 
REMARK   14  A    between atoms: C_16  and  O_25 
REMARK   15  A    between atoms: C_17  and  O_24 
REMARK   16  A    between atoms: C_18  and  O_23 
REMARK   17  A    between atoms: C_19  and  C_21 
REMARK   18  A    between atoms: C_21  and  O_22 
REMARK   19  A    between atoms: C_26  and  C_35 
REMARK   20  A    between atoms: C_27  and  O_34 
REMARK   21  A    between atoms: C_28  and  O_33 
REMARK   22  A    between atoms: C_29  and  C_31 
REMARK   23  A    between atoms: C_31  and  O_32 
REMARK   24  A    between atoms: C_35  and  O_36 
ROOT
HETATM    1  C   UNL     1      14.830  -5.613  -6.158  1.00  0.00     0.238 C 
HETATM    2  C   UNL     1      15.403  -5.600  -7.617  1.00  0.00     0.215 C 
HETATM    3  C   UNL     1      14.924  -6.858  -8.376  1.00  0.00     0.183 C 
HETATM    4  C   UNL     1      15.327  -8.149  -7.646  1.00  0.00     0.180 C 
HETATM    5  C   UNL     1      14.803  -8.077  -6.212  1.00  0.00     0.180 C 
HETATM    6  O   UNL     1      15.279  -6.877  -5.575  1.00  0.00    -0.340 OA
ENDROOT
BRANCH   1   7
HETATM    7  O   UNL     1      13.360  -5.602  -6.077  1.00  0.00    -0.277 OA
BRANCH   7   8
HETATM    8  C   UNL     1      12.585  -4.830  -6.882  1.00  0.00     0.261 C 
HETATM    9  O   UNL     1      13.000  -4.075  -7.745  1.00  0.00    -0.265 OA
BRANCH   8  10
HETATM   10  C   UNL     1      11.118  -4.988  -6.586  1.00  0.00     0.111 C 
BRANCH  10  11
HETATM   11  C   UNL     1      10.698  -4.227  -5.335  1.00  0.00     0.010 C 
BRANCH  11  12
HETATM   12  C   UNL     1       9.180  -4.220  -5.135  1.00  0.00     0.000 C 
BRANCH  12  13
HETATM   13  C   UNL     1       8.594  -5.628  -5.040  1.00  0.00     0.000 C 
BRANCH  13  14
HETATM   14  C   UNL     1       7.093  -5.593  -4.774  1.00  0.00     0.000 C 
BRANCH  14  15
HETATM   15  C   UNL     1       6.520  -7.010  -4.700  1.00  0.00     0.000 C 
BRANCH  15  16
HETATM   16  C   UNL     1       5.019  -6.962  -4.454  1.00  0.00     0.000 C 
BRANCH  16  17
HETATM   17  C   UNL     1       4.414  -8.360  -4.368  1.00  0.00     0.000 C 
BRANCH  17  18
HETATM   18  C   UNL     1       2.913  -8.268  -4.107  1.00  0.00    -0.000 C 
BRANCH  18  19
HETATM   19  C   UNL     1       2.272  -9.649  -4.014  1.00  0.00    -0.005 C 
HETATM   20  C   UNL     1       0.777  -9.540  -3.754  1.00  0.00     0.005 C 
ENDBRANCH  18  19
ENDBRANCH  17  18
ENDBRANCH  16  17
ENDBRANCH  15  16
ENDBRANCH  14  15
ENDBRANCH  13  14
ENDBRANCH  12  13
ENDBRANCH  11  12
ENDBRANCH  10  11
ENDBRANCH   8  10
ENDBRANCH   7   8
ENDBRANCH   1   7
BRANCH   1  21
HETATM   21  C   UNL     1      15.427  -4.464  -5.208  1.00  0.00     0.170 C 
HETATM   22  C   UNL     1      14.967  -3.038  -5.615  1.00  0.00     0.192 C 
HETATM   23  C   UNL     1      16.247  -2.217  -5.804  1.00  0.00     0.181 C 
HETATM   24  C   UNL     1      17.332  -3.045  -5.139  1.00  0.00     0.177 C 
HETATM   25  O   UNL     1      16.891  -4.415  -5.270  1.00  0.00    -0.359 OA
BRANCH  22  26
HETATM   26  O   UNL     1      14.129  -2.389  -4.658  1.00  0.00    -0.390 OA
HETATM   27  H   UNL     1      13.274  -2.853  -4.641  1.00  0.00     0.210 HD
ENDBRANCH  22  26
BRANCH  23  28
HETATM   28  O   UNL     1      16.111  -0.888  -5.304  1.00  0.00    -0.390 OA
HETATM   29  H   UNL     1      15.191  -0.830  -4.964  1.00  0.00     0.210 HD
ENDBRANCH  23  28
BRANCH  24  30
HETATM   30  C   UNL     1      17.638  -2.607  -3.700  1.00  0.00     0.198 C 
BRANCH  30  31
HETATM   31  O   UNL     1      18.180  -1.284  -3.663  1.00  0.00    -0.398 OA
HETATM   32  H   UNL     1      17.547  -0.714  -4.157  1.00  0.00     0.209 HD
ENDBRANCH  30  31
ENDBRANCH  24  30
BRANCH  21  33
HETATM   33  C   UNL     1      15.039  -4.787  -3.727  1.00  0.00     0.210 C 
BRANCH  33  34
HETATM   34  O   UNL     1      15.765  -5.901  -3.202  1.00  0.00    -0.398 OA
HETATM   35  H   UNL     1      15.165  -6.406  -2.627  1.00  0.00     0.209 HD
ENDBRANCH  33  34
ENDBRANCH  21  33
ENDBRANCH   1  21
BRANCH   2  36
HETATM   36  O   UNL     1      16.847  -5.607  -7.648  1.00  0.00    -0.387 OA
HETATM   37  H   UNL     1      17.177  -5.340  -6.763  1.00  0.00     0.210 HD
ENDBRANCH   2  36
BRANCH   3  38
HETATM   38  O   UNL     1      15.463  -6.865  -9.702  1.00  0.00    -0.390 OA
HETATM   39  H   UNL     1      16.434  -6.878  -9.579  1.00  0.00     0.210 HD
ENDBRANCH   3  38
BRANCH   5  40
HETATM   40  C   UNL     1      15.296  -9.276  -5.387  1.00  0.00     0.198 C 
BRANCH  40  41
HETATM   41  O   UNL     1      14.764  -9.199  -4.064  1.00  0.00    -0.398 OA
HETATM   42  H   UNL     1      15.245  -8.458  -3.650  1.00  0.00     0.209 HD
ENDBRANCH  40  41
ENDBRANCH   5  40
BRANCH   4  43
HETATM   43  O   UNL     1      16.757  -8.322  -7.651  1.00  0.00    -0.390 OA
HETATM   44  H   UNL     1      17.135  -7.618  -7.086  1.00  0.00     0.210 HD
ENDBRANCH   4  43
TORSDOF 24
