REMARK  22 active torsions:
REMARK  status: ('A' for Active; 'I' for Inactive)
REMARK    1  A    between atoms: C_2  and  C_3 
REMARK    2  A    between atoms: C_3  and  C_4 
REMARK    3  A    between atoms: C_4  and  C_5 
REMARK    4  A    between atoms: C_5  and  C_6 
REMARK    5  A    between atoms: C_6  and  C_7 
REMARK    6  A    between atoms: C_7  and  C_8 
REMARK    7  A    between atoms: C_8  and  C_9 
REMARK    8  A    between atoms: C_9  and  C_10 
REMARK    9  A    between atoms: C_10  and  C_11 
REMARK   10  A    between atoms: C_11  and  C_12 
REMARK   11  A    between atoms: C_12  and  C_13 
REMARK   12  A    between atoms: C_15  and  S_19 
REMARK   13  A    between atoms: S_19  and  O_22 
REMARK   14  A    between atoms: C_24  and  C_25 
REMARK   15  A    between atoms: C_24  and  N_27 
REMARK   16  A    between atoms: C_25  and  O_26 
REMARK   17  A    between atoms: N_27  and  C_28 
REMARK   18  A    between atoms: N_27  and  C_31 
REMARK   19  A    between atoms: C_28  and  C_29 
REMARK   20  A    between atoms: C_29  and  O_30 
REMARK   21  A    between atoms: C_31  and  C_32 
REMARK   22  A    between atoms: C_32  and  O_33 
ROOT
HETATM    1  N   UNL     2       1.738  -0.525  -1.216  1.00  0.00    -0.406 N 
ENDROOT
BRANCH   1   2
HETATM    2  C   UNL     2       0.338  -0.233  -1.089  1.00  0.00     0.143 C 
BRANCH   2   3
HETATM    3  C   UNL     2       0.169   1.266  -1.021  1.00  0.00     0.183 C 
BRANCH   3   4
HETATM    4  O   UNL     2      -1.199   1.434  -0.918  1.00  0.00    -0.399 OA
HETATM    5  H   UNL     2      -1.586   1.361  -1.807  1.00  0.00     0.209 HD
ENDBRANCH   3   4
ENDBRANCH   2   3
ENDBRANCH   1   2
BRANCH   1   6
HETATM    6  C   UNL     2       2.515  -0.109  -0.047  1.00  0.00     0.143 C 
BRANCH   6   7
HETATM    7  C   UNL     2       2.165  -0.558   1.392  1.00  0.00     0.183 C 
BRANCH   7   8
HETATM    8  O   UNL     2       2.320  -1.947   1.625  1.00  0.00    -0.399 OA
HETATM    9  H   UNL     2       2.128  -2.411   0.796  1.00  0.00     0.209 HD
ENDBRANCH   7   8
ENDBRANCH   6   7
ENDBRANCH   1   6
BRANCH   1  10
HETATM   10  C   UNL     2       1.984  -1.803  -1.865  1.00  0.00     0.143 C 
BRANCH  10  11
HETATM   11  C   UNL     2       1.827  -1.668  -3.400  1.00  0.00     0.183 C 
BRANCH  11  12
HETATM   12  O   UNL     2       2.170  -2.898  -4.032  1.00  0.00    -0.399 OA
HETATM   13  H   UNL     2       2.736  -2.680  -4.793  1.00  0.00     0.209 HD
ENDBRANCH  11  12
ENDBRANCH  10  11
ENDBRANCH   1  10
TORSDOF 22
