REMARK  11 active torsions:
REMARK  status: ('A' for Active; 'I' for Inactive)
REMARK    1  A    between atoms: C_2  and  C_3 
REMARK    2  A    between atoms: C_3  and  C_4 
REMARK    3  A    between atoms: C_4  and  C_5 
REMARK    4  A    between atoms: C_5  and  C_6 
REMARK    5  A    between atoms: C_6  and  C_7 
REMARK    6  A    between atoms: C_7  and  C_8 
REMARK    7  A    between atoms: C_8  and  C_9 
REMARK    8  A    between atoms: C_9  and  C_10 
REMARK    9  A    between atoms: C_10  and  C_11 
REMARK   10  A    between atoms: C_11  and  C_12 
REMARK   11  A    between atoms: C_12  and  C_13 
ROOT
HETATM    1  C   UNL     1       7.112   4.129  -1.346  1.00  0.00     0.000 C 
ENDROOT
BRANCH   1   2
HETATM    2  C   UNL     1       6.598   2.761  -0.928  1.00  0.00     0.000 C 
BRANCH   2   3
HETATM    3  C   UNL     1       5.078   2.751  -0.927  1.00  0.00     0.000 C 
BRANCH   3   4
HETATM    4  C   UNL     1       4.559   1.382  -0.507  1.00  0.00     0.000 C 
BRANCH   4   5
HETATM    5  C   UNL     1       3.039   1.372  -0.504  1.00  0.00    -0.000 C 
BRANCH   5   6
HETATM    6  C   UNL     1       2.508   0.007  -0.087  1.00  0.00    -0.005 C 
HETATM    7  C   UNL     1       0.992   0.003  -0.084  1.00  0.00     0.005 C 
ENDBRANCH   5   6
ENDBRANCH   4   5
ENDBRANCH   3   4
ENDBRANCH   2   3
ENDBRANCH   1   2
BRANCH   1   8
HETATM    8  C   UNL     1       8.631   4.139  -1.349  1.00  0.00     0.000 C 
BRANCH   8   9
HETATM    9  C   UNL     1       9.146   5.507  -1.765  1.00  0.00     0.000 C 
BRANCH   9  10
HETATM   10  C   UNL     1      10.666   5.519  -1.768  1.00  0.00     0.000 C 
BRANCH  10  11
HETATM   11  C   UNL     1      11.184   6.888  -2.184  1.00  0.00     0.000 C 
BRANCH  11  12
HETATM   12  C   UNL     1      12.706   6.898  -2.188  1.00  0.00    -0.000 C 
BRANCH  12  13
HETATM   13  C   UNL     1      13.237   8.265  -2.603  1.00  0.00    -0.005 C 
HETATM   14  C   UNL     1      14.752   8.271  -2.605  1.00  0.00     0.005 C 
ENDBRANCH  12  13
ENDBRANCH  11  12
ENDBRANCH  10  11
ENDBRANCH   9  10
ENDBRANCH   8   9
ENDBRANCH   1   8
TORSDOF 11
