REMARK  5 active torsions:
REMARK  status: ('A' for Active; 'I' for Inactive)
REMARK       I    between atoms: N_4  and  C_7 
REMARK    1  A    between atoms: C_7  and  C_9 
REMARK    2  A    between atoms: C_9  and  C_10 
REMARK    3  A    between atoms: C_10  and  C_11 
REMARK    4  A    between atoms: C_11  and  C_12 
REMARK    5  A    between atoms: C_12  and  C_13 
ROOT
HETATM    1  C   UNL     1       4.875  -2.383   2.919  1.00  0.00     0.005 C 
ENDROOT
BRANCH   1   2
HETATM    2  C   UNL     1       4.275  -1.058   2.439  1.00  0.00     0.010 C 
BRANCH   2   3
HETATM    3  C   UNL     1       3.050  -1.249   1.541  1.00  0.00     0.103 C 
BRANCH   3   4
HETATM    4  C   UNL     1       2.444   0.068   1.089  1.00  0.00     0.219 C 
HETATM    5  N   UNL     1       1.353  -0.014   0.232  1.00  0.00    -0.352 N 
HETATM    6  C   UNL     1       0.727   1.219  -0.238  1.00  0.00     0.125 C 
HETATM    7  C   UNL     1       0.670  -1.240  -0.176  1.00  0.00     0.125 C 
HETATM    8  C   UNL     1      -0.714   1.300   0.259  1.00  0.00     0.020 C 
HETATM    9  C   UNL     1      -1.502   0.049  -0.130  1.00  0.00     0.003 C 
HETATM   10  C   UNL     1      -0.779  -1.226   0.310  1.00  0.00     0.020 C 
HETATM   11  O   UNL     1       2.914   1.144   1.458  1.00  0.00    -0.273 OA
ENDBRANCH   3   4
ENDBRANCH   2   3
ENDBRANCH   1   2
BRANCH   1  12
HETATM   12  C   UNL     1       5.386  -3.260   1.772  1.00  0.00     0.038 C 
BRANCH  12  13
HETATM   13  C   UNL     1       5.961  -4.561   2.272  1.00  0.00    -0.055 A 
HETATM   14  C   UNL     1       5.126  -5.677   2.442  1.00  0.00     0.047 A 
HETATM   15  C   UNL     1       5.685  -6.835   2.936  1.00  0.00     0.105 A 
HETATM   16  C   UNL     1       7.020  -6.917   3.253  1.00  0.00     0.105 A 
HETATM   17  O   UNL     1       5.022  -7.998   3.174  1.00  0.00    -0.323 OA
HETATM   18  C   UNL     1       7.872  -5.847   3.088  1.00  0.00     0.040 A 
HETATM   19  O   UNL     1       7.364  -8.142   3.735  1.00  0.00    -0.323 OA
HETATM   20  C   UNL     1       7.332  -4.655   2.598  1.00  0.00     0.010 A 
HETATM   21  C   UNL     1       6.078  -8.795   3.748  1.00  0.00     0.352 A 
ENDBRANCH  12  13
ENDBRANCH   1  12
TORSDOF 5
