REMARK  5 active torsions:
REMARK  status: ('A' for Active; 'I' for Inactive)
REMARK    1  A    between atoms: CB_2  and  CA_3 
REMARK    2  A    between atoms: CB_2  and  OG1_8 
REMARK    3  A    between atoms: CA_3  and  C_4 
REMARK    4  A    between atoms: CA_3  and  N_7 
REMARK    5  A    between atoms: C_4  and  OXT_6 
ROOT
ATOM      1  CA  THR A   1       3.150   1.380  -0.536  1.00  0.00     0.342 C 
ENDROOT
BRANCH   1   2
ATOM      2  CB  THR A   1       2.680  -0.005  -0.045  1.00  0.00     0.157 C 
ATOM      3  CG2 THR A   1       3.090  -0.286   1.398  1.00  0.00     0.042 C 
BRANCH   2   4
ATOM      4  OG1 THR A   1       3.230  -1.017  -0.915  1.00  0.00    -0.393 OA
ATOM      5  HG1 THR A   1       3.272  -1.848  -0.403  1.00  0.00     0.210 HD
ENDBRANCH   2   4
ENDBRANCH   1   2
BRANCH   1   6
ATOM      6  C   THR A   1       4.686   1.430  -0.617  1.00  0.00     0.176 C 
ATOM      7  O   THR A   1       5.375   2.266  -0.043  1.00  0.00    -0.648 OA
BRANCH   6   8
ATOM      8  OXT THR A   1       5.212   0.492  -1.444  1.00  0.00    -0.775 OA
ATOM      9  HXT THR A   1       4.516  -0.170  -1.682  1.00  0.00     0.167 HD
ENDBRANCH   6   8
ENDBRANCH   1   6
BRANCH   1  10
ATOM     10  N   THR A   1       2.576   1.692  -1.869  1.00  0.00     0.095 N 
ATOM     11  H1  THR A   1       2.804   0.945  -2.525  1.00  0.00     0.314 HD
ATOM     12  H2  THR A   1       3.022   2.538  -2.228  1.00  0.00     0.314 HD
ENDBRANCH   1  10
TORSDOF 5
