REMARK  16 active torsions:
REMARK  status: ('A' for Active; 'I' for Inactive)
REMARK    1  A    between atoms: C_4  and  O_30 
REMARK    2  A    between atoms: C_9  and  C_13 
REMARK    3  A    between atoms: C_13  and  C_14 
REMARK    4  A    between atoms: C_14  and  C_15 
REMARK    5  A    between atoms: C_15  and  C_16 
REMARK    6  A    between atoms: C_16  and  C_18 
REMARK    7  A    between atoms: C_18  and  C_19 
REMARK    8  A    between atoms: C_19  and  C_20 
REMARK    9  A    between atoms: C_20  and  C_21 
REMARK   10  A    between atoms: C_21  and  C_23 
REMARK   11  A    between atoms: C_23  and  C_24 
REMARK   12  A    between atoms: C_24  and  C_25 
REMARK   13  A    between atoms: C_25  and  C_26 
REMARK   14  A    between atoms: O_30  and  P_31 
REMARK   15  A    between atoms: P_31  and  O_33 
REMARK   16  A    between atoms: P_31  and  O_34 
ROOT
HETATM    1  C   UNL     1       6.587  -3.251   1.993  1.00  0.00     0.052 C 
HETATM    2  C   UNL     1       6.536  -2.405   0.742  1.00  0.00    -0.019 C 
HETATM    3  C   UNL     1       7.512  -1.439   0.406  1.00  0.00    -0.019 C 
HETATM    4  C   UNL     1       7.360  -0.695  -0.787  1.00  0.00     0.094 C 
HETATM    5  C   UNL     1       6.226  -0.849  -1.616  1.00  0.00    -0.018 C 
HETATM    6  C   UNL     1       5.346  -1.913  -1.354  1.00  0.00    -0.015 C 
HETATM    7  C   UNL     1       5.458  -2.625  -0.147  1.00  0.00     0.083 C 
HETATM    8  O   UNL     1       4.519  -3.555   0.247  1.00  0.00    -0.339 OA
HETATM    9  C   UNL     1       3.288  -3.590  -0.506  1.00  0.00     0.064 C 
HETATM   10  C   UNL     1       3.613  -3.575  -2.003  1.00  0.00     0.043 C 
HETATM   11  C   UNL     1       4.285  -2.279  -2.363  1.00  0.00     0.045 C 
HETATM   12  C   UNL     1       2.386  -2.419  -0.072  1.00  0.00     0.046 C 
HETATM   13  C   UNL     1       5.870   0.059  -2.770  1.00  0.00     0.052 C 
HETATM   14  C   UNL     1       8.720  -1.140   1.260  1.00  0.00     0.052 C 
ENDROOT
BRANCH   9  15
HETATM   15  C   UNL     1       2.557  -4.905  -0.150  1.00  0.00     0.038 C 
BRANCH  15  16
HETATM   16  C   UNL     1       3.400  -6.134  -0.476  1.00  0.00     0.003 C 
BRANCH  16  17
HETATM   17  C   UNL     1       2.674  -7.436  -0.188  1.00  0.00     0.004 C 
BRANCH  17  18
HETATM   18  C   UNL     1       3.507  -8.642  -0.670  1.00  0.00    -0.019 C 
HETATM   19  C   UNL     1       4.829  -8.759   0.092  1.00  0.00     0.010 C 
BRANCH  18  20
HETATM   20  C   UNL     1       2.712  -9.946  -0.547  1.00  0.00     0.004 C 
BRANCH  20  21
HETATM   21  C   UNL     1       1.512  -9.954  -1.493  1.00  0.00     0.001 C 
BRANCH  21  22
HETATM   22  C   UNL     1       0.725 -11.247  -1.372  1.00  0.00     0.004 C 
BRANCH  22  23
HETATM   23  C   UNL     1      -0.581 -11.213  -2.190  1.00  0.00    -0.019 C 
HETATM   24  C   UNL     1      -0.303 -11.074  -3.692  1.00  0.00     0.010 C 
BRANCH  23  25
HETATM   25  C   UNL     1      -1.429 -12.470  -1.920  1.00  0.00     0.004 C 
BRANCH  25  26
HETATM   26  C   UNL     1      -1.909 -12.525  -0.468  1.00  0.00     0.001 C 
BRANCH  26  27
HETATM   27  C   UNL     1      -2.749 -13.762  -0.171  1.00  0.00     0.004 C 
BRANCH  27  28
HETATM   28  C   UNL     1      -3.129 -13.851   1.320  1.00  0.00    -0.023 C 
HETATM   29  C   UNL     1      -3.962 -12.653   1.782  1.00  0.00     0.009 C 
HETATM   30  C   UNL     1      -3.886 -15.151   1.585  1.00  0.00     0.009 C 
ENDBRANCH  27  28
ENDBRANCH  26  27
ENDBRANCH  25  26
ENDBRANCH  23  25
ENDBRANCH  22  23
ENDBRANCH  21  22
ENDBRANCH  20  21
ENDBRANCH  18  20
ENDBRANCH  17  18
ENDBRANCH  16  17
ENDBRANCH  15  16
ENDBRANCH   9  15
BRANCH   4  31
HETATM   31  O   UNL     1       8.427   0.137  -1.111  1.00  0.00    -0.254 OA
BRANCH  31  32
HETATM   32  P   UNL     1       8.684   0.422  -2.797  1.00  0.00     0.396 P 
HETATM   33  O   UNL     1       9.823   1.399  -2.514  1.00  0.00    -0.631 OA
BRANCH  32  34
HETATM   34  O   UNL     1       9.367  -1.049  -2.987  1.00  0.00    -0.307 OA
HETATM   35  H   UNL     1       8.713  -1.768  -3.037  1.00  0.00     0.222 HD
ENDBRANCH  32  34
BRANCH  32  36
HETATM   36  O   UNL     1       8.941   0.708  -4.484  1.00  0.00    -0.307 OA
HETATM   37  H   UNL     1       9.918   0.682  -4.548  1.00  0.00     0.222 HD
ENDBRANCH  32  36
ENDBRANCH  31  32
ENDBRANCH   4  31
TORSDOF 16
