REMARK  15 active torsions:
REMARK  status: ('A' for Active; 'I' for Inactive)
REMARK    1  A    between atoms: C_4  and  O_30 
REMARK    2  A    between atoms: C_9  and  C_13 
REMARK    3  A    between atoms: C_13  and  C_14 
REMARK    4  A    between atoms: C_14  and  C_15 
REMARK    5  A    between atoms: C_15  and  C_16 
REMARK    6  A    between atoms: C_16  and  C_18 
REMARK    7  A    between atoms: C_18  and  C_19 
REMARK    8  A    between atoms: C_19  and  C_20 
REMARK    9  A    between atoms: C_20  and  C_21 
REMARK   10  A    between atoms: C_21  and  C_23 
REMARK   11  A    between atoms: C_23  and  C_24 
REMARK   12  A    between atoms: C_24  and  C_25 
REMARK   13  A    between atoms: C_25  and  C_26 
REMARK   14  A    between atoms: O_30  and  C_31 
REMARK   15  A    between atoms: C_31  and  C_33 
ROOT
HETATM    1  C   UNL     1       6.476  -3.229   2.157  1.00  0.00     0.052 C 
HETATM    2  C   UNL     1       6.510  -2.364   0.916  1.00  0.00    -0.019 C 
HETATM    3  C   UNL     1       7.460  -1.344   0.691  1.00  0.00    -0.019 C 
HETATM    4  C   UNL     1       7.341  -0.557  -0.484  1.00  0.00     0.092 C 
HETATM    5  C   UNL     1       6.323  -0.759  -1.434  1.00  0.00    -0.018 C 
HETATM    6  C   UNL     1       5.447  -1.840  -1.246  1.00  0.00    -0.015 C 
HETATM    7  C   UNL     1       5.495  -2.581  -0.050  1.00  0.00     0.083 C 
HETATM    8  O   UNL     1       4.549  -3.532   0.266  1.00  0.00    -0.339 OA
HETATM    9  C   UNL     1       3.339  -3.509  -0.525  1.00  0.00     0.064 C 
HETATM   10  C   UNL     1       3.712  -3.445  -2.012  1.00  0.00     0.043 C 
HETATM   11  C   UNL     1       4.428  -2.154  -2.309  1.00  0.00     0.045 C 
HETATM   12  C   UNL     1       2.454  -2.334  -0.060  1.00  0.00     0.046 C 
HETATM   13  C   UNL     1       6.139   0.130  -2.637  1.00  0.00     0.052 C 
HETATM   14  C   UNL     1       8.583  -1.025   1.646  1.00  0.00     0.052 C 
ENDROOT
BRANCH   9  15
HETATM   15  C   UNL     1       2.568  -4.820  -0.246  1.00  0.00     0.038 C 
BRANCH  15  16
HETATM   16  C   UNL     1       3.394  -6.056  -0.591  1.00  0.00     0.003 C 
BRANCH  16  17
HETATM   17  C   UNL     1       2.625  -7.352  -0.395  1.00  0.00     0.004 C 
BRANCH  17  18
HETATM   18  C   UNL     1       3.453  -8.555  -0.894  1.00  0.00    -0.019 C 
HETATM   19  C   UNL     1       4.745  -8.729  -0.090  1.00  0.00     0.010 C 
BRANCH  18  20
HETATM   20  C   UNL     1       2.633  -9.850  -0.848  1.00  0.00     0.004 C 
BRANCH  20  21
HETATM   21  C   UNL     1       1.465  -9.805  -1.834  1.00  0.00     0.001 C 
BRANCH  21  22
HETATM   22  C   UNL     1       0.654 -11.090  -1.785  1.00  0.00     0.004 C 
BRANCH  22  23
HETATM   23  C   UNL     1      -0.619 -11.013  -2.651  1.00  0.00    -0.019 C 
HETATM   24  C   UNL     1      -0.283 -10.818  -4.132  1.00  0.00     0.010 C 
BRANCH  23  25
HETATM   25  C   UNL     1      -1.485 -12.274  -2.464  1.00  0.00     0.004 C 
BRANCH  25  26
HETATM   26  C   UNL     1      -2.010 -12.389  -1.031  1.00  0.00     0.001 C 
BRANCH  26  27
HETATM   27  C   UNL     1      -2.874 -13.627  -0.815  1.00  0.00     0.004 C 
BRANCH  27  28
HETATM   28  C   UNL     1      -3.314 -13.769   0.655  1.00  0.00    -0.023 C 
HETATM   29  C   UNL     1      -4.157 -12.582   1.127  1.00  0.00     0.009 C 
HETATM   30  C   UNL     1      -4.088 -15.071   0.843  1.00  0.00     0.009 C 
ENDBRANCH  27  28
ENDBRANCH  26  27
ENDBRANCH  25  26
ENDBRANCH  23  25
ENDBRANCH  22  23
ENDBRANCH  21  22
ENDBRANCH  20  21
ENDBRANCH  18  20
ENDBRANCH  17  18
ENDBRANCH  16  17
ENDBRANCH  15  16
ENDBRANCH   9  15
BRANCH   4  31
HETATM   31  O   UNL     1       8.168   0.594  -0.569  1.00  0.00    -0.274 OA
BRANCH  31  32
HETATM   32  C   UNL     1       8.898   0.845  -1.720  1.00  0.00     0.300 C 
HETATM   33  O   UNL     1       9.247   0.035  -2.563  1.00  0.00    -0.259 OA
BRANCH  32  34
HETATM   34  C   UNL     1       9.059   2.315  -1.860  1.00  0.00     0.055 A 
HETATM   35  C   UNL     1       9.574   2.818  -3.048  1.00  0.00     0.105 A 
HETATM   36  N   UNL     1       9.668   4.144  -3.328  1.00  0.00    -0.374 N 
HETATM   37  C   UNL     1       9.224   5.003  -2.384  1.00  0.00     0.087 A 
ATOM     38  HN  UNL     1      10.056   4.476  -4.211  1.00  0.00     0.164 HD
HETATM   39  C   UNL     1       8.698   4.601  -1.168  1.00  0.00     0.018 A 
HETATM   40  C   UNL     1       8.615   3.235  -0.903  1.00  0.00     0.020 A 
ENDBRANCH  32  34
ENDBRANCH  31  32
ENDBRANCH   4  31
TORSDOF 15
