REMARK  8 active torsions:
REMARK  status: ('A' for Active; 'I' for Inactive)
REMARK    1  A    between atoms: C_2  and  O_4 
REMARK    2  A    between atoms: O_4  and  C_5 
REMARK    3  A    between atoms: C_5  and  C_6 
REMARK    4  A    between atoms: C_6  and  C_7 
REMARK    5  A    between atoms: C_6  and  O_12 
REMARK    6  A    between atoms: C_7  and  O_8 
REMARK    7  A    between atoms: O_8  and  C_9 
REMARK    8  A    between atoms: O_12  and  C_13 
ROOT
HETATM    1  C   UNL     1       5.153   0.097  -2.663  1.00  0.00     0.180 C 
ENDROOT
BRANCH   1   2
HETATM    2  C   UNL     1       4.657   0.035  -1.211  1.00  0.00     0.213 C 
BRANCH   2   3
HETATM    3  O   UNL     1       5.189  -1.121  -0.538  1.00  0.00    -0.319 OA
BRANCH   3   4
HETATM    4  C   UNL     1       4.541  -2.294  -0.807  1.00  0.00     0.254 C 
HETATM    5  C   UNL     1       5.211  -3.429  -0.096  1.00  0.00     0.126 C 
HETATM    6  O   UNL     1       3.560  -2.405  -1.522  1.00  0.00    -0.266 OA
ENDBRANCH   3   4
ENDBRANCH   2   3
ENDBRANCH   1   2
BRANCH   1   7
HETATM    7  C   UNL     1       4.602   1.333  -3.381  1.00  0.00     0.213 C 
BRANCH   7   8
HETATM    8  O   UNL     1       3.166   1.332  -3.404  1.00  0.00    -0.319 OA
BRANCH   8   9
HETATM    9  C   UNL     1       2.619   0.545  -4.373  1.00  0.00     0.254 C 
HETATM   10  O   UNL     1       3.254  -0.113  -5.184  1.00  0.00    -0.266 OA
HETATM   11  C   UNL     1       1.125   0.587  -4.322  1.00  0.00     0.126 C 
ENDBRANCH   8   9
ENDBRANCH   7   8
ENDBRANCH   1   7
BRANCH   1  12
HETATM   12  O   UNL     1       6.600   0.159  -2.670  1.00  0.00    -0.312 OA
BRANCH  12  13
HETATM   13  C   UNL     1       7.231  -0.869  -3.303  1.00  0.00     0.255 C 
HETATM   14  O   UNL     1       6.684  -1.805  -3.868  1.00  0.00    -0.266 OA
HETATM   15  C   UNL     1       8.720  -0.715  -3.248  1.00  0.00     0.126 C 
ENDBRANCH  12  13
ENDBRANCH   1  12
TORSDOF 8
