REMARK  26 active torsions:
REMARK  status: ('A' for Active; 'I' for Inactive)
REMARK    1  A    between atoms: C_2  and  C_3 
REMARK    2  A    between atoms: C_3  and  C_4 
REMARK    3  A    between atoms: C_4  and  C_5 
REMARK    4  A    between atoms: C_5  and  C_6 
REMARK    5  A    between atoms: C_6  and  C_7 
REMARK    6  A    between atoms: C_7  and  C_8 
REMARK    7  A    between atoms: C_8  and  O_10 
REMARK    8  A    between atoms: O_10  and  C_11 
REMARK    9  A    between atoms: C_11  and  C_12 
REMARK   10  A    between atoms: C_12  and  C_13 
REMARK   11  A    between atoms: C_12  and  O_24 
REMARK   12  A    between atoms: C_13  and  O_14 
REMARK   13  A    between atoms: O_14  and  C_15 
REMARK   14  A    between atoms: C_15  and  C_17 
REMARK   15  A    between atoms: C_17  and  C_18 
REMARK   16  A    between atoms: C_18  and  C_19 
REMARK   17  A    between atoms: C_19  and  C_20 
REMARK   18  A    between atoms: C_20  and  C_21 
REMARK   19  A    between atoms: C_21  and  C_22 
REMARK   20  A    between atoms: O_24  and  C_25 
REMARK   21  A    between atoms: C_25  and  C_27 
REMARK   22  A    between atoms: C_27  and  C_28 
REMARK   23  A    between atoms: C_28  and  C_29 
REMARK   24  A    between atoms: C_29  and  C_30 
REMARK   25  A    between atoms: C_30  and  C_31 
REMARK   26  A    between atoms: C_31  and  C_32 
ROOT
HETATM    1  C   UNL     1      11.144  -0.243  -7.005  1.00  0.00     0.180 C 
ENDROOT
BRANCH   1   2
HETATM    2  C   UNL     1      10.606  -0.246  -5.565  1.00  0.00     0.213 C 
BRANCH   2   3
HETATM    3  O   UNL     1      11.123  -1.368  -4.814  1.00  0.00    -0.319 OA
BRANCH   3   4
HETATM    4  C   UNL     1      10.496  -2.548  -5.056  1.00  0.00     0.258 C 
HETATM    5  O   UNL     1       9.542  -2.692  -5.807  1.00  0.00    -0.265 OA
BRANCH   4   6
HETATM    6  C   UNL     1      11.105  -3.667  -4.242  1.00  0.00     0.111 C 
BRANCH   6   7
HETATM    7  C   UNL     1      11.013  -3.391  -2.747  1.00  0.00     0.010 C 
BRANCH   7   8
HETATM    8  C   UNL     1       9.569  -3.231  -2.272  1.00  0.00     0.000 C 
BRANCH   8   9
HETATM    9  C   UNL     1       9.527  -2.941  -0.775  1.00  0.00     0.000 C 
BRANCH   9  10
HETATM   10  C   UNL     1       8.088  -2.773  -0.297  1.00  0.00    -0.000 C 
BRANCH  10  11
HETATM   11  C   UNL     1       8.038  -2.484   1.199  1.00  0.00    -0.005 C 
HETATM   12  C   UNL     1       6.603  -2.319   1.666  1.00  0.00     0.005 C 
ENDBRANCH  10  11
ENDBRANCH   9  10
ENDBRANCH   8   9
ENDBRANCH   7   8
ENDBRANCH   6   7
ENDBRANCH   4   6
ENDBRANCH   3   4
ENDBRANCH   2   3
ENDBRANCH   1   2
BRANCH   1  13
HETATM   13  C   UNL     1      10.589   0.983  -7.756  1.00  0.00     0.213 C 
BRANCH  13  14
HETATM   14  O   UNL     1       9.145   0.972  -7.802  1.00  0.00    -0.319 OA
BRANCH  14  15
HETATM   15  C   UNL     1       8.647   0.156  -8.777  1.00  0.00     0.258 C 
HETATM   16  O   UNL     1       9.331  -0.483  -9.552  1.00  0.00    -0.265 OA
BRANCH  15  17
HETATM   17  C   UNL     1       7.136   0.143  -8.766  1.00  0.00     0.111 C 
BRANCH  17  18
HETATM   18  C   UNL     1       6.607  -1.207  -9.249  1.00  0.00     0.010 C 
BRANCH  18  19
HETATM   19  C   UNL     1       7.054  -2.357  -8.346  1.00  0.00     0.000 C 
BRANCH  19  20
HETATM   20  C   UNL     1       6.517  -3.686  -8.864  1.00  0.00     0.000 C 
BRANCH  20  21
HETATM   21  C   UNL     1       6.972  -4.833  -7.969  1.00  0.00    -0.000 C 
BRANCH  21  22
HETATM   22  C   UNL     1       6.436  -6.166  -8.480  1.00  0.00    -0.005 C 
HETATM   23  C   UNL     1       6.892  -7.304  -7.585  1.00  0.00     0.005 C 
ENDBRANCH  21  22
ENDBRANCH  20  21
ENDBRANCH  19  20
ENDBRANCH  18  19
ENDBRANCH  17  18
ENDBRANCH  15  17
ENDBRANCH  14  15
ENDBRANCH  13  14
ENDBRANCH   1  13
BRANCH   1  24
HETATM   24  O   UNL     1      12.592  -0.194  -6.933  1.00  0.00    -0.312 OA
BRANCH  24  25
HETATM   25  C   UNL     1      13.201  -1.414  -6.803  1.00  0.00     0.259 C 
HETATM   26  O   UNL     1      12.704  -2.490  -7.109  1.00  0.00    -0.265 OA
BRANCH  25  27
HETATM   27  C   UNL     1      14.554  -1.293  -6.142  1.00  0.00     0.111 C 
BRANCH  27  28
HETATM   28  C   UNL     1      15.651  -1.902  -7.004  1.00  0.00     0.010 C 
BRANCH  28  29
HETATM   29  C   UNL     1      15.772  -1.193  -8.350  1.00  0.00     0.000 C 
BRANCH  29  30
HETATM   30  C   UNL     1      16.869  -1.825  -9.197  1.00  0.00     0.000 C 
BRANCH  30  31
HETATM   31  C   UNL     1      16.980  -1.121 -10.545  1.00  0.00    -0.000 C 
BRANCH  31  32
HETATM   32  C   UNL     1      18.078  -1.744 -11.401  1.00  0.00    -0.005 C 
HETATM   33  C   UNL     1      18.181  -1.035 -12.739  1.00  0.00     0.005 C 
ENDBRANCH  31  32
ENDBRANCH  30  31
ENDBRANCH  29  30
ENDBRANCH  28  29
ENDBRANCH  27  28
ENDBRANCH  25  27
ENDBRANCH  24  25
ENDBRANCH   1  24
TORSDOF 26
