REMARK  30 active torsions:
REMARK  status: ('A' for Active; 'I' for Inactive)
REMARK    1  A    between atoms: C_2  and  C_3 
REMARK    2  A    between atoms: C_3  and  C_4 
REMARK    3  A    between atoms: C_4  and  C_5 
REMARK    4  A    between atoms: C_5  and  C_6 
REMARK    5  A    between atoms: C_6  and  C_7 
REMARK    6  A    between atoms: C_7  and  C_8 
REMARK    7  A    between atoms: C_8  and  O_9 
REMARK    8  A    between atoms: O_9  and  C_10 
REMARK    9  A    between atoms: C_10  and  C_12 
REMARK   10  A    between atoms: C_12  and  C_13 
REMARK   11  A    between atoms: C_13  and  C_14 
REMARK   12  A    between atoms: C_13  and  C_26 
REMARK   13  A    between atoms: C_13  and  O_37 
REMARK   14  A    between atoms: C_14  and  C_15 
REMARK   15  A    between atoms: C_15  and  O_17 
REMARK   16  A    between atoms: O_17  and  C_18 
REMARK   17  A    between atoms: C_18  and  C_19 
REMARK   18  A    between atoms: C_19  and  C_20 
REMARK   19  A    between atoms: C_20  and  C_21 
REMARK   20  A    between atoms: C_21  and  C_22 
REMARK   21  A    between atoms: C_22  and  C_23 
REMARK   22  A    between atoms: C_23  and  C_24 
REMARK   23  A    between atoms: C_26  and  O_28 
REMARK   24  A    between atoms: O_28  and  C_29 
REMARK   25  A    between atoms: C_29  and  C_30 
REMARK   26  A    between atoms: C_30  and  C_31 
REMARK   27  A    between atoms: C_31  and  C_32 
REMARK   28  A    between atoms: C_32  and  C_33 
REMARK   29  A    between atoms: C_33  and  C_34 
REMARK   30  A    between atoms: C_34  and  C_35 
ROOT
HETATM    1  C   UNL     1      12.500  -1.496  -7.137  1.00  0.00     0.162 C 
ENDROOT
BRANCH   1   2
HETATM    2  C   UNL     1      10.964  -1.596  -7.052  1.00  0.00     0.160 C 
BRANCH   2   3
HETATM    3  C   UNL     1      10.296  -0.655  -8.002  1.00  0.00     0.262 C 
HETATM    4  O   UNL     1      10.889   0.045  -8.809  1.00  0.00    -0.265 OA
BRANCH   3   5
HETATM    5  O   UNL     1       8.948  -0.655  -7.806  1.00  0.00    -0.321 OA
BRANCH   5   6
HETATM    6  C   UNL     1       8.306   0.551  -8.219  1.00  0.00     0.178 C 
BRANCH   6   7
HETATM    7  C   UNL     1       7.386   0.327  -9.404  1.00  0.00     0.027 C 
BRANCH   7   8
HETATM    8  C   UNL     1       6.724   1.652  -9.778  1.00  0.00     0.002 C 
BRANCH   8   9
HETATM    9  C   UNL     1       5.785   1.478 -10.962  1.00  0.00     0.000 C 
BRANCH   9  10
HETATM   10  C   UNL     1       5.124   2.801 -11.336  1.00  0.00     0.000 C 
BRANCH  10  11
HETATM   11  C   UNL     1       4.187   2.604 -12.523  1.00  0.00    -0.000 C 
BRANCH  11  12
HETATM   12  C   UNL     1       3.510   3.912 -12.919  1.00  0.00    -0.005 C 
HETATM   13  C   UNL     1       2.580   3.702 -14.102  1.00  0.00     0.005 C 
ENDBRANCH  11  12
ENDBRANCH  10  11
ENDBRANCH   9  10
ENDBRANCH   8   9
ENDBRANCH   7   8
ENDBRANCH   6   7
ENDBRANCH   5   6
ENDBRANCH   3   5
ENDBRANCH   2   3
ENDBRANCH   1   2
BRANCH   1  14
HETATM   14  C   UNL     1      13.122  -0.146  -6.801  1.00  0.00     0.160 C 
BRANCH  14  15
HETATM   15  C   UNL     1      12.812   0.251  -5.397  1.00  0.00     0.262 C 
HETATM   16  O   UNL     1      11.676   0.427  -4.988  1.00  0.00    -0.265 OA
BRANCH  15  17
HETATM   17  O   UNL     1      13.946   0.561  -4.718  1.00  0.00    -0.321 OA
BRANCH  17  18
HETATM   18  C   UNL     1      13.950   1.890  -4.181  1.00  0.00     0.178 C 
BRANCH  18  19
HETATM   19  C   UNL     1      13.964   1.894  -2.657  1.00  0.00     0.027 C 
BRANCH  19  20
HETATM   20  C   UNL     1      14.058   3.324  -2.114  1.00  0.00     0.002 C 
BRANCH  20  21
HETATM   21  C   UNL     1      14.060   3.341  -0.586  1.00  0.00     0.000 C 
BRANCH  21  22
HETATM   22  C   UNL     1      14.150   4.768  -0.044  1.00  0.00     0.000 C 
BRANCH  22  23
HETATM   23  C   UNL     1      14.146   4.772   1.484  1.00  0.00    -0.000 C 
BRANCH  23  24
HETATM   24  C   UNL     1      14.235   6.191   2.042  1.00  0.00    -0.005 C 
HETATM   25  C   UNL     1      14.227   6.181   3.562  1.00  0.00     0.005 C 
ENDBRANCH  23  24
ENDBRANCH  22  23
ENDBRANCH  21  22
ENDBRANCH  20  21
ENDBRANCH  19  20
ENDBRANCH  18  19
ENDBRANCH  17  18
ENDBRANCH  15  17
ENDBRANCH  14  15
ENDBRANCH   1  14
BRANCH   1  26
HETATM   26  C   UNL     1      13.154  -2.560  -6.248  1.00  0.00     0.294 C 
HETATM   27  O   UNL     1      14.235  -2.428  -5.683  1.00  0.00    -0.262 OA
BRANCH  26  28
HETATM   28  O   UNL     1      12.431  -3.715  -6.281  1.00  0.00    -0.319 OA
BRANCH  28  29
HETATM   29  C   UNL     1      13.151  -4.946  -6.111  1.00  0.00     0.178 C 
BRANCH  29  30
HETATM   30  C   UNL     1      12.704  -5.667  -4.844  1.00  0.00     0.027 C 
BRANCH  30  31
HETATM   31  C   UNL     1      13.428  -7.007  -4.687  1.00  0.00     0.002 C 
BRANCH  31  32
HETATM   32  C   UNL     1      13.007  -7.737  -3.411  1.00  0.00     0.000 C 
BRANCH  32  33
HETATM   33  C   UNL     1      13.747  -9.070  -3.272  1.00  0.00     0.000 C 
BRANCH  33  34
HETATM   34  C   UNL     1      13.332  -9.805  -1.998  1.00  0.00    -0.000 C 
BRANCH  34  35
HETATM   35  C   UNL     1      14.070 -11.136  -1.861  1.00  0.00    -0.005 C 
HETATM   36  C   UNL     1      13.654 -11.864  -0.593  1.00  0.00     0.005 C 
ENDBRANCH  34  35
ENDBRANCH  33  34
ENDBRANCH  32  33
ENDBRANCH  31  32
ENDBRANCH  30  31
ENDBRANCH  29  30
ENDBRANCH  28  29
ENDBRANCH  26  28
ENDBRANCH   1  26
BRANCH   1  37
HETATM   37  O   UNL     1      12.912  -1.815  -8.477  1.00  0.00    -0.379 OA
HETATM   38  H   UNL     1      12.561  -1.130  -9.084  1.00  0.00     0.211 HD
ENDBRANCH   1  37
TORSDOF 30
