REMARK  3 active torsions:
REMARK  status: ('A' for Active; 'I' for Inactive)
REMARK    1  A    between atoms: C_3  and  O_9 
REMARK    2  A    between atoms: C_4  and  O_8 
REMARK    3  A    between atoms: O_9  and  C_10 
ROOT
HETATM    1  C   UNL     1      -0.488   1.443   0.108  1.00  0.00     0.027 A 
HETATM    2  C   UNL     1       0.844   1.845   0.155  1.00  0.00     0.042 A 
HETATM    3  C   UNL     1       1.870   0.891   0.093  1.00  0.00     0.109 A 
HETATM    4  C   UNL     1       1.534  -0.467   0.118  1.00  0.00     0.101 A 
HETATM    5  C   UNL     1       0.204  -0.876   0.082  1.00  0.00     0.063 A 
HETATM    6  C   UNL     1      -0.803   0.086   0.055  1.00  0.00     0.036 A 
HETATM    7 CL   UNL     1      -2.451  -0.398  -0.037  1.00  0.00    -0.084 Cl
ENDROOT
BRANCH   3   8
HETATM    8  O   UNL     1       3.206   1.221   0.019  1.00  0.00    -0.306 OA
BRANCH   8   9
HETATM    9  C   UNL     1       3.563   2.353  -0.698  1.00  0.00     0.098 A 
HETATM   10  C   UNL     1       4.608   3.148  -0.206  1.00  0.00     0.069 A 
HETATM   11  C   UNL     1       4.979   4.319  -0.872  1.00  0.00     0.050 A 
HETATM   12 CL   UNL     1       5.455   2.724   1.237  1.00  0.00    -0.081 Cl
HETATM   13  C   UNL     1       4.305   4.695  -2.034  1.00  0.00     0.035 A 
HETATM   14  C   UNL     1       3.292   3.894  -2.553  1.00  0.00     0.026 A 
HETATM   15 CL   UNL     1       4.732   6.156  -2.836  1.00  0.00    -0.084 Cl
HETATM   16  C   UNL     1       2.943   2.708  -1.904  1.00  0.00     0.041 A 
ENDBRANCH   8   9
ENDBRANCH   3   8
BRANCH   4  17
HETATM   17  O   UNL     1       2.492  -1.440   0.187  1.00  0.00    -0.358 OA
HETATM   18  H   UNL     1       3.329  -1.001   0.426  1.00  0.00     0.217 HD
ENDBRANCH   4  17
TORSDOF 3
