REMARK  14 active torsions:
REMARK  status: ('A' for Active; 'I' for Inactive)
REMARK    1  A    between atoms: C_2  and  C_3 
REMARK    2  A    between atoms: C_3  and  C_4 
REMARK    3  A    between atoms: C_4  and  C_5 
REMARK    4  A    between atoms: C_5  and  C_6 
REMARK    5  A    between atoms: C_6  and  C_7 
REMARK    6  A    between atoms: C_7  and  C_8 
REMARK    7  A    between atoms: C_8  and  C_9 
REMARK    8  A    between atoms: C_9  and  C_10 
REMARK    9  A    between atoms: C_10  and  C_11 
REMARK   10  A    between atoms: C_11  and  C_12 
REMARK   11  A    between atoms: C_12  and  C_13 
REMARK   12  A    between atoms: C_13  and  O_14 
REMARK   13  A    between atoms: O_14  and  C_15 
REMARK   14  A    between atoms: C_15  and  C_17 
ROOT
HETATM    1  C   UNL     1      10.658   5.583  -1.782  1.00  0.00     0.000 C 
ENDROOT
BRANCH   1   2
HETATM    2  C   UNL     1       9.134   5.515  -1.789  1.00  0.00     0.000 C 
BRANCH   2   3
HETATM    3  C   UNL     1       8.630   4.148  -1.355  1.00  0.00     0.000 C 
BRANCH   3   4
HETATM    4  C   UNL     1       7.104   4.147  -1.336  1.00  0.00     0.000 C 
BRANCH   4   5
HETATM    5  C   UNL     1       6.573   2.795  -0.882  1.00  0.00     0.000 C 
BRANCH   5   6
HETATM    6  C   UNL     1       5.050   2.796  -0.873  1.00  0.00     0.000 C 
BRANCH   6   7
HETATM    7  C   UNL     1       4.521   1.440  -0.423  1.00  0.00     0.000 C 
BRANCH   7   8
HETATM    8  C   UNL     1       2.997   1.431  -0.415  1.00  0.00    -0.000 C 
BRANCH   8   9
HETATM    9  C   UNL     1       2.463   0.075   0.035  1.00  0.00    -0.005 C 
HETATM   10  C   UNL     1       0.945   0.063   0.041  1.00  0.00     0.005 C 
ENDBRANCH   8   9
ENDBRANCH   7   8
ENDBRANCH   6   7
ENDBRANCH   5   6
ENDBRANCH   4   5
ENDBRANCH   3   4
ENDBRANCH   2   3
ENDBRANCH   1   2
BRANCH   1  11
HETATM   11  C   UNL     1      11.177   6.954  -2.220  1.00  0.00     0.002 C 
BRANCH  11  12
HETATM   12  C   UNL     1      10.705   8.084  -1.298  1.00  0.00     0.027 C 
BRANCH  12  13
HETATM   13  C   UNL     1      11.261   9.441  -1.713  1.00  0.00     0.178 C 
BRANCH  13  14
HETATM   14  O   UNL     1      12.692   9.446  -1.671  1.00  0.00    -0.321 OA
BRANCH  14  15
HETATM   15  C   UNL     1      13.239   9.608  -0.432  1.00  0.00     0.266 C 
HETATM   16  O   UNL     1      12.594   9.776   0.594  1.00  0.00    -0.264 OA
BRANCH  15  17
HETATM   17  C   UNL     1      14.764   9.548  -0.501  1.00  0.00     0.037 C 
HETATM   18  C   UNL     1      15.273  10.695  -1.383  1.00  0.00     0.025 C 
HETATM   19  C   UNL     1      15.336   9.704   0.916  1.00  0.00     0.025 C 
HETATM   20  C   UNL     1      15.206   8.195  -1.074  1.00  0.00     0.025 C 
ENDBRANCH  15  17
ENDBRANCH  14  15
ENDBRANCH  13  14
ENDBRANCH  12  13
ENDBRANCH  11  12
ENDBRANCH   1  11
TORSDOF 14
