REMARK  13 active torsions:
REMARK  status: ('A' for Active; 'I' for Inactive)
REMARK    1  A    between atoms: C_2  and  C_3 
REMARK    2  A    between atoms: C_3  and  C_4 
REMARK    3  A    between atoms: C_4  and  C_5 
REMARK    4  A    between atoms: C_5  and  C_6 
REMARK    5  A    between atoms: C_6  and  C_7 
REMARK    6  A    between atoms: C_7  and  C_8 
REMARK    7  A    between atoms: C_8  and  SI_9 
REMARK    8  A    between atoms: SI_9  and  O_10 
REMARK    9  A    between atoms: SI_9  and  O_13 
REMARK   10  A    between atoms: SI_9  and  O_16 
REMARK   11  A    between atoms: O_10  and  C_11 
REMARK   12  A    between atoms: O_13  and  C_14 
REMARK   13  A    between atoms: O_16  and  C_17 
ROOT
HETATM    1 SI   UNL     1       9.152  -1.798   5.779  1.00  0.00     0.000 Si
ENDROOT
BRANCH   1   2
HETATM    2  C   UNL     1       8.584  -1.259   4.041  1.00  0.00     0.000 C 
BRANCH   2   3
HETATM    3  C   UNL     1       7.079  -1.065   3.852  1.00  0.00     0.000 C 
BRANCH   3   4
HETATM    4  C   UNL     1       6.689  -0.757   2.408  1.00  0.00     0.000 C 
BRANCH   4   5
HETATM    5  C   UNL     1       6.969  -1.883   1.411  1.00  0.00     0.000 C 
BRANCH   5   6
HETATM    6  C   UNL     1       6.356  -3.237   1.781  1.00  0.00     0.000 C 
BRANCH   6   7
HETATM    7  C   UNL     1       4.832  -3.181   1.888  1.00  0.00    -0.000 C 
BRANCH   7   8
HETATM    8  C   UNL     1       4.242  -4.531   2.287  1.00  0.00    -0.005 C 
HETATM    9  C   UNL     1       2.724  -4.460   2.339  1.00  0.00     0.005 C 
ENDBRANCH   7   8
ENDBRANCH   6   7
ENDBRANCH   5   6
ENDBRANCH   4   5
ENDBRANCH   3   4
ENDBRANCH   2   3
ENDBRANCH   1   2
BRANCH   1  10
HETATM   10  O   UNL     1      10.817  -1.967   5.786  1.00  0.00    -0.241 OA
BRANCH  10  11
HETATM   11  C   UNL     1      11.621  -0.841   5.453  1.00  0.00     0.205 C 
HETATM   12  C   UNL     1      13.082  -1.253   5.502  1.00  0.00     0.036 C 
ENDBRANCH  10  11
ENDBRANCH   1  10
BRANCH   1  13
HETATM   13  O   UNL     1       8.730  -0.678   6.943  1.00  0.00    -0.241 OA
BRANCH  13  14
HETATM   14  C   UNL     1       7.359  -0.488   7.270  1.00  0.00     0.205 C 
HETATM   15  C   UNL     1       7.245   0.554   8.368  1.00  0.00     0.036 C 
ENDBRANCH  13  14
ENDBRANCH   1  13
BRANCH   1  16
HETATM   16  O   UNL     1       8.484  -3.282   6.166  1.00  0.00    -0.241 OA
BRANCH  16  17
HETATM   17  C   UNL     1       8.863  -4.416   5.390  1.00  0.00     0.205 C 
HETATM   18  C   UNL     1       8.164  -5.646   5.943  1.00  0.00     0.036 C 
ENDBRANCH  16  17
ENDBRANCH   1  16
TORSDOF 13
