REMARK  12 active torsions:
REMARK  status: ('A' for Active; 'I' for Inactive)
REMARK    1  A    between atoms: C_2  and  O_3 
REMARK    2  A    between atoms: O_3  and  C_4 
REMARK    3  A    between atoms: C_4  and  C_6 
REMARK    4  A    between atoms: C_6  and  C_7 
REMARK    5  A    between atoms: C_7  and  C_8 
REMARK    6  A    between atoms: C_7  and  C_14 
REMARK    7  A    between atoms: C_7  and  O_19 
REMARK    8  A    between atoms: C_8  and  C_9 
REMARK    9  A    between atoms: C_9  and  O_11 
REMARK   10  A    between atoms: O_11  and  C_12 
REMARK   11  A    between atoms: C_14  and  O_16 
REMARK   12  A    between atoms: O_16  and  C_17 
ROOT
HETATM    1  C   UNL     1       6.408   1.467  -2.582  1.00  0.00     0.162 C 
ENDROOT
BRANCH   1   2
HETATM    2  C   UNL     1       4.875   1.318  -2.537  1.00  0.00     0.160 C 
BRANCH   2   3
HETATM    3  C   UNL     1       4.151   2.633  -2.609  1.00  0.00     0.262 C 
HETATM    4  O   UNL     1       4.701   3.718  -2.717  1.00  0.00    -0.265 OA
BRANCH   3   5
HETATM    5  O   UNL     1       2.818   2.432  -2.465  1.00  0.00    -0.322 OA
BRANCH   5   6
HETATM    6  C   UNL     1       2.090   3.574  -1.993  1.00  0.00     0.174 C 
HETATM    7  C   UNL     1       2.144   3.539  -0.478  1.00  0.00     0.034 C 
ENDBRANCH   5   6
ENDBRANCH   3   5
ENDBRANCH   2   3
ENDBRANCH   1   2
BRANCH   1   8
HETATM    8  C   UNL     1       7.060   2.267  -1.437  1.00  0.00     0.160 C 
BRANCH   8   9
HETATM    9  C   UNL     1       6.772   1.675  -0.097  1.00  0.00     0.262 C 
HETATM   10  O   UNL     1       6.090   0.674   0.100  1.00  0.00    -0.265 OA
BRANCH   9  11
HETATM   11  O   UNL     1       7.235   2.499   0.899  1.00  0.00    -0.322 OA
BRANCH  11  12
HETATM   12  C   UNL     1       6.517   2.395   2.129  1.00  0.00     0.174 C 
HETATM   13  C   UNL     1       5.339   3.350   2.043  1.00  0.00     0.034 C 
ENDBRANCH  11  12
ENDBRANCH   9  11
ENDBRANCH   8   9
ENDBRANCH   1   8
BRANCH   1  14
HETATM   14  C   UNL     1       7.076   0.076  -2.662  1.00  0.00     0.294 C 
HETATM   15  O   UNL     1       8.205  -0.177  -2.251  1.00  0.00    -0.262 OA
BRANCH  14  16
HETATM   16  O   UNL     1       6.310  -0.780  -3.398  1.00  0.00    -0.319 OA
BRANCH  16  17
HETATM   17  C   UNL     1       7.024  -1.796  -4.109  1.00  0.00     0.174 C 
HETATM   18  C   UNL     1       7.496  -1.188  -5.419  1.00  0.00     0.034 C 
ENDBRANCH  16  17
ENDBRANCH  14  16
ENDBRANCH   1  14
BRANCH   1  19
HETATM   19  O   UNL     1       6.756   2.120  -3.830  1.00  0.00    -0.379 OA
HETATM   20  H   UNL     1       6.411   3.035  -3.787  1.00  0.00     0.211 HD
ENDBRANCH   1  19
TORSDOF 12
