REMARK WARNING: 32 MAX_TORS EXCEEDED!!!
REMARK  59 active torsions:
REMARK  status: ('A' for Active; 'I' for Inactive)
REMARK    1  A    between atoms: C_2  and  C_3 
REMARK    2  A    between atoms: C_3  and  C_4 
REMARK    3  A    between atoms: C_4  and  C_5 
REMARK    4  A    between atoms: C_5  and  C_6 
REMARK    5  A    between atoms: C_6  and  C_7 
REMARK    6  A    between atoms: C_7  and  C_8 
REMARK    7  A    between atoms: C_7  and  O_66 
REMARK    8  A    between atoms: C_8  and  C_9 
REMARK    9  A    between atoms: C_9  and  C_10 
REMARK   10  A    between atoms: C_10  and  C_11 
REMARK   11  A    between atoms: C_11  and  C_12 
REMARK   12  A    between atoms: C_12  and  C_13 
REMARK   13  A    between atoms: C_13  and  C_14 
REMARK   14  A    between atoms: C_14  and  C_15 
REMARK   15  A    between atoms: C_15  and  C_16 
REMARK   16  A    between atoms: C_16  and  C_17 
REMARK   17  A    between atoms: C_17  and  C_18 
REMARK   18  A    between atoms: C_18  and  O_20 
REMARK   19  A    between atoms: O_20  and  C_21 
REMARK   20  A    between atoms: C_21  and  C_22 
REMARK   21  A    between atoms: C_22  and  C_23 
REMARK   22  A    between atoms: C_22  and  O_45 
REMARK   23  A    between atoms: C_23  and  O_24 
REMARK   24  A    between atoms: O_24  and  C_25 
REMARK   25  A    between atoms: C_25  and  C_27 
REMARK   26  A    between atoms: C_27  and  C_28 
REMARK   27  A    between atoms: C_28  and  C_29 
REMARK   28  A    between atoms: C_29  and  C_30 
REMARK   29  A    between atoms: C_30  and  C_31 
REMARK   30  A    between atoms: C_31  and  C_32 
REMARK   31  A    between atoms: C_32  and  C_33 
REMARK   32  A    between atoms: C_33  and  C_34 
REMARK   33  A    between atoms: C_34  and  C_35 
REMARK   34  A    between atoms: C_35  and  C_36 
REMARK   35  A    between atoms: C_36  and  C_37 
REMARK   36  A    between atoms: C_37  and  C_38 
REMARK   37  A    between atoms: C_37  and  O_44 
REMARK   38  A    between atoms: C_38  and  C_39 
REMARK   39  A    between atoms: C_39  and  C_40 
REMARK   40  A    between atoms: C_40  and  C_41 
REMARK   41  A    between atoms: C_41  and  C_42 
REMARK   42  A    between atoms: O_45  and  C_46 
REMARK   43  A    between atoms: C_46  and  C_48 
REMARK   44  A    between atoms: C_48  and  C_49 
REMARK   45  A    between atoms: C_49  and  C_50 
REMARK   46  A    between atoms: C_50  and  C_51 
REMARK   47  A    between atoms: C_51  and  C_52 
REMARK   48  A    between atoms: C_52  and  C_53 
REMARK   49  A    between atoms: C_53  and  C_54 
REMARK   50  A    between atoms: C_54  and  C_55 
REMARK   51  A    between atoms: C_55  and  C_56 
REMARK   52  A    between atoms: C_56  and  C_57 
REMARK   53  A    between atoms: C_57  and  C_58 
REMARK   54  A    between atoms: C_58  and  C_59 
REMARK   55  A    between atoms: C_58  and  O_65 
REMARK   56  A    between atoms: C_59  and  C_60 
REMARK   57  A    between atoms: C_60  and  C_61 
REMARK   58  A    between atoms: C_61  and  C_62 
REMARK   59  A    between atoms: C_62  and  C_63 
ROOT
HETATM    1  C   UNL     1      -7.057  -6.952 -10.837  1.00  0.00     0.180 C 
ENDROOT
BRANCH   1   2
HETATM    2  C   UNL     1      -5.531  -7.035 -10.810  1.00  0.00     0.213 C 
BRANCH   2   3
HETATM    3  O   UNL     1      -5.099  -8.367 -11.146  1.00  0.00    -0.319 OA
BRANCH   3   4
HETATM    4  C   UNL     1      -5.123  -9.298 -10.151  1.00  0.00     0.258 C 
HETATM    5  O   UNL     1      -5.417  -9.101  -8.976  1.00  0.00    -0.265 OA
BRANCH   4   6
HETATM    6  C   UNL     1      -4.707 -10.638 -10.690  1.00  0.00     0.111 C 
BRANCH   6   7
HETATM    7  C   UNL     1      -3.277 -10.604 -11.203  1.00  0.00     0.010 C 
BRANCH   7   8
HETATM    8  C   UNL     1      -2.289 -10.191 -10.112  1.00  0.00     0.000 C 
BRANCH   8   9
HETATM    9  C   UNL     1      -0.882 -10.143 -10.685  1.00  0.00     0.000 C 
BRANCH   9  10
HETATM   10  C   UNL     1       0.130  -9.714  -9.634  1.00  0.00     0.000 C 
BRANCH  10  11
HETATM   11  C   UNL     1       1.521  -9.668 -10.256  1.00  0.00     0.000 C 
BRANCH  11  12
HETATM   12  C   UNL     1       2.549  -9.258  -9.215  1.00  0.00     0.000 C 
BRANCH  12  13
HETATM   13  C   UNL     1       3.957  -9.240  -9.803  1.00  0.00     0.000 C 
BRANCH  13  14
HETATM   14  C   UNL     1       5.007  -8.800  -8.784  1.00  0.00     0.002 C 
BRANCH  14  15
HETATM   15  C   UNL     1       5.051  -9.685  -7.542  1.00  0.00     0.032 C 
BRANCH  15  16
HETATM   16  C   UNL     1       6.054  -9.187  -6.493  1.00  0.00     0.118 C 
BRANCH  16  17
HETATM   17  C   UNL     1       6.143 -10.109  -5.269  1.00  0.00     0.032 C 
BRANCH  17  18
HETATM   18  C   UNL     1       6.528 -11.517  -5.682  1.00  0.00     0.002 C 
BRANCH  18  19
HETATM   19  C   UNL     1       6.736 -12.462  -4.510  1.00  0.00     0.000 C 
BRANCH  19  20
HETATM   20  C   UNL     1       7.170 -13.805  -5.087  1.00  0.00    -0.000 C 
BRANCH  20  21
HETATM   21  C   UNL     1       7.355 -14.842  -3.995  1.00  0.00    -0.005 C 
HETATM   22  C   UNL     1       7.782 -16.167  -4.599  1.00  0.00     0.005 C 
ENDBRANCH  20  21
ENDBRANCH  19  20
ENDBRANCH  18  19
ENDBRANCH  17  18
ENDBRANCH  16  17
BRANCH  16  23
HETATM   23  O   UNL     1       5.668  -7.892  -6.036  1.00  0.00    -0.396 OA
HETATM   24  H   UNL     1       4.799  -7.981  -5.607  1.00  0.00     0.210 HD
ENDBRANCH  16  23
ENDBRANCH  15  16
ENDBRANCH  14  15
ENDBRANCH  13  14
ENDBRANCH  12  13
ENDBRANCH  11  12
ENDBRANCH  10  11
ENDBRANCH   9  10
ENDBRANCH   8   9
ENDBRANCH   7   8
ENDBRANCH   6   7
ENDBRANCH   4   6
ENDBRANCH   3   4
ENDBRANCH   2   3
ENDBRANCH   1   2
BRANCH   1  25
HETATM   25  C   UNL     1      -7.500  -5.530 -10.496  1.00  0.00     0.213 C 
BRANCH  25  26
HETATM   26  O   UNL     1      -8.934  -5.475 -10.440  1.00  0.00    -0.319 OA
BRANCH  26  27
HETATM   27  C   UNL     1      -9.525  -5.877  -9.279  1.00  0.00     0.258 C 
HETATM   28  O   UNL     1      -8.955  -6.233  -8.257  1.00  0.00    -0.265 OA
BRANCH  27  29
HETATM   29  C   UNL     1     -11.021  -5.795  -9.412  1.00  0.00     0.111 C 
BRANCH  29  30
HETATM   30  C   UNL     1     -11.501  -6.614 -10.599  1.00  0.00     0.010 C 
BRANCH  30  31
HETATM   31  C   UNL     1     -13.018  -6.560 -10.737  1.00  0.00     0.000 C 
BRANCH  31  32
HETATM   32  C   UNL     1     -13.439  -7.381 -11.948  1.00  0.00     0.000 C 
BRANCH  32  33
HETATM   33  C   UNL     1     -14.945  -7.357 -12.145  1.00  0.00     0.000 C 
BRANCH  33  34
HETATM   34  C   UNL     1     -15.311  -8.192 -13.368  1.00  0.00     0.000 C 
BRANCH  34  35
HETATM   35  C   UNL     1     -16.813  -8.179 -13.586  1.00  0.00     0.000 C 
BRANCH  35  36
HETATM   36  C   UNL     1     -17.210  -9.003 -14.807  1.00  0.00     0.000 C 
BRANCH  36  37
HETATM   37  C   UNL     1     -18.721  -8.916 -14.984  1.00  0.00     0.002 C 
BRANCH  37  38
HETATM   38  C   UNL     1     -19.221  -9.748 -16.155  1.00  0.00     0.032 C 
BRANCH  38  39
HETATM   39  C   UNL     1     -20.749  -9.762 -16.258  1.00  0.00     0.118 C 
BRANCH  39  40
HETATM   40  C   UNL     1     -21.374  -8.373 -16.410  1.00  0.00     0.032 C 
BRANCH  40  41
HETATM   41  C   UNL     1     -22.904  -8.461 -16.483  1.00  0.00     0.002 C 
BRANCH  41  42
HETATM   42  C   UNL     1     -23.576  -7.123 -16.771  1.00  0.00     0.000 C 
BRANCH  42  43
HETATM   43  C   UNL     1     -23.090  -6.505 -18.079  1.00  0.00    -0.000 C 
BRANCH  43  44
HETATM   44  C   UNL     1     -23.793  -5.186 -18.356  1.00  0.00    -0.005 C 
HETATM   45  C   UNL     1     -23.262  -4.569 -19.638  1.00  0.00     0.005 C 
ENDBRANCH  43  44
ENDBRANCH  42  43
ENDBRANCH  41  42
ENDBRANCH  40  41
ENDBRANCH  39  40
BRANCH  39  46
HETATM   46  O   UNL     1     -21.097 -10.553 -17.397  1.00  0.00    -0.396 OA
HETATM   47  H   UNL     1     -20.822 -10.061 -18.191  1.00  0.00     0.210 HD
ENDBRANCH  39  46
ENDBRANCH  38  39
ENDBRANCH  37  38
ENDBRANCH  36  37
ENDBRANCH  35  36
ENDBRANCH  34  35
ENDBRANCH  33  34
ENDBRANCH  32  33
ENDBRANCH  31  32
ENDBRANCH  30  31
ENDBRANCH  29  30
ENDBRANCH  27  29
ENDBRANCH  26  27
ENDBRANCH  25  26
ENDBRANCH   1  25
BRANCH   1  48
HETATM   48  O   UNL     1      -7.468  -7.266 -12.186  1.00  0.00    -0.312 OA
BRANCH  48  49
HETATM   49  C   UNL     1      -7.724  -8.586 -12.427  1.00  0.00     0.259 C 
HETATM   50  O   UNL     1      -8.161  -9.416 -11.637  1.00  0.00    -0.265 OA
BRANCH  49  51
HETATM   51  C   UNL     1      -7.481  -8.892 -13.885  1.00  0.00     0.111 C 
BRANCH  51  52
HETATM   52  C   UNL     1      -8.705  -9.607 -14.433  1.00  0.00     0.010 C 
BRANCH  52  53
HETATM   53  C   UNL     1      -8.584  -9.924 -15.916  1.00  0.00     0.000 C 
BRANCH  53  54
HETATM   54  C   UNL     1      -9.860 -10.621 -16.374  1.00  0.00     0.000 C 
BRANCH  54  55
HETATM   55  C   UNL     1      -9.820 -10.973 -17.851  1.00  0.00     0.000 C 
BRANCH  55  56
HETATM   56  C   UNL     1     -11.121 -11.668 -18.251  1.00  0.00     0.000 C 
BRANCH  56  57
HETATM   57  C   UNL     1     -11.092 -12.033 -19.725  1.00  0.00     0.000 C 
BRANCH  57  58
HETATM   58  C   UNL     1     -12.376 -12.738 -20.172  1.00  0.00     0.000 C 
BRANCH  58  59
HETATM   59  C   UNL     1     -12.224 -13.098 -21.650  1.00  0.00     0.002 C 
BRANCH  59  60
HETATM   60  C   UNL     1     -13.452 -13.775 -22.236  1.00  0.00     0.032 C 
BRANCH  60  61
HETATM   61  C   UNL     1     -13.314 -14.036 -23.747  1.00  0.00     0.118 C 
BRANCH  61  62
HETATM   62  C   UNL     1     -12.119 -14.926 -24.125  1.00  0.00     0.032 C 
BRANCH  62  63
HETATM   63  C   UNL     1     -12.002 -15.130 -25.643  1.00  0.00     0.002 C 
BRANCH  63  64
HETATM   64  C   UNL     1     -10.868 -16.077 -26.063  1.00  0.00     0.000 C 
BRANCH  64  65
HETATM   65  C   UNL     1     -11.011 -17.476 -25.463  1.00  0.00    -0.000 C 
BRANCH  65  66
HETATM   66  C   UNL     1      -9.902 -18.422 -25.917  1.00  0.00    -0.005 C 
HETATM   67  C   UNL     1     -10.072 -19.788 -25.268  1.00  0.00     0.005 C 
ENDBRANCH  65  66
ENDBRANCH  64  65
ENDBRANCH  63  64
ENDBRANCH  62  63
ENDBRANCH  61  62
BRANCH  61  68
HETATM   68  O   UNL     1     -14.525 -14.657 -24.183  1.00  0.00    -0.396 OA
HETATM   69  H   UNL     1     -14.574 -15.532 -23.760  1.00  0.00     0.210 HD
ENDBRANCH  61  68
ENDBRANCH  60  61
ENDBRANCH  59  60
ENDBRANCH  58  59
ENDBRANCH  57  58
ENDBRANCH  56  57
ENDBRANCH  55  56
ENDBRANCH  54  55
ENDBRANCH  53  54
ENDBRANCH  52  53
ENDBRANCH  51  52
ENDBRANCH  49  51
ENDBRANCH  48  49
ENDBRANCH   1  48
TORSDOF 59
