REMARK WARNING: 32 MAX_TORS EXCEEDED!!!
REMARK  51 active torsions:
REMARK  status: ('A' for Active; 'I' for Inactive)
REMARK    1  A    between atoms: C_2  and  C_4 
REMARK    2  A    between atoms: C_4  and  C_5 
REMARK    3  A    between atoms: C_5  and  C_6 
REMARK    4  A    between atoms: C_6  and  C_7 
REMARK    5  A    between atoms: C_7  and  C_8 
REMARK    6  A    between atoms: C_8  and  C_9 
REMARK    7  A    between atoms: C_9  and  C_10 
REMARK    8  A    between atoms: C_10  and  C_11 
REMARK    9  A    between atoms: C_11  and  C_12 
REMARK   10  A    between atoms: C_12  and  C_13 
REMARK   11  A    between atoms: C_13  and  C_14 
REMARK   12  A    between atoms: C_14  and  C_15 
REMARK   13  A    between atoms: C_15  and  C_16 
REMARK   14  A    between atoms: C_16  and  O_17 
REMARK   15  A    between atoms: O_17  and  C_18 
REMARK   16  A    between atoms: C_18  and  C_20 
REMARK   17  A    between atoms: C_20  and  C_21 
REMARK   18  A    between atoms: C_21  and  C_22 
REMARK   19  A    between atoms: C_21  and  C_42 
REMARK   20  A    between atoms: C_21  and  O_61 
REMARK   21  A    between atoms: C_22  and  C_23 
REMARK   22  A    between atoms: C_23  and  O_25 
REMARK   23  A    between atoms: O_25  and  C_26 
REMARK   24  A    between atoms: C_26  and  C_27 
REMARK   25  A    between atoms: C_27  and  C_28 
REMARK   26  A    between atoms: C_28  and  C_29 
REMARK   27  A    between atoms: C_29  and  C_30 
REMARK   28  A    between atoms: C_30  and  C_31 
REMARK   29  A    between atoms: C_31  and  C_32 
REMARK   30  A    between atoms: C_32  and  C_33 
REMARK   31  A    between atoms: C_33  and  C_34 
REMARK   32  A    between atoms: C_34  and  C_35 
REMARK   33  A    between atoms: C_35  and  C_36 
REMARK   34  A    between atoms: C_36  and  C_37 
REMARK   35  A    between atoms: C_37  and  C_38 
REMARK   36  A    between atoms: C_38  and  C_39 
REMARK   37  A    between atoms: C_42  and  O_44 
REMARK   38  A    between atoms: O_44  and  C_45 
REMARK   39  A    between atoms: C_45  and  C_46 
REMARK   40  A    between atoms: C_46  and  C_47 
REMARK   41  A    between atoms: C_47  and  C_48 
REMARK   42  A    between atoms: C_48  and  C_49 
REMARK   43  A    between atoms: C_49  and  C_50 
REMARK   44  A    between atoms: C_50  and  C_51 
REMARK   45  A    between atoms: C_51  and  C_52 
REMARK   46  A    between atoms: C_52  and  C_53 
REMARK   47  A    between atoms: C_53  and  C_54 
REMARK   48  A    between atoms: C_54  and  C_55 
REMARK   49  A    between atoms: C_55  and  C_56 
REMARK   50  A    between atoms: C_56  and  C_57 
REMARK   51  A    between atoms: C_57  and  C_58 
ROOT
HETATM    1  C   UNL     1      19.175  -4.534  11.865  1.00  0.00     0.162 C 
ENDROOT
BRANCH   1   2
HETATM    2  C   UNL     1      18.572  -4.109  10.519  1.00  0.00     0.160 C 
BRANCH   2   3
HETATM    3  C   UNL     1      19.057  -2.771  10.025  1.00  0.00     0.262 C 
HETATM    4  O   UNL     1      19.828  -2.030  10.611  1.00  0.00    -0.265 OA
BRANCH   3   5
HETATM    5  O   UNL     1      18.420  -2.462   8.861  1.00  0.00    -0.321 OA
BRANCH   5   6
HETATM    6  C   UNL     1      18.290  -1.053   8.692  1.00  0.00     0.178 C 
BRANCH   6   7
HETATM    7  C   UNL     1      19.046  -0.562   7.481  1.00  0.00     0.027 C 
BRANCH   7   8
HETATM    8  C   UNL     1      18.855   0.943   7.361  1.00  0.00     0.002 C 
BRANCH   8   9
HETATM    9  C   UNL     1      19.603   1.473   6.155  1.00  0.00     0.000 C 
BRANCH   9  10
HETATM   10  C   UNL     1      19.415   2.975   6.034  1.00  0.00     0.000 C 
BRANCH  10  11
HETATM   11  C   UNL     1      20.171   3.487   4.820  1.00  0.00     0.000 C 
BRANCH  11  12
HETATM   12  C   UNL     1      19.993   4.988   4.686  1.00  0.00     0.000 C 
BRANCH  12  13
HETATM   13  C   UNL     1      20.750   5.494   3.470  1.00  0.00     0.000 C 
BRANCH  13  14
HETATM   14  C   UNL     1      20.571   6.997   3.337  1.00  0.00     0.000 C 
BRANCH  14  15
HETATM   15  C   UNL     1      21.326   7.506   2.124  1.00  0.00     0.000 C 
BRANCH  15  16
HETATM   16  C   UNL     1      21.149   9.011   1.983  1.00  0.00     0.000 C 
BRANCH  16  17
HETATM   17  C   UNL     1      21.912   9.500   0.763  1.00  0.00     0.000 C 
BRANCH  17  18
HETATM   18  C   UNL     1      21.763  11.007   0.586  1.00  0.00     0.004 C 
BRANCH  18  19
HETATM   19  C   UNL     1      22.525  11.531  -0.641  1.00  0.00    -0.023 C 
HETATM   20  C   UNL     1      22.330  13.042  -0.759  1.00  0.00     0.009 C 
HETATM   21  C   UNL     1      24.019  11.204  -0.580  1.00  0.00     0.009 C 
ENDBRANCH  18  19
ENDBRANCH  17  18
ENDBRANCH  16  17
ENDBRANCH  15  16
ENDBRANCH  14  15
ENDBRANCH  13  14
ENDBRANCH  12  13
ENDBRANCH  11  12
ENDBRANCH  10  11
ENDBRANCH   9  10
ENDBRANCH   8   9
ENDBRANCH   7   8
ENDBRANCH   6   7
ENDBRANCH   5   6
ENDBRANCH   3   5
ENDBRANCH   2   3
ENDBRANCH   1   2
BRANCH   1  22
HETATM   22  C   UNL     1      18.871  -3.609  13.049  1.00  0.00     0.160 C 
BRANCH  22  23
HETATM   23  C   UNL     1      17.384  -3.500  13.299  1.00  0.00     0.262 C 
HETATM   24  O   UNL     1      16.595  -3.039  12.497  1.00  0.00    -0.265 OA
BRANCH  23  25
HETATM   25  O   UNL     1      17.086  -3.862  14.576  1.00  0.00    -0.321 OA
BRANCH  25  26
HETATM   26  C   UNL     1      16.425  -2.834  15.322  1.00  0.00     0.178 C 
BRANCH  26  27
HETATM   27  C   UNL     1      15.036  -3.276  15.739  1.00  0.00     0.027 C 
BRANCH  27  28
HETATM   28  C   UNL     1      14.358  -2.187  16.561  1.00  0.00     0.002 C 
BRANCH  28  29
HETATM   29  C   UNL     1      12.957  -2.615  16.975  1.00  0.00     0.000 C 
BRANCH  29  30
HETATM   30  C   UNL     1      12.282  -1.526  17.796  1.00  0.00     0.000 C 
BRANCH  30  31
HETATM   31  C   UNL     1      10.883  -1.964  18.206  1.00  0.00     0.000 C 
BRANCH  31  32
HETATM   32  C   UNL     1      10.207  -0.876  19.024  1.00  0.00     0.000 C 
BRANCH  32  33
HETATM   33  C   UNL     1       8.811  -1.315  19.435  1.00  0.00     0.000 C 
BRANCH  33  34
HETATM   34  C   UNL     1       8.140  -0.224  20.255  1.00  0.00     0.000 C 
BRANCH  34  35
HETATM   35  C   UNL     1       6.746  -0.661  20.668  1.00  0.00     0.000 C 
BRANCH  35  36
HETATM   36  C   UNL     1       6.068   0.427  21.489  1.00  0.00     0.000 C 
BRANCH  36  37
HETATM   37  C   UNL     1       4.675  -0.032  21.890  1.00  0.00     0.000 C 
BRANCH  37  38
HETATM   38  C   UNL     1       3.959   1.028  22.719  1.00  0.00     0.004 C 
BRANCH  38  39
HETATM   39  C   UNL     1       2.547   0.589  23.138  1.00  0.00    -0.023 C 
HETATM   40  C   UNL     1       2.564  -0.684  23.987  1.00  0.00     0.009 C 
HETATM   41  C   UNL     1       1.868   1.719  23.911  1.00  0.00     0.009 C 
ENDBRANCH  38  39
ENDBRANCH  37  38
ENDBRANCH  36  37
ENDBRANCH  35  36
ENDBRANCH  34  35
ENDBRANCH  33  34
ENDBRANCH  32  33
ENDBRANCH  31  32
ENDBRANCH  30  31
ENDBRANCH  29  30
ENDBRANCH  28  29
ENDBRANCH  27  28
ENDBRANCH  26  27
ENDBRANCH  25  26
ENDBRANCH  23  25
ENDBRANCH  22  23
ENDBRANCH   1  22
BRANCH   1  42
HETATM   42  C   UNL     1      18.816  -5.994  12.192  1.00  0.00     0.294 C 
HETATM   43  O   UNL     1      18.718  -6.430  13.323  1.00  0.00    -0.262 OA
BRANCH  42  44
HETATM   44  O   UNL     1      18.781  -6.743  11.044  1.00  0.00    -0.319 OA
BRANCH  44  45
HETATM   45  C   UNL     1      19.091  -8.140  11.162  1.00  0.00     0.178 C 
BRANCH  45  46
HETATM   46  C   UNL     1      17.882  -8.981  10.789  1.00  0.00     0.027 C 
BRANCH  46  47
HETATM   47  C   UNL     1      18.210 -10.468  10.869  1.00  0.00     0.002 C 
BRANCH  47  48
HETATM   48  C   UNL     1      17.004 -11.327  10.508  1.00  0.00     0.000 C 
BRANCH  48  49
HETATM   49  C   UNL     1      17.367 -12.804  10.595  1.00  0.00     0.000 C 
BRANCH  49  50
HETATM   50  C   UNL     1      16.174 -13.679  10.237  1.00  0.00     0.000 C 
BRANCH  50  51
HETATM   51  C   UNL     1      16.555 -15.149  10.330  1.00  0.00     0.000 C 
BRANCH  51  52
HETATM   52  C   UNL     1      15.368 -16.030   9.972  1.00  0.00     0.000 C 
BRANCH  52  53
HETATM   53  C   UNL     1      15.758 -17.497  10.067  1.00  0.00     0.000 C 
BRANCH  53  54
HETATM   54  C   UNL     1      14.573 -18.378   9.711  1.00  0.00     0.000 C 
BRANCH  54  55
HETATM   55  C   UNL     1      14.950 -19.850   9.803  1.00  0.00     0.000 C 
BRANCH  55  56
HETATM   56  C   UNL     1      13.747 -20.707   9.441  1.00  0.00     0.000 C 
BRANCH  56  57
HETATM   57  C   UNL     1      14.083 -22.193   9.518  1.00  0.00     0.004 C 
BRANCH  57  58
HETATM   58  C   UNL     1      12.885 -23.085   9.158  1.00  0.00    -0.023 C 
HETATM   59  C   UNL     1      12.380 -22.830   7.736  1.00  0.00     0.009 C 
HETATM   60  C   UNL     1      13.273 -24.554   9.316  1.00  0.00     0.009 C 
ENDBRANCH  57  58
ENDBRANCH  56  57
ENDBRANCH  55  56
ENDBRANCH  54  55
ENDBRANCH  53  54
ENDBRANCH  52  53
ENDBRANCH  51  52
ENDBRANCH  50  51
ENDBRANCH  49  50
ENDBRANCH  48  49
ENDBRANCH  47  48
ENDBRANCH  46  47
ENDBRANCH  45  46
ENDBRANCH  44  45
ENDBRANCH  42  44
ENDBRANCH   1  42
BRANCH   1  61
HETATM   61  O   UNL     1      20.612  -4.602  11.709  1.00  0.00    -0.379 OA
HETATM   62  H   UNL     1      20.943  -3.708  11.563  1.00  0.00     0.211 HD
ENDBRANCH   1  61
TORSDOF 51
