REMARK  5 active torsions:
REMARK  status: ('A' for Active; 'I' for Inactive)
REMARK    1  A    between atoms: CG_7  and  CB_10 
REMARK    2  A    between atoms: CB_10  and  CA_11 
REMARK    3  A    between atoms: CA_11  and  C_12 
REMARK    4  A    between atoms: CA_11  and  N_15 
REMARK    5  A    between atoms: C_12  and  OXT_14 
ROOT
ATOM      1  CZ3 TRP A   1       2.269  -0.446  -0.328  1.00  0.00     0.001 A 
ATOM      2  CH2 TRP A   1       2.177   0.934  -0.185  1.00  0.00     0.002 A 
ATOM      3  CZ2 TRP A   1       0.935   1.568  -0.104  1.00  0.00     0.030 A 
ATOM      4  CE2 TRP A   1      -0.208   0.760  -0.141  1.00  0.00     0.042 A 
ATOM      5  CD2 TRP A   1      -0.151  -0.629  -0.244  1.00  0.00    -0.002 A 
ATOM      6  CE3 TRP A   1       1.114  -1.241  -0.364  1.00  0.00     0.014 A 
ATOM      7  CG  TRP A   1      -1.495  -1.117  -0.130  1.00  0.00    -0.028 A 
ATOM      8  CD1 TRP A   1      -2.317  -0.008  -0.065  1.00  0.00     0.096 A 
ATOM      9  NE1 TRP A   1      -1.536   1.113  -0.088  1.00  0.00    -0.365 N 
ATOM     10  HE1 TRP A   1      -1.877   2.064  -0.041  1.00  0.00     0.165 HD
ENDROOT
BRANCH   7  11
ATOM     11  CB  TRP A   1      -1.954  -2.542  -0.028  1.00  0.00     0.087 C 
BRANCH  11  12
ATOM     12  CA  TRP A   1      -1.405  -3.296   1.195  1.00  0.00     0.318 C 
BRANCH  12  13
ATOM     13  C   TRP A   1      -1.865  -2.688   2.539  1.00  0.00     0.174 C 
ATOM     14  O   TRP A   1      -2.647  -3.251   3.298  1.00  0.00    -0.648 OA
BRANCH  13  15
ATOM     15  OXT TRP A   1      -1.282  -1.517   2.875  1.00  0.00    -0.775 OA
ATOM     16  HXT TRP A   1      -0.686  -1.147   2.193  1.00  0.00     0.167 HD
ENDBRANCH  13  15
ENDBRANCH  12  13
BRANCH  12  17
ATOM     17  N   TRP A   1      -1.861  -4.714   1.129  1.00  0.00     0.093 N 
ATOM     18  H1  TRP A   1      -2.867  -4.718   1.331  1.00  0.00     0.314 HD
ATOM     19  H2  TRP A   1      -1.471  -5.205   1.938  1.00  0.00     0.314 HD
ENDBRANCH  12  17
ENDBRANCH  11  12
ENDBRANCH   7  11
TORSDOF 5
