REMARK  6 active torsions:
REMARK  status: ('A' for Active; 'I' for Inactive)
REMARK    1  A    between atoms: CZ_3  and  OH_13 
REMARK    2  A    between atoms: CG_6  and  CB_7 
REMARK    3  A    between atoms: CB_7  and  CA_8 
REMARK    4  A    between atoms: CA_8  and  C_9 
REMARK    5  A    between atoms: CA_8  and  N_12 
REMARK    6  A    between atoms: C_9  and  OXT_11 
ROOT
ATOM      1  CB  TYR A   1      -3.292  -0.073  -0.117  1.00  0.00     0.085 C 
ENDROOT
BRANCH   1   2
ATOM      2  CG  TYR A   1      -1.782   0.011  -0.162  1.00  0.00    -0.055 A 
ATOM      3  CD2 TYR A   1      -1.028  -1.151  -0.397  1.00  0.00     0.010 A 
ATOM      4  CE2 TYR A   1       0.367  -1.113  -0.375  1.00  0.00     0.037 A 
ATOM      5  CZ  TYR A   1       1.013   0.091  -0.124  1.00  0.00     0.065 A 
ATOM      6  CE1 TYR A   1       0.287   1.255   0.092  1.00  0.00     0.037 A 
ATOM      7  CD1 TYR A   1      -1.109   1.216   0.086  1.00  0.00     0.010 A 
BRANCH   5   8
ATOM      8  OH  TYR A   1       2.374   0.166  -0.065  1.00  0.00    -0.361 OA
ATOM      9  HH  TYR A   1       2.736  -0.734  -0.104  1.00  0.00     0.217 HD
ENDBRANCH   5   8
ENDBRANCH   1   2
BRANCH   1  10
ATOM     10  CA  TYR A   1      -4.049   0.884  -1.052  1.00  0.00     0.318 C 
BRANCH  10  11
ATOM     11  C   TYR A   1      -3.885   0.506  -2.539  1.00  0.00     0.174 C 
ATOM     12  O   TYR A   1      -4.801   0.074  -3.232  1.00  0.00    -0.648 OA
BRANCH  11  13
ATOM     13  OXT TYR A   1      -2.658   0.732  -3.052  1.00  0.00    -0.775 OA
ATOM     14  HXT TYR A   1      -1.997   1.065  -2.412  1.00  0.00     0.167 HD
ENDBRANCH  11  13
ENDBRANCH  10  11
BRANCH  10  15
ATOM     15  N   TYR A   1      -5.495   0.832  -0.694  1.00  0.00     0.093 N 
ATOM     16  H1  TYR A   1      -5.838  -0.107  -0.929  1.00  0.00     0.314 HD
ATOM     17  H2  TYR A   1      -6.004   1.427  -1.353  1.00  0.00     0.314 HD
ENDBRANCH  10  15
ENDBRANCH   1  10
TORSDOF 6
