REMARK  10 active torsions:
REMARK  status: ('A' for Active; 'I' for Inactive)
REMARK    1  A    between atoms: C_2  and  C_3 
REMARK    2  A    between atoms: C_3  and  C_4 
REMARK    3  A    between atoms: C_4  and  C_5 
REMARK    4  A    between atoms: C_5  and  C_6 
REMARK    5  A    between atoms: C_6  and  C_7 
REMARK    6  A    between atoms: C_7  and  C_8 
REMARK    7  A    between atoms: C_8  and  C_9 
REMARK    8  A    between atoms: C_9  and  C_10 
REMARK    9  A    between atoms: C_10  and  C_11 
REMARK   10  A    between atoms: C_11  and  O_13 
ROOT
HETATM    1  C   UNL     1       7.048  -4.048   1.631  1.00  0.00     0.000 C 
ENDROOT
BRANCH   1   2
HETATM    2  C   UNL     1       6.519  -2.718   1.104  1.00  0.00     0.000 C 
BRANCH   2   3
HETATM    3  C   UNL     1       4.993  -2.705   1.099  1.00  0.00     0.000 C 
BRANCH   3   4
HETATM    4  C   UNL     1       4.461  -1.375   0.570  1.00  0.00     0.000 C 
BRANCH   4   5
HETATM    5  C   UNL     1       2.935  -1.363   0.564  1.00  0.00    -0.000 C 
BRANCH   5   6
HETATM    6  C   UNL     1       2.397  -0.037   0.034  1.00  0.00    -0.005 C 
HETATM    7  C   UNL     1       0.878  -0.028   0.030  1.00  0.00     0.005 C 
ENDBRANCH   5   6
ENDBRANCH   4   5
ENDBRANCH   3   4
ENDBRANCH   2   3
ENDBRANCH   1   2
BRANCH   1   8
HETATM    8  C   UNL     1       8.576  -4.074   1.639  1.00  0.00     0.001 C 
BRANCH   8   9
HETATM    9  C   UNL     1       9.082  -5.412   2.169  1.00  0.00     0.010 C 
BRANCH   9  10
HETATM   10  C   UNL     1      10.606  -5.479   2.194  1.00  0.00     0.110 C 
BRANCH  10  11
HETATM   11  C   UNL     1      11.084  -6.813   2.722  1.00  0.00     0.139 C 
HETATM   12  O   UNL     1      10.366  -7.728   3.088  1.00  0.00    -0.650 OA
BRANCH  11  13
HETATM   13  O   UNL     1      12.435  -6.899   2.753  1.00  0.00    -0.776 OA
HETATM   14  H   UNL     1      12.886  -6.096   2.432  1.00  0.00     0.167 HD
ENDBRANCH  11  13
ENDBRANCH  10  11
ENDBRANCH   9  10
ENDBRANCH   8   9
ENDBRANCH   1   8
TORSDOF 10
