REMARK  8 active torsions:
REMARK  status: ('A' for Active; 'I' for Inactive)
REMARK    1  A    between atoms: C_2  and  C_3 
REMARK    2  A    between atoms: C_3  and  C_4 
REMARK    3  A    between atoms: C_4  and  C_5 
REMARK    4  A    between atoms: C_5  and  C_6 
REMARK    5  A    between atoms: C_6  and  C_7 
REMARK    6  A    between atoms: C_7  and  C_8 
REMARK    7  A    between atoms: C_8  and  C_9 
REMARK    8  A    between atoms: C_9  and  C_10 
ROOT
HETATM    1  C   UNL     1       6.570  -2.852  -0.654  1.00  0.00     0.000 C 
ENDROOT
BRANCH   1   2
HETATM    2  C   UNL     1       5.044  -2.835  -0.651  1.00  0.00     0.000 C 
BRANCH   2   3
HETATM    3  C   UNL     1       4.516  -1.431  -0.370  1.00  0.00     0.000 C 
BRANCH   3   4
HETATM    4  C   UNL     1       2.992  -1.416  -0.364  1.00  0.00    -0.000 C 
BRANCH   4   5
HETATM    5  C   UNL     1       2.452  -0.017  -0.086  1.00  0.00    -0.005 C 
HETATM    6  C   UNL     1       0.933  -0.008  -0.085  1.00  0.00     0.005 C 
ENDBRANCH   4   5
ENDBRANCH   3   4
ENDBRANCH   2   3
ENDBRANCH   1   2
BRANCH   1   7
HETATM    7  C   UNL     1       7.095  -4.256  -0.936  1.00  0.00     0.000 C 
BRANCH   7   8
HETATM    8  C   UNL     1       8.620  -4.276  -0.940  1.00  0.00     0.000 C 
BRANCH   8   9
HETATM    9  C   UNL     1       9.143  -5.682  -1.222  1.00  0.00    -0.000 C 
BRANCH   9  10
HETATM   10  C   UNL     1      10.669  -5.712  -1.228  1.00  0.00    -0.005 C 
HETATM   11  C   UNL     1      11.186  -7.113  -1.509  1.00  0.00     0.005 C 
ENDBRANCH   9  10
ENDBRANCH   8   9
ENDBRANCH   7   8
ENDBRANCH   1   7
TORSDOF 8
