REMARK  0 active torsions:
REMARK  status: ('A' for Active; 'I' for Inactive)
REMARK       I    between atoms: C_1  and  N_3 
REMARK       I    between atoms: C_1  and  N_4 
ROOT
HETATM    1  C   UNL     1       0.931   0.046  -0.049  1.00  0.00     0.311 C 
HETATM    2  O   UNL     1       0.321  -0.912   0.396  1.00  0.00    -0.248 OA
HETATM    3  N   UNL     1       0.319   1.134  -0.555  1.00  0.00    -0.352 N 
HETATM    4  N   UNL     1       2.275   0.109  -0.079  1.00  0.00    -0.352 N 
HETATM    5  H   UNL     1      -0.691   1.139  -0.558  1.00  0.00     0.160 HD
HETATM    6  H   UNL     1       0.818   1.925  -0.924  1.00  0.00     0.160 HD
HETATM    7  H   UNL     1       2.786  -0.681   0.289  1.00  0.00     0.160 HD
HETATM    8  H   UNL     1       2.782   0.897  -0.445  1.00  0.00     0.160 HD
ENDROOT
TORSDOF 0
