REMARK  9 active torsions:
REMARK  status: ('A' for Active; 'I' for Inactive)
REMARK    1  A    between atoms: C_1  and  C_2 
REMARK    2  A    between atoms: C_1  and  O_10 
REMARK    3  A    between atoms: C_2  and  C_3 
REMARK    4  A    between atoms: C_2  and  O_9 
REMARK    5  A    between atoms: C_3  and  C_4 
REMARK    6  A    between atoms: C_3  and  O_8 
REMARK    7  A    between atoms: C_4  and  C_5 
REMARK    8  A    between atoms: C_4  and  O_7 
REMARK    9  A    between atoms: C_5  and  O_6 
ROOT
HETATM    1  C   UNL     1       1.048   0.237   2.543  1.00  0.00     0.179 C 
ENDROOT
BRANCH   1   2
HETATM    2  C   UNL     1       0.550  -0.542   1.299  1.00  0.00     0.173 C 
BRANCH   2   3
HETATM    3  C   UNL     1       1.076   0.071  -0.015  1.00  0.00     0.198 C 
BRANCH   3   4
HETATM    4  O   UNL     1       2.494   0.052  -0.111  1.00  0.00    -0.398 OA
HETATM    5  H   UNL     1       2.838   0.512   0.682  1.00  0.00     0.209 HD
ENDBRANCH   3   4
ENDBRANCH   2   3
BRANCH   2   6
HETATM    6  O   UNL     1      -0.875  -0.593   1.248  1.00  0.00    -0.391 OA
HETATM    7  H   UNL     1      -1.216   0.294   1.050  1.00  0.00     0.210 HD
ENDBRANCH   2   6
ENDBRANCH   1   2
BRANCH   1   8
HETATM    8  C   UNL     1       0.582  -0.347   3.900  1.00  0.00     0.173 C 
BRANCH   8   9
HETATM    9  C   UNL     1       1.150   0.457   5.080  1.00  0.00     0.198 C 
BRANCH   9  10
HETATM   10  O   UNL     1       0.676  -0.091   6.310  1.00  0.00    -0.398 OA
HETATM   11  H   UNL     1      -0.253  -0.347   6.145  1.00  0.00     0.209 HD
ENDBRANCH   9  10
ENDBRANCH   8   9
BRANCH   8  12
HETATM   12  O   UNL     1      -0.842  -0.366   4.059  1.00  0.00    -0.391 OA
HETATM   13  H   UNL     1      -1.198   0.494   3.776  1.00  0.00     0.210 HD
ENDBRANCH   8  12
ENDBRANCH   1   8
BRANCH   1  14
HETATM   14  O   UNL     1       2.481   0.327   2.519  1.00  0.00    -0.390 OA
HETATM   15  H   UNL     1       2.835  -0.577   2.649  1.00  0.00     0.210 HD
ENDBRANCH   1  14
TORSDOF 9
