REMARK  6 active torsions:
REMARK  status: ('A' for Active; 'I' for Inactive)
REMARK    1  A    between atoms: C_2  and  O_4 
REMARK    2  A    between atoms: C_2  and  C_5 
REMARK    3  A    between atoms: C_10  and  C_11 
REMARK    4  A    between atoms: C_17  and  C_18 
REMARK    5  A    between atoms: C_19  and  C_20 
REMARK    6  A    between atoms: C_23  and  C_24 
ROOT
HETATM    1  C   UNL     1       0.441  -2.433  -0.637  1.00  0.00    -0.023 C 
HETATM    2  C   UNL     1       0.468  -1.906  -1.953  1.00  0.00     0.014 C 
HETATM    3  C   UNL     1      -0.659  -1.418  -2.611  1.00  0.00     0.033 C 
HETATM    4  C   UNL     1      -1.895  -1.609  -2.014  1.00  0.00     0.060 A 
HETATM    5  N   UNL     1      -3.104  -1.234  -2.485  1.00  0.00    -0.341 N 
ATOM      6  HN  UNL     1      -3.290  -0.705  -3.337  1.00  0.00     0.167 HD
HETATM    7  C   UNL     1      -3.997  -1.686  -1.627  1.00  0.00     0.106 A 
HETATM    8  N   UNL     1      -3.362  -2.334  -0.580  1.00  0.00    -0.341 N 
HETATM    9  C   UNL     1      -1.996  -2.251  -0.791  1.00  0.00     0.061 A 
HETATM   10  C   UNL     1      -0.842  -2.628  -0.060  1.00  0.00     0.044 C 
HETATM   11  H   UNL     1      -3.819  -2.792   0.198  1.00  0.00     0.167 HD
ENDROOT
BRANCH   7  12
HETATM   12  C   UNL     1      -5.406  -1.517  -1.717  1.00  0.00     0.049 C 
HETATM   13  C   UNL     1      -5.820  -0.699  -2.708  1.00  0.00     0.015 C 
BRANCH  13  14
HETATM   14  C   UNL     1      -7.164  -0.239  -3.078  1.00  0.00    -0.036 A 
HETATM   15  C   UNL     1      -7.269   1.042  -3.621  1.00  0.00     0.012 A 
HETATM   16  C   UNL     1      -8.502   1.562  -4.014  1.00  0.00     0.017 A 
HETATM   17  C   UNL     1      -9.661   0.792  -3.885  1.00  0.00     0.048 A 
HETATM   18  C   UNL     1      -9.548  -0.526  -3.408  1.00  0.00     0.017 A 
HETATM   19  C   UNL     1      -8.306  -1.044  -3.008  1.00  0.00     0.012 A 
BRANCH  17  20
HETATM   20  C   UNL     1     -11.011   1.373  -4.224  1.00  0.00     0.417 C 
HETATM   21  F   UNL     1     -10.961   2.676  -4.622  1.00  0.00    -0.166 F 
HETATM   22  F   UNL     1     -11.641   0.701  -5.227  1.00  0.00    -0.166 F 
HETATM   23  F   UNL     1     -11.864   1.346  -3.162  1.00  0.00    -0.166 F 
ENDBRANCH  17  20
ENDBRANCH  13  14
ENDBRANCH   7  12
BRANCH   1  24
HETATM   24  C   UNL     1       1.763  -2.564   0.096  1.00  0.00    -0.017 A 
HETATM   25  C   UNL     1       2.142  -3.467   1.127  1.00  0.00    -0.014 A 
HETATM   26  C   UNL     1       3.395  -3.236   1.788  1.00  0.00     0.011 A 
HETATM   27  C   UNL     1       4.309  -2.259   1.406  1.00  0.00     0.001 A 
HETATM   28  C   UNL     1       4.002  -1.452   0.340  1.00  0.00     0.001 A 
HETATM   29  C   UNL     1       2.754  -1.588  -0.267  1.00  0.00     0.013 A 
BRANCH  25  30
HETATM   30  C   UNL     1       1.374  -4.691   1.651  1.00  0.00     0.078 C 
HETATM   31  C   UNL     1       0.591  -5.511   0.620  1.00  0.00     0.051 C 
HETATM   32  C   UNL     1       0.543  -4.299   2.881  1.00  0.00     0.051 C 
BRANCH  30  33
HETATM   33  O   UNL     1       2.352  -5.648   2.139  1.00  0.00    -0.386 OA
HETATM   34  H   UNL     1       1.874  -6.383   2.556  1.00  0.00     0.211 HD
ENDBRANCH  30  33
ENDBRANCH  25  30
ENDBRANCH   1  24
TORSDOF 6
