MODEL 1
REMARK VINA RESULT:     -10.8      0.000      0.000
REMARK  6 active torsions:
REMARK  status: ('A' for Active; 'I' for Inactive)
REMARK    1  A    between atoms: C_2  and  O_4 
REMARK    2  A    between atoms: C_2  and  C_5 
REMARK    3  A    between atoms: C_10  and  C_11 
REMARK    4  A    between atoms: C_17  and  C_18 
REMARK    5  A    between atoms: C_19  and  C_20 
REMARK    6  A    between atoms: C_23  and  C_24 
ROOT
HETATM    1  C   UNL     1     -21.668  -9.661  -0.847  1.00  0.00    -0.023 C 
HETATM    2  C   UNL     1     -22.098  -8.510  -0.139  1.00  0.00     0.014 C 
HETATM    3  C   UNL     1     -22.229  -7.251  -0.722  1.00  0.00     0.033 C 
HETATM    4  C   UNL     1     -21.758  -7.079  -2.014  1.00  0.00     0.060 A 
HETATM    5  N   UNL     1     -21.771  -5.948  -2.751  1.00  0.00    -0.341 N 
ATOM      6  HN  UNL     1     -22.176  -5.050  -2.486  1.00  0.00     0.167 HD
HETATM    7  C   UNL     1     -21.156  -6.232  -3.883  1.00  0.00     0.106 A 
HETATM    8  N   UNL     1     -20.767  -7.561  -3.890  1.00  0.00    -0.341 N 
HETATM    9  C   UNL     1     -21.192  -8.138  -2.705  1.00  0.00     0.061 A 
HETATM   10  C   UNL     1     -21.180  -9.447  -2.164  1.00  0.00     0.044 C 
HETATM   11  H   UNL     1     -20.256  -8.025  -4.629  1.00  0.00     0.167 HD
ENDROOT
BRANCH   7  12
HETATM   12  C   UNL     1     -20.942  -5.337  -4.967  1.00  0.00     0.049 C 
HETATM   13  C   UNL     1     -21.518  -5.705  -6.131  1.00  0.00     0.015 C 
BRANCH  13  14
HETATM   14  C   UNL     1     -21.479  -5.086  -7.462  1.00  0.00    -0.036 A 
HETATM   15  C   UNL     1     -22.606  -4.369  -7.862  1.00  0.00     0.012 A 
HETATM   16  C   UNL     1     -22.658  -3.736  -9.104  1.00  0.00     0.017 A 
HETATM   17  C   UNL     1     -21.561  -3.797  -9.968  1.00  0.00     0.048 A 
HETATM   18  C   UNL     1     -20.396  -4.456  -9.537  1.00  0.00     0.017 A 
HETATM   19  C   UNL     1     -20.350  -5.097  -8.289  1.00  0.00     0.012 A 
BRANCH  17  20
HETATM   20  C   UNL     1     -21.636  -3.193 -11.348  1.00  0.00     0.417 C 
HETATM   21  F   UNL     1     -20.664  -2.269 -11.593  1.00  0.00    -0.166 F 
HETATM   22  F   UNL     1     -21.528  -4.119 -12.340  1.00  0.00    -0.166 F 
HETATM   23  F   UNL     1     -22.817  -2.549 -11.565  1.00  0.00    -0.166 F 
ENDBRANCH  17  20
ENDBRANCH  13  14
ENDBRANCH   7  12
BRANCH   1  24
HETATM   24  C   UNL     1     -21.937 -11.015  -0.219  1.00  0.00    -0.017 A 
HETATM   25  C   UNL     1     -21.040 -12.086   0.045  1.00  0.00    -0.014 A 
HETATM   26  C   UNL     1     -21.602 -13.339   0.462  1.00  0.00     0.011 A 
HETATM   27  C   UNL     1     -22.952 -13.535   0.735  1.00  0.00     0.001 A 
HETATM   28  C   UNL     1     -23.813 -12.477   0.591  1.00  0.00     0.001 A 
HETATM   29  C   UNL     1     -23.316 -11.270   0.099  1.00  0.00     0.013 A 
BRANCH  25  30
HETATM   30  C   UNL     1     -19.506 -12.092  -0.061  1.00  0.00     0.078 C 
HETATM   31  C   UNL     1     -18.901 -11.613  -1.384  1.00  0.00     0.051 C 
HETATM   32  C   UNL     1     -18.955 -13.445   0.411  1.00  0.00     0.051 C 
BRANCH  30  33
HETATM   33  O   UNL     1     -18.997 -11.119   0.890  1.00  0.00    -0.386 OA
HETATM   34  H   UNL     1     -18.027 -11.169   0.884  1.00  0.00     0.211 HD
ENDBRANCH  30  33
ENDBRANCH  25  30
ENDBRANCH   1  24
TORSDOF 6
ENDMDL
MODEL 2
REMARK VINA RESULT:     -10.5      1.720      2.716
REMARK  6 active torsions:
REMARK  status: ('A' for Active; 'I' for Inactive)
REMARK    1  A    between atoms: C_2  and  O_4 
REMARK    2  A    between atoms: C_2  and  C_5 
REMARK    3  A    between atoms: C_10  and  C_11 
REMARK    4  A    between atoms: C_17  and  C_18 
REMARK    5  A    between atoms: C_19  and  C_20 
REMARK    6  A    between atoms: C_23  and  C_24 
ROOT
HETATM    1  C   UNL     1     -21.207  -8.427  -2.715  1.00  0.00    -0.023 C 
HETATM    2  C   UNL     1     -21.197  -7.099  -2.220  1.00  0.00     0.014 C 
HETATM    3  C   UNL     1     -21.224  -5.971  -3.038  1.00  0.00     0.033 C 
HETATM    4  C   UNL     1     -21.088  -6.155  -4.405  1.00  0.00     0.060 A 
HETATM    5  N   UNL     1     -21.070  -5.206  -5.366  1.00  0.00    -0.341 N 
ATOM      6  HN  UNL     1     -21.204  -4.203  -5.236  1.00  0.00     0.167 HD
HETATM    7  C   UNL     1     -20.845  -5.831  -6.505  1.00  0.00     0.106 A 
HETATM    8  N   UNL     1     -20.743  -7.195  -6.285  1.00  0.00    -0.341 N 
HETATM    9  C   UNL     1     -20.947  -7.427  -4.935  1.00  0.00     0.061 A 
HETATM   10  C   UNL     1     -21.052  -8.580  -4.119  1.00  0.00     0.044 C 
HETATM   11  H   UNL     1     -20.549  -7.896  -6.988  1.00  0.00     0.167 HD
ENDROOT
BRANCH   7  12
HETATM   12  C   UNL     1     -20.752  -5.225  -7.788  1.00  0.00     0.049 C 
HETATM   13  C   UNL     1     -21.932  -5.035  -8.415  1.00  0.00     0.015 C 
BRANCH  13  14
HETATM   14  C   UNL     1     -22.239  -4.504  -9.749  1.00  0.00    -0.036 A 
HETATM   15  C   UNL     1     -23.582  -4.273 -10.047  1.00  0.00     0.012 A 
HETATM   16  C   UNL     1     -23.971  -3.758 -11.283  1.00  0.00     0.017 A 
HETATM   17  C   UNL     1     -23.008  -3.445 -12.246  1.00  0.00     0.048 A 
HETATM   18  C   UNL     1     -21.649  -3.606 -11.922  1.00  0.00     0.017 A 
HETATM   19  C   UNL     1     -21.262  -4.130 -10.678  1.00  0.00     0.012 A 
BRANCH  17  20
HETATM   20  C   UNL     1     -23.419  -2.970 -13.618  1.00  0.00     0.417 C 
HETATM   21  F   UNL     1     -24.115  -3.900 -14.332  1.00  0.00    -0.166 F 
HETATM   22  F   UNL     1     -24.209  -1.862 -13.581  1.00  0.00    -0.166 F 
HETATM   23  F   UNL     1     -22.347  -2.640 -14.391  1.00  0.00    -0.166 F 
ENDBRANCH  17  20
ENDBRANCH  13  14
ENDBRANCH   7  12
BRANCH   1  24
HETATM   24  C   UNL     1     -21.564  -9.538  -1.745  1.00  0.00    -0.017 A 
HETATM   25  C   UNL     1     -20.975 -10.822  -1.581  1.00  0.00    -0.014 A 
HETATM   26  C   UNL     1     -21.645 -11.757  -0.722  1.00  0.00     0.011 A 
HETATM   27  C   UNL     1     -22.763 -11.447   0.046  1.00  0.00     0.001 A 
HETATM   28  C   UNL     1     -23.274 -10.176  -0.019  1.00  0.00     0.001 A 
HETATM   29  C   UNL     1     -22.705  -9.269  -0.913  1.00  0.00     0.013 A 
BRANCH  25  30
HETATM   30  C   UNL     1     -19.686 -11.367  -2.216  1.00  0.00     0.078 C 
HETATM   31  C   UNL     1     -18.477 -10.426  -2.247  1.00  0.00     0.051 C 
HETATM   32  C   UNL     1     -20.003 -12.002  -3.578  1.00  0.00     0.051 C 
BRANCH  30  33
HETATM   33  O   UNL     1     -19.214 -12.461  -1.384  1.00  0.00    -0.386 OA
HETATM   34  H   UNL     1     -19.968 -13.043  -1.194  1.00  0.00     0.211 HD
ENDBRANCH  30  33
ENDBRANCH  25  30
ENDBRANCH   1  24
TORSDOF 6
ENDMDL
MODEL 3
REMARK VINA RESULT:     -10.1      1.574      2.886
REMARK  6 active torsions:
REMARK  status: ('A' for Active; 'I' for Inactive)
REMARK    1  A    between atoms: C_2  and  O_4 
REMARK    2  A    between atoms: C_2  and  C_5 
REMARK    3  A    between atoms: C_10  and  C_11 
REMARK    4  A    between atoms: C_17  and  C_18 
REMARK    5  A    between atoms: C_19  and  C_20 
REMARK    6  A    between atoms: C_23  and  C_24 
ROOT
HETATM    1  C   UNL     1     -20.438  -9.075  -2.170  1.00  0.00    -0.023 C 
HETATM    2  C   UNL     1     -21.016  -7.911  -1.602  1.00  0.00     0.014 C 
HETATM    3  C   UNL     1     -21.402  -6.800  -2.348  1.00  0.00     0.033 C 
HETATM    4  C   UNL     1     -21.052  -6.762  -3.689  1.00  0.00     0.060 A 
HETATM    5  N   UNL     1     -21.309  -5.780  -4.580  1.00  0.00    -0.341 N 
ATOM      6  HN  UNL     1     -21.847  -4.930  -4.413  1.00  0.00     0.167 HD
HETATM    7  C   UNL     1     -20.727  -6.137  -5.708  1.00  0.00     0.106 A 
HETATM    8  N   UNL     1     -20.113  -7.369  -5.555  1.00  0.00    -0.341 N 
HETATM    9  C   UNL     1     -20.355  -7.811  -4.265  1.00  0.00     0.061 A 
HETATM   10  C   UNL     1     -20.080  -8.998  -3.542  1.00  0.00     0.044 C 
HETATM   11  H   UNL     1     -19.577  -7.856  -6.262  1.00  0.00     0.167 HD
ENDROOT
BRANCH   7  12
HETATM   12  C   UNL     1     -20.742  -5.404  -6.927  1.00  0.00     0.049 C 
HETATM   13  C   UNL     1     -21.966  -5.222  -7.467  1.00  0.00     0.015 C 
BRANCH  13  14
HETATM   14  C   UNL     1     -22.378  -4.581  -8.722  1.00  0.00    -0.036 A 
HETATM   15  C   UNL     1     -21.402  -4.428  -9.707  1.00  0.00     0.012 A 
HETATM   16  C   UNL     1     -21.701  -3.842 -10.936  1.00  0.00     0.017 A 
HETATM   17  C   UNL     1     -23.001  -3.410 -11.210  1.00  0.00     0.048 A 
HETATM   18  C   UNL     1     -24.003  -3.631 -10.248  1.00  0.00     0.017 A 
HETATM   19  C   UNL     1     -23.698  -4.216  -9.009  1.00  0.00     0.012 A 
BRANCH  17  20
HETATM   20  C   UNL     1     -23.319  -2.696 -12.499  1.00  0.00     0.417 C 
HETATM   21  F   UNL     1     -22.744  -1.463 -12.598  1.00  0.00    -0.166 F 
HETATM   22  F   UNL     1     -22.913  -3.385 -13.601  1.00  0.00    -0.166 F 
HETATM   23  F   UNL     1     -24.656  -2.490 -12.658  1.00  0.00    -0.166 F 
ENDBRANCH  17  20
ENDBRANCH  13  14
ENDBRANCH   7  12
BRANCH   1  24
HETATM   24  C   UNL     1     -20.426 -10.337  -1.328  1.00  0.00    -0.017 A 
HETATM   25  C   UNL     1     -21.475 -10.938  -0.579  1.00  0.00    -0.014 A 
HETATM   26  C   UNL     1     -21.134 -12.023   0.296  1.00  0.00     0.011 A 
HETATM   27  C   UNL     1     -19.868 -12.596   0.368  1.00  0.00     0.001 A 
HETATM   28  C   UNL     1     -18.873 -12.096  -0.433  1.00  0.00     0.001 A 
HETATM   29  C   UNL     1     -19.146 -10.983  -1.227  1.00  0.00     0.013 A 
BRANCH  25  30
HETATM   30  C   UNL     1     -22.969 -10.574  -0.572  1.00  0.00     0.078 C 
HETATM   31  C   UNL     1     -23.356  -9.246   0.087  1.00  0.00     0.051 C 
HETATM   32  C   UNL     1     -23.795 -11.769  -0.074  1.00  0.00     0.051 C 
BRANCH  30  33
HETATM   33  O   UNL     1     -23.379 -10.374  -1.951  1.00  0.00    -0.386 OA
HETATM   34  H   UNL     1     -23.451  -9.419  -2.110  1.00  0.00     0.211 HD
ENDBRANCH  30  33
ENDBRANCH  25  30
ENDBRANCH   1  24
TORSDOF 6
ENDMDL
MODEL 4
REMARK VINA RESULT:      -9.9      2.168      3.237
REMARK  6 active torsions:
REMARK  status: ('A' for Active; 'I' for Inactive)
REMARK    1  A    between atoms: C_2  and  O_4 
REMARK    2  A    between atoms: C_2  and  C_5 
REMARK    3  A    between atoms: C_10  and  C_11 
REMARK    4  A    between atoms: C_17  and  C_18 
REMARK    5  A    between atoms: C_19  and  C_20 
REMARK    6  A    between atoms: C_23  and  C_24 
ROOT
HETATM    1  C   UNL     1     -19.540  -9.210  -2.863  1.00  0.00    -0.023 C 
HETATM    2  C   UNL     1     -20.179  -8.339  -1.945  1.00  0.00     0.014 C 
HETATM    3  C   UNL     1     -21.003  -7.283  -2.329  1.00  0.00     0.033 C 
HETATM    4  C   UNL     1     -21.069  -6.966  -3.676  1.00  0.00     0.060 A 
HETATM    5  N   UNL     1     -21.785  -5.979  -4.256  1.00  0.00    -0.341 N 
ATOM      6  HN  UNL     1     -22.431  -5.340  -3.792  1.00  0.00     0.167 HD
HETATM    7  C   UNL     1     -21.486  -6.003  -5.539  1.00  0.00     0.106 A 
HETATM    8  N   UNL     1     -20.592  -7.029  -5.798  1.00  0.00    -0.341 N 
HETATM    9  C   UNL     1     -20.348  -7.694  -4.608  1.00  0.00     0.061 A 
HETATM   10  C   UNL     1     -19.617  -8.849  -4.235  1.00  0.00     0.044 C 
HETATM   11  H   UNL     1     -20.185  -7.248  -6.698  1.00  0.00     0.167 HD
ENDROOT
BRANCH   7  12
HETATM   12  C   UNL     1     -22.015  -5.141  -6.539  1.00  0.00     0.049 C 
HETATM   13  C   UNL     1     -21.644  -5.439  -7.803  1.00  0.00     0.015 C 
BRANCH  13  14
HETATM   14  C   UNL     1     -21.930  -4.763  -9.074  1.00  0.00    -0.036 A 
HETATM   15  C   UNL     1     -23.269  -4.495  -9.363  1.00  0.00     0.012 A 
HETATM   16  C   UNL     1     -23.639  -3.846 -10.541  1.00  0.00     0.017 A 
HETATM   17  C   UNL     1     -22.662  -3.435 -11.451  1.00  0.00     0.048 A 
HETATM   18  C   UNL     1     -21.308  -3.637 -11.128  1.00  0.00     0.017 A 
HETATM   19  C   UNL     1     -20.940  -4.296  -9.944  1.00  0.00     0.012 A 
BRANCH  17  20
HETATM   20  C   UNL     1     -23.052  -2.811 -12.768  1.00  0.00     0.417 C 
HETATM   21  F   UNL     1     -24.334  -3.085 -13.143  1.00  0.00    -0.166 F 
HETATM   22  F   UNL     1     -22.947  -1.453 -12.764  1.00  0.00    -0.166 F 
HETATM   23  F   UNL     1     -22.269  -3.244 -13.795  1.00  0.00    -0.166 F 
ENDBRANCH  17  20
ENDBRANCH  13  14
ENDBRANCH   7  12
BRANCH   1  24
HETATM   24  C   UNL     1     -19.003 -10.525  -2.330  1.00  0.00    -0.017 A 
HETATM   25  C   UNL     1     -17.753 -11.158  -2.572  1.00  0.00    -0.014 A 
HETATM   26  C   UNL     1     -17.584 -12.503  -2.100  1.00  0.00     0.011 A 
HETATM   27  C   UNL     1     -18.520 -13.179  -1.324  1.00  0.00     0.001 A 
HETATM   28  C   UNL     1     -19.685 -12.537  -0.990  1.00  0.00     0.001 A 
HETATM   29  C   UNL     1     -19.922 -11.264  -1.508  1.00  0.00     0.013 A 
BRANCH  25  30
HETATM   30  C   UNL     1     -16.520 -10.588  -3.292  1.00  0.00     0.078 C 
HETATM   31  C   UNL     1     -16.012  -9.221  -2.820  1.00  0.00     0.051 C 
HETATM   32  C   UNL     1     -16.716 -10.676  -4.812  1.00  0.00     0.051 C 
BRANCH  30  33
HETATM   33  O   UNL     1     -15.397 -11.461  -3.000  1.00  0.00    -0.386 OA
HETATM   34  H   UNL     1     -14.608 -11.094  -3.430  1.00  0.00     0.211 HD
ENDBRANCH  30  33
ENDBRANCH  25  30
ENDBRANCH   1  24
TORSDOF 6
ENDMDL
MODEL 5
REMARK VINA RESULT:      -9.6      6.038     11.432
REMARK  6 active torsions:
REMARK  status: ('A' for Active; 'I' for Inactive)
REMARK    1  A    between atoms: C_2  and  O_4 
REMARK    2  A    between atoms: C_2  and  C_5 
REMARK    3  A    between atoms: C_10  and  C_11 
REMARK    4  A    between atoms: C_17  and  C_18 
REMARK    5  A    between atoms: C_19  and  C_20 
REMARK    6  A    between atoms: C_23  and  C_24 
ROOT
HETATM    1  C   UNL     1     -21.349  -5.058  -7.569  1.00  0.00    -0.023 C 
HETATM    2  C   UNL     1     -20.767  -4.250  -6.560  1.00  0.00     0.014 C 
HETATM    3  C   UNL     1     -20.338  -4.744  -5.329  1.00  0.00     0.033 C 
HETATM    4  C   UNL     1     -20.647  -6.057  -5.012  1.00  0.00     0.060 A 
HETATM    5  N   UNL     1     -20.345  -6.722  -3.876  1.00  0.00    -0.341 N 
ATOM      6  HN  UNL     1     -19.796  -6.372  -3.090  1.00  0.00     0.167 HD
HETATM    7  C   UNL     1     -20.898  -7.914  -3.981  1.00  0.00     0.106 A 
HETATM    8  N   UNL     1     -21.540  -8.032  -5.204  1.00  0.00    -0.341 N 
HETATM    9  C   UNL     1     -21.345  -6.853  -5.904  1.00  0.00     0.061 A 
HETATM   10  C   UNL     1     -21.664  -6.394  -7.206  1.00  0.00     0.044 C 
HETATM   11  H   UNL     1     -22.063  -8.837  -5.523  1.00  0.00     0.167 HD
ENDROOT
BRANCH   7  12
HETATM   12  C   UNL     1     -20.832  -8.957  -3.017  1.00  0.00     0.049 C 
HETATM   13  C   UNL     1     -22.028  -9.447  -2.625  1.00  0.00     0.015 C 
BRANCH  13  14
HETATM   14  C   UNL     1     -22.369 -10.467  -1.625  1.00  0.00    -0.036 A 
HETATM   15  C   UNL     1     -21.449 -10.680  -0.597  1.00  0.00     0.012 A 
HETATM   16  C   UNL     1     -21.691 -11.619   0.405  1.00  0.00     0.017 A 
HETATM   17  C   UNL     1     -22.878 -12.355   0.405  1.00  0.00     0.048 A 
HETATM   18  C   UNL     1     -23.839 -12.090  -0.586  1.00  0.00     0.017 A 
HETATM   19  C   UNL     1     -23.590 -11.148  -1.597  1.00  0.00     0.012 A 
BRANCH  17  20
HETATM   20  C   UNL     1     -23.113 -13.435   1.433  1.00  0.00     0.417 C 
HETATM   21  F   UNL     1     -24.130 -13.155   2.297  1.00  0.00    -0.166 F 
HETATM   22  F   UNL     1     -23.418 -14.639   0.876  1.00  0.00    -0.166 F 
HETATM   23  F   UNL     1     -22.017 -13.650   2.213  1.00  0.00    -0.166 F 
ENDBRANCH  17  20
ENDBRANCH  13  14
ENDBRANCH   7  12
BRANCH   1  24
HETATM   24  C   UNL     1     -21.410  -4.492  -8.975  1.00  0.00    -0.017 A 
HETATM   25  C   UNL     1     -22.540  -4.227  -9.797  1.00  0.00    -0.014 A 
HETATM   26  C   UNL     1     -22.300  -3.882 -11.170  1.00  0.00     0.011 A 
HETATM   27  C   UNL     1     -21.035  -3.678 -11.712  1.00  0.00     0.001 A 
HETATM   28  C   UNL     1     -19.939  -3.823 -10.899  1.00  0.00     0.001 A 
HETATM   29  C   UNL     1     -20.131  -4.247  -9.584  1.00  0.00     0.013 A 
BRANCH  25  30
HETATM   30  C   UNL     1     -24.028  -4.262  -9.412  1.00  0.00     0.078 C 
HETATM   31  C   UNL     1     -24.742  -5.613  -9.530  1.00  0.00     0.051 C 
HETATM   32  C   UNL     1     -24.774  -3.112 -10.102  1.00  0.00     0.051 C 
BRANCH  30  33
HETATM   33  O   UNL     1     -24.120  -3.979  -7.990  1.00  0.00    -0.386 OA
HETATM   34  H   UNL     1     -24.665  -3.184  -7.874  1.00  0.00     0.211 HD
ENDBRANCH  30  33
ENDBRANCH  25  30
ENDBRANCH   1  24
TORSDOF 6
ENDMDL
MODEL 6
REMARK VINA RESULT:      -9.5     16.706     18.848
REMARK  6 active torsions:
REMARK  status: ('A' for Active; 'I' for Inactive)
REMARK    1  A    between atoms: C_2  and  O_4 
REMARK    2  A    between atoms: C_2  and  C_5 
REMARK    3  A    between atoms: C_10  and  C_11 
REMARK    4  A    between atoms: C_17  and  C_18 
REMARK    5  A    between atoms: C_19  and  C_20 
REMARK    6  A    between atoms: C_23  and  C_24 
ROOT
HETATM    1  C   UNL     1     -17.456   9.811   4.551  1.00  0.00    -0.023 C 
HETATM    2  C   UNL     1     -18.285  10.568   5.416  1.00  0.00     0.014 C 
HETATM    3  C   UNL     1     -19.673  10.618   5.306  1.00  0.00     0.033 C 
HETATM    4  C   UNL     1     -20.259  10.032   4.195  1.00  0.00     0.060 A 
HETATM    5  N   UNL     1     -21.573   9.981   3.887  1.00  0.00    -0.341 N 
ATOM      6  HN  UNL     1     -22.347  10.328   4.454  1.00  0.00     0.167 HD
HETATM    7  C   UNL     1     -21.660   9.396   2.709  1.00  0.00     0.106 A 
HETATM    8  N   UNL     1     -20.397   9.040   2.264  1.00  0.00    -0.341 N 
HETATM    9  C   UNL     1     -19.482   9.402   3.238  1.00  0.00     0.061 A 
HETATM   10  C   UNL     1     -18.086   9.235   3.416  1.00  0.00     0.044 C 
HETATM   11  H   UNL     1     -20.184   8.598   1.379  1.00  0.00     0.167 HD
ENDROOT
BRANCH   7  12
HETATM   12  C   UNL     1     -22.859   9.123   1.995  1.00  0.00     0.049 C 
HETATM   13  C   UNL     1     -22.684   8.540   0.790  1.00  0.00     0.015 C 
BRANCH  13  14
HETATM   14  C   UNL     1     -23.654   8.164  -0.246  1.00  0.00    -0.036 A 
HETATM   15  C   UNL     1     -23.177   7.405  -1.315  1.00  0.00     0.012 A 
HETATM   16  C   UNL     1     -24.024   6.990  -2.342  1.00  0.00     0.017 A 
HETATM   17  C   UNL     1     -25.382   7.316  -2.306  1.00  0.00     0.048 A 
HETATM   18  C   UNL     1     -25.880   8.017  -1.193  1.00  0.00     0.017 A 
HETATM   19  C   UNL     1     -25.023   8.438  -0.164  1.00  0.00     0.012 A 
BRANCH  17  20
HETATM   20  C   UNL     1     -26.292   6.949  -3.452  1.00  0.00     0.417 C 
HETATM   21  F   UNL     1     -26.021   5.729  -3.995  1.00  0.00    -0.166 F 
HETATM   22  F   UNL     1     -27.606   6.915  -3.096  1.00  0.00    -0.166 F 
HETATM   23  F   UNL     1     -26.206   7.837  -4.482  1.00  0.00    -0.166 F 
ENDBRANCH  17  20
ENDBRANCH  13  14
ENDBRANCH   7  12
BRANCH   1  24
HETATM   24  C   UNL     1     -16.035   9.532   5.003  1.00  0.00    -0.017 A 
HETATM   25  C   UNL     1     -14.861   9.327   4.228  1.00  0.00    -0.014 A 
HETATM   26  C   UNL     1     -13.682   8.876   4.911  1.00  0.00     0.011 A 
HETATM   27  C   UNL     1     -13.585   8.739   6.292  1.00  0.00     0.001 A 
HETATM   28  C   UNL     1     -14.681   9.041   7.061  1.00  0.00     0.001 A 
HETATM   29  C   UNL     1     -15.870   9.394   6.425  1.00  0.00     0.013 A 
BRANCH  25  30
HETATM   30  C   UNL     1     -14.672   9.523   2.715  1.00  0.00     0.078 C 
HETATM   31  C   UNL     1     -15.184  10.838   2.118  1.00  0.00     0.051 C 
HETATM   32  C   UNL     1     -15.159   8.278   1.962  1.00  0.00     0.051 C 
BRANCH  30  33
HETATM   33  O   UNL     1     -13.244   9.594   2.456  1.00  0.00    -0.386 OA
HETATM   34  H   UNL     1     -12.893   8.688   2.448  1.00  0.00     0.211 HD
ENDBRANCH  30  33
ENDBRANCH  25  30
ENDBRANCH   1  24
TORSDOF 6
ENDMDL
MODEL 7
REMARK VINA RESULT:      -9.2     17.122     19.906
REMARK  6 active torsions:
REMARK  status: ('A' for Active; 'I' for Inactive)
REMARK    1  A    between atoms: C_2  and  O_4 
REMARK    2  A    between atoms: C_2  and  C_5 
REMARK    3  A    between atoms: C_10  and  C_11 
REMARK    4  A    between atoms: C_17  and  C_18 
REMARK    5  A    between atoms: C_19  and  C_20 
REMARK    6  A    between atoms: C_23  and  C_24 
ROOT
HETATM    1  C   UNL     1     -25.035   8.646   0.739  1.00  0.00    -0.023 C 
HETATM    2  C   UNL     1     -25.572   9.198   1.929  1.00  0.00     0.014 C 
HETATM    3  C   UNL     1     -24.800   9.828   2.903  1.00  0.00     0.033 C 
HETATM    4  C   UNL     1     -23.421   9.765   2.782  1.00  0.00     0.060 A 
HETATM    5  N   UNL     1     -22.496  10.287   3.616  1.00  0.00    -0.341 N 
ATOM      6  HN  UNL     1     -22.672  10.854   4.445  1.00  0.00     0.167 HD
HETATM    7  C   UNL     1     -21.319   9.919   3.148  1.00  0.00     0.106 A 
HETATM    8  N   UNL     1     -21.481   9.177   1.989  1.00  0.00    -0.341 N 
HETATM    9  C   UNL     1     -22.836   9.109   1.711  1.00  0.00     0.061 A 
HETATM   10  C   UNL     1     -23.619   8.585   0.652  1.00  0.00     0.044 C 
HETATM   11  H   UNL     1     -20.739   8.755   1.446  1.00  0.00     0.167 HD
ENDROOT
BRANCH   7  12
HETATM   12  C   UNL     1     -20.054  10.250   3.707  1.00  0.00     0.049 C 
HETATM   13  C   UNL     1     -19.093   9.318   3.534  1.00  0.00     0.015 C 
BRANCH  13  14
HETATM   14  C   UNL     1     -17.704   9.269   4.005  1.00  0.00    -0.036 A 
HETATM   15  C   UNL     1     -17.503   9.221   5.385  1.00  0.00     0.012 A 
HETATM   16  C   UNL     1     -16.220   9.160   5.928  1.00  0.00     0.017 A 
HETATM   17  C   UNL     1     -15.104   9.129   5.087  1.00  0.00     0.048 A 
HETATM   18  C   UNL     1     -15.306   9.102   3.696  1.00  0.00     0.017 A 
HETATM   19  C   UNL     1     -16.599   9.169   3.153  1.00  0.00     0.012 A 
BRANCH  17  20
HETATM   20  C   UNL     1     -13.709   9.152   5.661  1.00  0.00     0.417 C 
HETATM   21  F   UNL     1     -13.412   8.059   6.420  1.00  0.00    -0.166 F 
HETATM   22  F   UNL     1     -12.743   9.214   4.704  1.00  0.00    -0.166 F 
HETATM   23  F   UNL     1     -13.504  10.228   6.471  1.00  0.00    -0.166 F 
ENDBRANCH  17  20
ENDBRANCH  13  14
ENDBRANCH   7  12
BRANCH   1  24
HETATM   24  C   UNL     1     -25.998   8.347  -0.395  1.00  0.00    -0.017 A 
HETATM   25  C   UNL     1     -25.738   7.822  -1.691  1.00  0.00    -0.014 A 
HETATM   26  C   UNL     1     -26.813   7.832  -2.642  1.00  0.00     0.011 A 
HETATM   27  C   UNL     1     -28.116   8.213  -2.341  1.00  0.00     0.001 A 
HETATM   28  C   UNL     1     -28.405   8.616  -1.062  1.00  0.00     0.001 A 
HETATM   29  C   UNL     1     -27.366   8.707  -0.137  1.00  0.00     0.013 A 
BRANCH  25  30
HETATM   30  C   UNL     1     -24.427   7.232  -2.233  1.00  0.00     0.078 C 
HETATM   31  C   UNL     1     -23.806   6.078  -1.439  1.00  0.00     0.051 C 
HETATM   32  C   UNL     1     -23.436   8.361  -2.549  1.00  0.00     0.051 C 
BRANCH  30  33
HETATM   33  O   UNL     1     -24.720   6.611  -3.514  1.00  0.00    -0.386 OA
HETATM   34  H   UNL     1     -25.477   7.075  -3.908  1.00  0.00     0.211 HD
ENDBRANCH  30  33
ENDBRANCH  25  30
ENDBRANCH   1  24
TORSDOF 6
ENDMDL
MODEL 8
REMARK VINA RESULT:      -8.9      5.996     11.285
REMARK  6 active torsions:
REMARK  status: ('A' for Active; 'I' for Inactive)
REMARK    1  A    between atoms: C_2  and  O_4 
REMARK    2  A    between atoms: C_2  and  C_5 
REMARK    3  A    between atoms: C_10  and  C_11 
REMARK    4  A    between atoms: C_17  and  C_18 
REMARK    5  A    between atoms: C_19  and  C_20 
REMARK    6  A    between atoms: C_23  and  C_24 
ROOT
HETATM    1  C   UNL     1     -22.249  -4.354  -7.723  1.00  0.00    -0.023 C 
HETATM    2  C   UNL     1     -20.983  -3.858  -7.321  1.00  0.00     0.014 C 
HETATM    3  C   UNL     1     -20.267  -4.363  -6.238  1.00  0.00     0.033 C 
HETATM    4  C   UNL     1     -20.895  -5.283  -5.413  1.00  0.00     0.060 A 
HETATM    5  N   UNL     1     -20.392  -5.878  -4.310  1.00  0.00    -0.341 N 
ATOM      6  HN  UNL     1     -19.448  -5.777  -3.939  1.00  0.00     0.167 HD
HETATM    7  C   UNL     1     -21.363  -6.615  -3.807  1.00  0.00     0.106 A 
HETATM    8  N   UNL     1     -22.492  -6.518  -4.603  1.00  0.00    -0.341 N 
HETATM    9  C   UNL     1     -22.190  -5.696  -5.676  1.00  0.00     0.061 A 
HETATM   10  C   UNL     1     -22.871  -5.285  -6.849  1.00  0.00     0.044 C 
HETATM   11  H   UNL     1     -23.382  -6.966  -4.426  1.00  0.00     0.167 HD
ENDROOT
BRANCH   7  12
HETATM   12  C   UNL     1     -21.281  -7.427  -2.643  1.00  0.00     0.049 C 
HETATM   13  C   UNL     1     -21.856  -8.643  -2.754  1.00  0.00     0.015 C 
BRANCH  13  14
HETATM   14  C   UNL     1     -22.025  -9.721  -1.773  1.00  0.00    -0.036 A 
HETATM   15  C   UNL     1     -22.833 -10.797  -2.145  1.00  0.00     0.012 A 
HETATM   16  C   UNL     1     -23.043 -11.874  -1.285  1.00  0.00     0.017 A 
HETATM   17  C   UNL     1     -22.427 -11.901  -0.030  1.00  0.00     0.048 A 
HETATM   18  C   UNL     1     -21.554 -10.855   0.317  1.00  0.00     0.017 A 
HETATM   19  C   UNL     1     -21.349  -9.770  -0.549  1.00  0.00     0.012 A 
BRANCH  17  20
HETATM   20  C   UNL     1     -22.715 -13.017   0.943  1.00  0.00     0.417 C 
HETATM   21  F   UNL     1     -23.886 -12.859   1.624  1.00  0.00    -0.166 F 
HETATM   22  F   UNL     1     -22.795 -14.237   0.344  1.00  0.00    -0.166 F 
HETATM   23  F   UNL     1     -21.748 -13.131   1.896  1.00  0.00    -0.166 F 
ENDBRANCH  17  20
ENDBRANCH  13  14
ENDBRANCH   7  12
BRANCH   1  24
HETATM   24  C   UNL     1     -22.735  -3.998  -9.116  1.00  0.00    -0.017 A 
HETATM   25  C   UNL     1     -21.988  -3.744 -10.299  1.00  0.00    -0.014 A 
HETATM   26  C   UNL     1     -22.694  -3.225 -11.435  1.00  0.00     0.011 A 
HETATM   27  C   UNL     1     -24.076  -3.066 -11.488  1.00  0.00     0.001 A 
HETATM   28  C   UNL     1     -24.820  -3.412 -10.388  1.00  0.00     0.001 A 
HETATM   29  C   UNL     1     -24.158  -3.833  -9.236  1.00  0.00     0.013 A 
BRANCH  25  30
HETATM   30  C   UNL     1     -20.483  -3.951 -10.538  1.00  0.00     0.078 C 
HETATM   31  C   UNL     1     -19.910  -5.329 -10.190  1.00  0.00     0.051 C 
HETATM   32  C   UNL     1     -19.692  -2.786  -9.928  1.00  0.00     0.051 C 
BRANCH  30  33
HETATM   33  O   UNL     1     -20.250  -3.864 -11.969  1.00  0.00    -0.386 OA
HETATM   34  H   UNL     1     -19.555  -3.204 -12.123  1.00  0.00     0.211 HD
ENDBRANCH  30  33
ENDBRANCH  25  30
ENDBRANCH   1  24
TORSDOF 6
ENDMDL
MODEL 9
REMARK VINA RESULT:      -8.6      1.973      3.384
REMARK  6 active torsions:
REMARK  status: ('A' for Active; 'I' for Inactive)
REMARK    1  A    between atoms: C_2  and  O_4 
REMARK    2  A    between atoms: C_2  and  C_5 
REMARK    3  A    between atoms: C_10  and  C_11 
REMARK    4  A    between atoms: C_17  and  C_18 
REMARK    5  A    between atoms: C_19  and  C_20 
REMARK    6  A    between atoms: C_23  and  C_24 
ROOT
HETATM    1  C   UNL     1     -19.141 -11.891  -0.088  1.00  0.00    -0.023 C 
HETATM    2  C   UNL     1     -19.982 -11.214   0.831  1.00  0.00     0.014 C 
HETATM    3  C   UNL     1     -20.854 -10.190   0.468  1.00  0.00     0.033 C 
HETATM    4  C   UNL     1     -20.776  -9.696  -0.825  1.00  0.00     0.060 A 
HETATM    5  N   UNL     1     -21.509  -8.703  -1.373  1.00  0.00    -0.341 N 
ATOM      6  HN  UNL     1     -22.273  -8.192  -0.930  1.00  0.00     0.167 HD
HETATM    7  C   UNL     1     -21.043  -8.523  -2.593  1.00  0.00     0.106 A 
HETATM    8  N   UNL     1     -20.021  -9.423  -2.847  1.00  0.00    -0.341 N 
HETATM    9  C   UNL     1     -19.867 -10.223  -1.727  1.00  0.00     0.061 A 
HETATM   10  C   UNL     1     -19.075 -11.351  -1.400  1.00  0.00     0.044 C 
HETATM   11  H   UNL     1     -19.479  -9.480  -3.700  1.00  0.00     0.167 HD
ENDROOT
BRANCH   7  12
HETATM   12  C   UNL     1     -21.523  -7.580  -3.543  1.00  0.00     0.049 C 
HETATM   13  C   UNL     1     -20.795  -7.491  -4.676  1.00  0.00     0.015 C 
BRANCH  13  14
HETATM   14  C   UNL     1     -20.934  -6.611  -5.843  1.00  0.00    -0.036 A 
HETATM   15  C   UNL     1     -22.117  -5.879  -5.948  1.00  0.00     0.012 A 
HETATM   16  C   UNL     1     -22.336  -5.007  -7.015  1.00  0.00     0.017 A 
HETATM   17  C   UNL     1     -21.354  -4.839  -7.995  1.00  0.00     0.048 A 
HETATM   18  C   UNL     1     -20.132  -5.518  -7.852  1.00  0.00     0.017 A 
HETATM   19  C   UNL     1     -19.917  -6.399  -6.780  1.00  0.00     0.012 A 
BRANCH  17  20
HETATM   20  C   UNL     1     -21.613  -3.968  -9.199  1.00  0.00     0.417 C 
HETATM   21  F   UNL     1     -22.440  -2.914  -8.944  1.00  0.00    -0.166 F 
HETATM   22  F   UNL     1     -20.475  -3.430  -9.719  1.00  0.00    -0.166 F 
HETATM   23  F   UNL     1     -22.200  -4.657 -10.217  1.00  0.00    -0.166 F 
ENDBRANCH  17  20
ENDBRANCH  13  14
ENDBRANCH   7  12
BRANCH   1  24
HETATM   24  C   UNL     1     -18.544 -13.216   0.349  1.00  0.00    -0.017 A 
HETATM   25  C   UNL     1     -17.181 -13.585   0.512  1.00  0.00    -0.014 A 
HETATM   26  C   UNL     1     -16.889 -14.972   0.738  1.00  0.00     0.011 A 
HETATM   27  C   UNL     1     -17.859 -15.952   0.924  1.00  0.00     0.001 A 
HETATM   28  C   UNL     1     -19.180 -15.587   0.879  1.00  0.00     0.001 A 
HETATM   29  C   UNL     1     -19.501 -14.266   0.569  1.00  0.00     0.013 A 
BRANCH  25  30
HETATM   30  C   UNL     1     -15.938 -12.682   0.475  1.00  0.00     0.078 C 
HETATM   31  C   UNL     1     -15.682 -11.909  -0.824  1.00  0.00     0.051 C 
HETATM   32  C   UNL     1     -14.713 -13.458   0.977  1.00  0.00     0.051 C 
BRANCH  30  33
HETATM   33  O   UNL     1     -16.140 -11.617   1.442  1.00  0.00    -0.386 OA
HETATM   34  H   UNL     1     -17.095 -11.496   1.564  1.00  0.00     0.211 HD
ENDBRANCH  30  33
ENDBRANCH  25  30
ENDBRANCH   1  24
TORSDOF 6
ENDMDL
