REMARK  6 active torsions:
REMARK  status: ('A' for Active; 'I' for Inactive)
REMARK    1  A    between atoms: C_2  and  O_4 
REMARK    2  A    between atoms: C_2  and  C_5 
REMARK    3  A    between atoms: C_10  and  C_11 
REMARK    4  A    between atoms: C_17  and  C_18 
REMARK    5  A    between atoms: C_19  and  C_20 
REMARK    6  A    between atoms: C_23  and  C_24 
ROOT
HETATM    1  C   UNL     1       3.113  -3.162   0.020  1.00  0.00    -0.023 C 
HETATM    2  C   UNL     1       4.390  -2.884  -0.531  1.00  0.00     0.014 C 
HETATM    3  C   UNL     1       4.814  -3.369  -1.764  1.00  0.00     0.033 C 
HETATM    4  C   UNL     1       4.021  -4.315  -2.394  1.00  0.00     0.060 A 
HETATM    5  N   UNL     1       4.266  -4.934  -3.569  1.00  0.00    -0.341 N 
ATOM      6  HN  UNL     1       5.042  -4.750  -4.205  1.00  0.00     0.167 HD
HETATM    7  C   UNL     1       3.309  -5.820  -3.733  1.00  0.00     0.106 A 
HETATM    8  N   UNL     1       2.421  -5.761  -2.668  1.00  0.00    -0.341 N 
HETATM    9  C   UNL     1       2.831  -4.740  -1.823  1.00  0.00     0.061 A 
HETATM   10  C   UNL     1       2.319  -4.134  -0.650  1.00  0.00     0.044 C 
HETATM   11  H   UNL     1       1.618  -6.358  -2.531  1.00  0.00     0.167 HD
ENDROOT
BRANCH   7  12
HETATM   12  C   UNL     1       3.201  -6.731  -4.825  1.00  0.00     0.049 C 
HETATM   13  C   UNL     1       4.047  -6.487  -5.845  1.00  0.00     0.015 C 
BRANCH  13  14
HETATM   14  C   UNL     1       4.193  -7.140  -7.148  1.00  0.00    -0.036 A 
HETATM   15  C   UNL     1       4.603  -6.328  -8.218  1.00  0.00     0.012 A 
HETATM   16  C   UNL     1       4.767  -6.850  -9.502  1.00  0.00     0.017 A 
HETATM   17  C   UNL     1       4.537  -8.208  -9.740  1.00  0.00     0.048 A 
HETATM   18  C   UNL     1       4.198  -9.036  -8.654  1.00  0.00     0.017 A 
HETATM   19  C   UNL     1       4.030  -8.506  -7.366  1.00  0.00     0.012 A 
BRANCH  17  20
HETATM   20  C   UNL     1       4.619  -8.770 -11.137  1.00  0.00     0.417 C 
HETATM   21  F   UNL     1       4.908  -7.834 -12.086  1.00  0.00    -0.166 F 
HETATM   22  F   UNL     1       5.569  -9.736 -11.264  1.00  0.00    -0.166 F 
HETATM   23  F   UNL     1       3.447  -9.342 -11.531  1.00  0.00    -0.166 F 
ENDBRANCH  17  20
ENDBRANCH  13  14
ENDBRANCH   7  12
BRANCH   1  24
HETATM   24  C   UNL     1       2.640  -2.278   1.154  1.00  0.00    -0.017 A 
HETATM   25  C   UNL     1       1.772  -2.583   2.238  1.00  0.00    -0.014 A 
HETATM   26  C   UNL     1       1.346  -1.501   3.076  1.00  0.00     0.011 A 
HETATM   27  C   UNL     1       1.800  -0.189   2.941  1.00  0.00     0.001 A 
HETATM   28  C   UNL     1       2.719   0.094   1.963  1.00  0.00     0.001 A 
HETATM   29  C   UNL     1       3.101  -0.920   1.088  1.00  0.00     0.013 A 
BRANCH  25  30
HETATM   30  C   UNL     1       1.222  -3.962   2.648  1.00  0.00     0.078 C 
HETATM   31  C   UNL     1      -0.300  -3.994   2.425  1.00  0.00     0.051 C 
HETATM   32  C   UNL     1       1.546  -4.290   4.121  1.00  0.00     0.051 C 
BRANCH  30  33
HETATM   33  O   UNL     1       1.791  -5.043   1.916  1.00  0.00    -0.386 OA
HETATM   34  H   UNL     1       1.369  -5.865   2.214  1.00  0.00     0.211 HD
ENDBRANCH  30  33
ENDBRANCH  25  30
ENDBRANCH   1  24
TORSDOF 6
