MODEL 1
REMARK VINA RESULT:     -10.8      0.000      0.000
REMARK  6 active torsions:
REMARK  status: ('A' for Active; 'I' for Inactive)
REMARK    1  A    between atoms: C_2  and  O_4 
REMARK    2  A    between atoms: C_2  and  C_5 
REMARK    3  A    between atoms: C_10  and  C_11 
REMARK    4  A    between atoms: C_17  and  C_18 
REMARK    5  A    between atoms: C_19  and  C_20 
REMARK    6  A    between atoms: C_23  and  C_24 
ROOT
HETATM    1  C   UNL     1     -21.692  -9.655  -0.860  1.00  0.00    -0.023 C 
HETATM    2  C   UNL     1     -22.058  -8.481  -0.155  1.00  0.00     0.014 C 
HETATM    3  C   UNL     1     -22.181  -7.233  -0.757  1.00  0.00     0.033 C 
HETATM    4  C   UNL     1     -21.747  -7.101  -2.066  1.00  0.00     0.060 A 
HETATM    5  N   UNL     1     -21.745  -5.978  -2.817  1.00  0.00    -0.341 N 
ATOM      6  HN  UNL     1     -22.125  -5.069  -2.555  1.00  0.00     0.167 HD
HETATM    7  C   UNL     1     -21.157  -6.287  -3.951  1.00  0.00     0.106 A 
HETATM    8  N   UNL     1     -20.795  -7.626  -3.949  1.00  0.00    -0.341 N 
HETATM    9  C   UNL     1     -21.233  -8.187  -2.758  1.00  0.00     0.061 A 
HETATM   10  C   UNL     1     -21.254  -9.490  -2.204  1.00  0.00     0.044 C 
HETATM   11  H   UNL     1     -20.297  -8.108  -4.684  1.00  0.00     0.167 HD
ENDROOT
BRANCH   7  12
HETATM   12  C   UNL     1     -20.899  -5.383  -5.024  1.00  0.00     0.049 C 
HETATM   13  C   UNL     1     -21.559  -5.664  -6.165  1.00  0.00     0.015 C 
BRANCH  13  14
HETATM   14  C   UNL     1     -21.509  -5.028  -7.484  1.00  0.00    -0.036 A 
HETATM   15  C   UNL     1     -22.686  -4.402  -7.927  1.00  0.00     0.012 A 
HETATM   16  C   UNL     1     -22.746  -3.772  -9.171  1.00  0.00     0.017 A 
HETATM   17  C   UNL     1     -21.619  -3.742  -9.996  1.00  0.00     0.048 A 
HETATM   18  C   UNL     1     -20.419  -4.304  -9.521  1.00  0.00     0.017 A 
HETATM   19  C   UNL     1     -20.364  -4.940  -8.272  1.00  0.00     0.012 A 
BRANCH  17  20
HETATM   20  C   UNL     1     -21.693  -3.147 -11.380  1.00  0.00     0.417 C 
HETATM   21  F   UNL     1     -21.670  -4.079 -12.376  1.00  0.00    -0.166 F 
HETATM   22  F   UNL     1     -22.820  -2.413 -11.581  1.00  0.00    -0.166 F 
HETATM   23  F   UNL     1     -20.649  -2.311 -11.637  1.00  0.00    -0.166 F 
ENDBRANCH  17  20
ENDBRANCH  13  14
ENDBRANCH   7  12
BRANCH   1  24
HETATM   24  C   UNL     1     -21.969 -10.983  -0.188  1.00  0.00    -0.017 A 
HETATM   25  C   UNL     1     -21.078 -12.049   0.112  1.00  0.00    -0.014 A 
HETATM   26  C   UNL     1     -21.644 -13.275   0.595  1.00  0.00     0.011 A 
HETATM   27  C   UNL     1     -23.000 -13.450   0.867  1.00  0.00     0.001 A 
HETATM   28  C   UNL     1     -23.853 -12.392   0.680  1.00  0.00     0.001 A 
HETATM   29  C   UNL     1     -23.347 -11.209   0.146  1.00  0.00     0.013 A 
BRANCH  25  30
HETATM   30  C   UNL     1     -19.543 -12.058  -0.007  1.00  0.00     0.078 C 
HETATM   31  C   UNL     1     -19.140 -11.808  -1.471  1.00  0.00     0.051 C 
HETATM   32  C   UNL     1     -18.941 -13.392   0.485  1.00  0.00     0.051 C 
BRANCH  30  33
HETATM   33  O   UNL     1     -18.903 -11.070   0.794  1.00  0.00    -0.386 OA
HETATM   34  H   UNL     1     -19.580 -10.642   1.343  1.00  0.00     0.211 HD
ENDBRANCH  30  33
ENDBRANCH  25  30
ENDBRANCH   1  24
TORSDOF 6
ENDMDL
MODEL 2
REMARK VINA RESULT:     -10.8      2.308      3.700
REMARK  6 active torsions:
REMARK  status: ('A' for Active; 'I' for Inactive)
REMARK    1  A    between atoms: C_2  and  O_4 
REMARK    2  A    between atoms: C_2  and  C_5 
REMARK    3  A    between atoms: C_10  and  C_11 
REMARK    4  A    between atoms: C_17  and  C_18 
REMARK    5  A    between atoms: C_19  and  C_20 
REMARK    6  A    between atoms: C_23  and  C_24 
ROOT
HETATM    1  C   UNL     1     -21.457  -8.149  -3.186  1.00  0.00    -0.023 C 
HETATM    2  C   UNL     1     -20.306  -8.742  -3.765  1.00  0.00     0.014 C 
HETATM    3  C   UNL     1     -19.660  -8.224  -4.883  1.00  0.00     0.033 C 
HETATM    4  C   UNL     1     -20.278  -7.189  -5.567  1.00  0.00     0.060 A 
HETATM    5  N   UNL     1     -19.841  -6.574  -6.686  1.00  0.00    -0.341 N 
ATOM      6  HN  UNL     1     -18.953  -6.734  -7.163  1.00  0.00     0.167 HD
HETATM    7  C   UNL     1     -20.782  -5.728  -7.042  1.00  0.00     0.106 A 
HETATM    8  N   UNL     1     -21.830  -5.777  -6.134  1.00  0.00    -0.341 N 
HETATM    9  C   UNL     1     -21.488  -6.671  -5.130  1.00  0.00     0.061 A 
HETATM   10  C   UNL     1     -22.069  -7.086  -3.907  1.00  0.00     0.044 C 
HETATM   11  H   UNL     1     -22.692  -5.254  -6.194  1.00  0.00     0.167 HD
ENDROOT
BRANCH   7  12
HETATM   12  C   UNL     1     -20.755  -4.897  -8.201  1.00  0.00     0.049 C 
HETATM   13  C   UNL     1     -21.827  -5.026  -9.008  1.00  0.00     0.015 C 
BRANCH  13  14
HETATM   14  C   UNL     1     -22.133  -4.411 -10.302  1.00  0.00    -0.036 A 
HETATM   15  C   UNL     1     -23.384  -4.714 -10.864  1.00  0.00     0.012 A 
HETATM   16  C   UNL     1     -23.771  -4.185 -12.096  1.00  0.00     0.017 A 
HETATM   17  C   UNL     1     -22.915  -3.323 -12.788  1.00  0.00     0.048 A 
HETATM   18  C   UNL     1     -21.694  -2.961 -12.191  1.00  0.00     0.017 A 
HETATM   19  C   UNL     1     -21.306  -3.499 -10.955  1.00  0.00     0.012 A 
BRANCH  17  20
HETATM   20  C   UNL     1     -23.278  -2.817 -14.162  1.00  0.00     0.417 C 
HETATM   21  F   UNL     1     -22.198  -2.601 -14.967  1.00  0.00    -0.166 F 
HETATM   22  F   UNL     1     -24.088  -3.671 -14.844  1.00  0.00    -0.166 F 
HETATM   23  F   UNL     1     -23.942  -1.628 -14.113  1.00  0.00    -0.166 F 
ENDBRANCH  17  20
ENDBRANCH  13  14
ENDBRANCH   7  12
BRANCH   1  24
HETATM   24  C   UNL     1     -21.822  -8.574  -1.779  1.00  0.00    -0.017 A 
HETATM   25  C   UNL     1     -22.362  -9.805  -1.317  1.00  0.00    -0.014 A 
HETATM   26  C   UNL     1     -22.782  -9.877   0.052  1.00  0.00     0.011 A 
HETATM   27  C   UNL     1     -22.612  -8.843   0.972  1.00  0.00     0.001 A 
HETATM   28  C   UNL     1     -21.995  -7.689   0.560  1.00  0.00     0.001 A 
HETATM   29  C   UNL     1     -21.638  -7.560  -0.780  1.00  0.00     0.013 A 
BRANCH  25  30
HETATM   30  C   UNL     1     -22.553 -11.111  -2.112  1.00  0.00     0.078 C 
HETATM   31  C   UNL     1     -23.597 -11.993  -1.407  1.00  0.00     0.051 C 
HETATM   32  C   UNL     1     -21.226 -11.884  -2.265  1.00  0.00     0.051 C 
BRANCH  30  33
HETATM   33  O   UNL     1     -22.992 -10.904  -3.451  1.00  0.00    -0.386 OA
HETATM   34  H   UNL     1     -23.404 -11.725  -3.764  1.00  0.00     0.211 HD
ENDBRANCH  30  33
ENDBRANCH  25  30
ENDBRANCH   1  24
TORSDOF 6
ENDMDL
MODEL 3
REMARK VINA RESULT:     -10.7      1.489      2.167
REMARK  6 active torsions:
REMARK  status: ('A' for Active; 'I' for Inactive)
REMARK    1  A    between atoms: C_2  and  O_4 
REMARK    2  A    between atoms: C_2  and  C_5 
REMARK    3  A    between atoms: C_10  and  C_11 
REMARK    4  A    between atoms: C_17  and  C_18 
REMARK    5  A    between atoms: C_19  and  C_20 
REMARK    6  A    between atoms: C_23  and  C_24 
ROOT
HETATM    1  C   UNL     1     -21.495  -8.755  -2.446  1.00  0.00    -0.023 C 
HETATM    2  C   UNL     1     -21.516  -7.422  -1.960  1.00  0.00     0.014 C 
HETATM    3  C   UNL     1     -21.590  -6.306  -2.788  1.00  0.00     0.033 C 
HETATM    4  C   UNL     1     -21.451  -6.504  -4.153  1.00  0.00     0.060 A 
HETATM    5  N   UNL     1     -21.457  -5.560  -5.119  1.00  0.00    -0.341 N 
ATOM      6  HN  UNL     1     -21.631  -4.562  -4.996  1.00  0.00     0.167 HD
HETATM    7  C   UNL     1     -21.195  -6.178  -6.249  1.00  0.00     0.106 A 
HETATM    8  N   UNL     1     -21.041  -7.538  -6.020  1.00  0.00    -0.341 N 
HETATM    9  C   UNL     1     -21.273  -7.776  -4.673  1.00  0.00     0.061 A 
HETATM   10  C   UNL     1     -21.356  -8.927  -3.851  1.00  0.00     0.044 C 
HETATM   11  H   UNL     1     -20.800  -8.233  -6.712  1.00  0.00     0.167 HD
ENDROOT
BRANCH   7  12
HETATM   12  C   UNL     1     -21.061  -5.553  -7.524  1.00  0.00     0.049 C 
HETATM   13  C   UNL     1     -22.209  -5.064  -8.032  1.00  0.00     0.015 C 
BRANCH  13  14
HETATM   14  C   UNL     1     -22.493  -4.427  -9.320  1.00  0.00    -0.036 A 
HETATM   15  C   UNL     1     -23.822  -4.034  -9.550  1.00  0.00     0.012 A 
HETATM   16  C   UNL     1     -24.200  -3.423 -10.747  1.00  0.00     0.017 A 
HETATM   17  C   UNL     1     -23.247  -3.179 -11.739  1.00  0.00     0.048 A 
HETATM   18  C   UNL     1     -21.903  -3.505 -11.480  1.00  0.00     0.017 A 
HETATM   19  C   UNL     1     -21.528  -4.123 -10.277  1.00  0.00     0.012 A 
BRANCH  17  20
HETATM   20  C   UNL     1     -23.653  -2.606 -13.074  1.00  0.00     0.417 C 
HETATM   21  F   UNL     1     -23.379  -3.427 -14.127  1.00  0.00    -0.166 F 
HETATM   22  F   UNL     1     -24.984  -2.334 -13.149  1.00  0.00    -0.166 F 
HETATM   23  F   UNL     1     -23.014  -1.434 -13.346  1.00  0.00    -0.166 F 
ENDBRANCH  17  20
ENDBRANCH  13  14
ENDBRANCH   7  12
BRANCH   1  24
HETATM   24  C   UNL     1     -21.801  -9.858  -1.456  1.00  0.00    -0.017 A 
HETATM   25  C   UNL     1     -21.039 -11.010  -1.119  1.00  0.00    -0.014 A 
HETATM   26  C   UNL     1     -21.651 -11.991  -0.273  1.00  0.00     0.011 A 
HETATM   27  C   UNL     1     -22.912 -11.841   0.304  1.00  0.00     0.001 A 
HETATM   28  C   UNL     1     -23.612 -10.685   0.069  1.00  0.00     0.001 A 
HETATM   29  C   UNL     1     -23.075  -9.741  -0.804  1.00  0.00     0.013 A 
BRANCH  25  30
HETATM   30  C   UNL     1     -19.598 -11.346  -1.548  1.00  0.00     0.078 C 
HETATM   31  C   UNL     1     -19.630 -12.221  -2.813  1.00  0.00     0.051 C 
HETATM   32  C   UNL     1     -18.825 -12.071  -0.426  1.00  0.00     0.051 C 
BRANCH  30  33
HETATM   33  O   UNL     1     -18.805 -10.198  -1.833  1.00  0.00    -0.386 OA
HETATM   34  H   UNL     1     -18.929  -9.971  -2.769  1.00  0.00     0.211 HD
ENDBRANCH  30  33
ENDBRANCH  25  30
ENDBRANCH   1  24
TORSDOF 6
ENDMDL
MODEL 4
REMARK VINA RESULT:     -10.3      1.280      2.474
REMARK  6 active torsions:
REMARK  status: ('A' for Active; 'I' for Inactive)
REMARK    1  A    between atoms: C_2  and  O_4 
REMARK    2  A    between atoms: C_2  and  C_5 
REMARK    3  A    between atoms: C_10  and  C_11 
REMARK    4  A    between atoms: C_17  and  C_18 
REMARK    5  A    between atoms: C_19  and  C_20 
REMARK    6  A    between atoms: C_23  and  C_24 
ROOT
HETATM    1  C   UNL     1     -20.740  -9.827  -1.312  1.00  0.00    -0.023 C 
HETATM    2  C   UNL     1     -21.297  -8.793  -0.518  1.00  0.00     0.014 C 
HETATM    3  C   UNL     1     -21.703  -7.566  -1.033  1.00  0.00     0.033 C 
HETATM    4  C   UNL     1     -21.376  -7.277  -2.348  1.00  0.00     0.060 A 
HETATM    5  N   UNL     1     -21.642  -6.139  -3.025  1.00  0.00    -0.341 N 
ATOM      6  HN  UNL     1     -22.183  -5.342  -2.689  1.00  0.00     0.167 HD
HETATM    7  C   UNL     1     -21.066  -6.258  -4.200  1.00  0.00     0.106 A 
HETATM    8  N   UNL     1     -20.441  -7.493  -4.299  1.00  0.00    -0.341 N 
HETATM    9  C   UNL     1     -20.692  -8.196  -3.129  1.00  0.00     0.061 A 
HETATM   10  C   UNL     1     -20.418  -9.504  -2.660  1.00  0.00     0.044 C 
HETATM   11  H   UNL     1     -19.897  -7.822  -5.084  1.00  0.00     0.167 HD
ENDROOT
BRANCH   7  12
HETATM   12  C   UNL     1     -21.056  -5.264  -5.223  1.00  0.00     0.049 C 
HETATM   13  C   UNL     1     -21.557  -5.670  -6.406  1.00  0.00     0.015 C 
BRANCH  13  14
HETATM   14  C   UNL     1     -21.655  -4.981  -7.694  1.00  0.00    -0.036 A 
HETATM   15  C   UNL     1     -20.544  -5.078  -8.548  1.00  0.00     0.012 A 
HETATM   16  C   UNL     1     -20.532  -4.454  -9.796  1.00  0.00     0.017 A 
HETATM   17  C   UNL     1     -21.645  -3.726 -10.225  1.00  0.00     0.048 A 
HETATM   18  C   UNL     1     -22.786  -3.690  -9.402  1.00  0.00     0.017 A 
HETATM   19  C   UNL     1     -22.792  -4.315  -8.147  1.00  0.00     0.012 A 
BRANCH  17  20
HETATM   20  C   UNL     1     -21.615  -2.969 -11.529  1.00  0.00     0.417 C 
HETATM   21  F   UNL     1     -22.684  -2.141 -11.704  1.00  0.00    -0.166 F 
HETATM   22  F   UNL     1     -20.510  -2.185 -11.660  1.00  0.00    -0.166 F 
HETATM   23  F   UNL     1     -21.615  -3.801 -12.607  1.00  0.00    -0.166 F 
ENDBRANCH  17  20
ENDBRANCH  13  14
ENDBRANCH   7  12
BRANCH   1  24
HETATM   24  C   UNL     1     -20.706 -11.218  -0.715  1.00  0.00    -0.017 A 
HETATM   25  C   UNL     1     -21.778 -12.107  -0.430  1.00  0.00    -0.014 A 
HETATM   26  C   UNL     1     -21.477 -13.300   0.304  1.00  0.00     0.011 A 
HETATM   27  C   UNL     1     -20.188 -13.678   0.678  1.00  0.00     0.001 A 
HETATM   28  C   UNL     1     -19.135 -12.878   0.316  1.00  0.00     0.001 A 
HETATM   29  C   UNL     1     -19.399 -11.677  -0.338  1.00  0.00     0.013 A 
BRANCH  25  30
HETATM   30  C   UNL     1     -23.259 -11.958  -0.827  1.00  0.00     0.078 C 
HETATM   31  C   UNL     1     -23.356 -11.582  -2.315  1.00  0.00     0.051 C 
HETATM   32  C   UNL     1     -23.975 -10.895   0.033  1.00  0.00     0.051 C 
BRANCH  30  33
HETATM   33  O   UNL     1     -24.024 -13.142  -0.627  1.00  0.00    -0.386 OA
HETATM   34  H   UNL     1     -24.698 -12.957   0.048  1.00  0.00     0.211 HD
ENDBRANCH  30  33
ENDBRANCH  25  30
ENDBRANCH   1  24
TORSDOF 6
ENDMDL
MODEL 5
REMARK VINA RESULT:     -10.1      1.874      3.180
REMARK  6 active torsions:
REMARK  status: ('A' for Active; 'I' for Inactive)
REMARK    1  A    between atoms: C_2  and  O_4 
REMARK    2  A    between atoms: C_2  and  C_5 
REMARK    3  A    between atoms: C_10  and  C_11 
REMARK    4  A    between atoms: C_17  and  C_18 
REMARK    5  A    between atoms: C_19  and  C_20 
REMARK    6  A    between atoms: C_23  and  C_24 
ROOT
HETATM    1  C   UNL     1     -20.089  -8.940  -2.840  1.00  0.00    -0.023 C 
HETATM    2  C   UNL     1     -20.748  -7.920  -2.108  1.00  0.00     0.014 C 
HETATM    3  C   UNL     1     -21.319  -6.798  -2.701  1.00  0.00     0.033 C 
HETATM    4  C   UNL     1     -21.069  -6.581  -4.046  1.00  0.00     0.060 A 
HETATM    5  N   UNL     1     -21.496  -5.543  -4.798  1.00  0.00    -0.341 N 
ATOM      6  HN  UNL     1     -22.123  -4.794  -4.505  1.00  0.00     0.167 HD
HETATM    7  C   UNL     1     -20.944  -5.687  -5.983  1.00  0.00     0.106 A 
HETATM    8  N   UNL     1     -20.172  -6.840  -6.009  1.00  0.00    -0.341 N 
HETATM    9  C   UNL     1     -20.298  -7.470  -4.780  1.00  0.00     0.061 A 
HETATM   10  C   UNL     1     -19.850  -8.691  -4.220  1.00  0.00     0.044 C 
HETATM   11  H   UNL     1     -19.614  -7.163  -6.787  1.00  0.00     0.167 HD
ENDROOT
BRANCH   7  12
HETATM   12  C   UNL     1     -21.088  -4.786  -7.079  1.00  0.00     0.049 C 
HETATM   13  C   UNL     1     -21.781  -5.280  -8.124  1.00  0.00     0.015 C 
BRANCH  13  14
HETATM   14  C   UNL     1     -22.079  -4.704  -9.437  1.00  0.00    -0.036 A 
HETATM   15  C   UNL     1     -23.433  -4.477  -9.734  1.00  0.00     0.012 A 
HETATM   16  C   UNL     1     -23.825  -3.936 -10.960  1.00  0.00     0.017 A 
HETATM   17  C   UNL     1     -22.862  -3.595 -11.914  1.00  0.00     0.048 A 
HETATM   18  C   UNL     1     -21.503  -3.754 -11.588  1.00  0.00     0.017 A 
HETATM   19  C   UNL     1     -21.114  -4.302 -10.357  1.00  0.00     0.012 A 
BRANCH  17  20
HETATM   20  C   UNL     1     -23.272  -3.097 -13.277  1.00  0.00     0.417 C 
HETATM   21  F   UNL     1     -23.876  -1.875 -13.253  1.00  0.00    -0.166 F 
HETATM   22  F   UNL     1     -22.222  -2.978 -14.135  1.00  0.00    -0.166 F 
HETATM   23  F   UNL     1     -24.160  -3.933 -13.885  1.00  0.00    -0.166 F 
ENDBRANCH  17  20
ENDBRANCH  13  14
ENDBRANCH   7  12
BRANCH   1  24
HETATM   24  C   UNL     1     -19.864 -10.262  -2.139  1.00  0.00    -0.017 A 
HETATM   25  C   UNL     1     -20.813 -11.185  -1.621  1.00  0.00    -0.014 A 
HETATM   26  C   UNL     1     -20.320 -12.282  -0.841  1.00  0.00     0.011 A 
HETATM   27  C   UNL     1     -18.964 -12.540  -0.634  1.00  0.00     0.001 A 
HETATM   28  C   UNL     1     -18.038 -11.713  -1.217  1.00  0.00     0.001 A 
HETATM   29  C   UNL     1     -18.485 -10.599  -1.924  1.00  0.00     0.013 A 
BRANCH  25  30
HETATM   30  C   UNL     1     -22.342 -11.169  -1.803  1.00  0.00     0.078 C 
HETATM   31  C   UNL     1     -22.681 -10.876  -3.275  1.00  0.00     0.051 C 
HETATM   32  C   UNL     1     -23.013 -10.121  -0.889  1.00  0.00     0.051 C 
BRANCH  30  33
HETATM   33  O   UNL     1     -22.971 -12.396  -1.448  1.00  0.00    -0.386 OA
HETATM   34  H   UNL     1     -22.304 -13.100  -1.489  1.00  0.00     0.211 HD
ENDBRANCH  30  33
ENDBRANCH  25  30
ENDBRANCH   1  24
TORSDOF 6
ENDMDL
MODEL 6
REMARK VINA RESULT:      -9.7      6.041     11.446
REMARK  6 active torsions:
REMARK  status: ('A' for Active; 'I' for Inactive)
REMARK    1  A    between atoms: C_2  and  O_4 
REMARK    2  A    between atoms: C_2  and  C_5 
REMARK    3  A    between atoms: C_10  and  C_11 
REMARK    4  A    between atoms: C_17  and  C_18 
REMARK    5  A    between atoms: C_19  and  C_20 
REMARK    6  A    between atoms: C_23  and  C_24 
ROOT
HETATM    1  C   UNL     1     -21.269  -5.041  -7.547  1.00  0.00    -0.023 C 
HETATM    2  C   UNL     1     -20.691  -4.269  -6.508  1.00  0.00     0.014 C 
HETATM    3  C   UNL     1     -20.237  -4.813  -5.311  1.00  0.00     0.033 C 
HETATM    4  C   UNL     1     -20.532  -6.142  -5.051  1.00  0.00     0.060 A 
HETATM    5  N   UNL     1     -20.218  -6.847  -3.944  1.00  0.00    -0.341 N 
ATOM      6  HN  UNL     1     -19.656  -6.526  -3.155  1.00  0.00     0.167 HD
HETATM    7  C   UNL     1     -20.777  -8.028  -4.079  1.00  0.00     0.106 A 
HETATM    8  N   UNL     1     -21.442  -8.101  -5.296  1.00  0.00    -0.341 N 
HETATM    9  C   UNL     1     -21.234  -6.907  -5.971  1.00  0.00     0.061 A 
HETATM   10  C   UNL     1     -21.558  -6.403  -7.254  1.00  0.00     0.044 C 
HETATM   11  H   UNL     1     -21.983  -8.885  -5.630  1.00  0.00     0.167 HD
ENDROOT
BRANCH   7  12
HETATM   12  C   UNL     1     -20.738  -9.080  -3.117  1.00  0.00     0.049 C 
HETATM   13  C   UNL     1     -21.947  -9.502  -2.697  1.00  0.00     0.015 C 
BRANCH  13  14
HETATM   14  C   UNL     1     -22.319 -10.493  -1.684  1.00  0.00    -0.036 A 
HETATM   15  C   UNL     1     -21.470 -10.608  -0.572  1.00  0.00     0.012 A 
HETATM   16  C   UNL     1     -21.731 -11.526   0.447  1.00  0.00     0.017 A 
HETATM   17  C   UNL     1     -22.863 -12.342   0.380  1.00  0.00     0.048 A 
HETATM   18  C   UNL     1     -23.753 -12.175  -0.697  1.00  0.00     0.017 A 
HETATM   19  C   UNL     1     -23.484 -11.255  -1.721  1.00  0.00     0.012 A 
BRANCH  17  20
HETATM   20  C   UNL     1     -23.111 -13.402   1.423  1.00  0.00     0.417 C 
HETATM   21  F   UNL     1     -22.064 -13.583   2.278  1.00  0.00    -0.166 F 
HETATM   22  F   UNL     1     -24.190 -13.132   2.207  1.00  0.00    -0.166 F 
HETATM   23  F   UNL     1     -23.347 -14.624   0.869  1.00  0.00    -0.166 F 
ENDBRANCH  17  20
ENDBRANCH  13  14
ENDBRANCH   7  12
BRANCH   1  24
HETATM   24  C   UNL     1     -21.359  -4.404  -8.917  1.00  0.00    -0.017 A 
HETATM   25  C   UNL     1     -22.506  -4.103  -9.702  1.00  0.00    -0.014 A 
HETATM   26  C   UNL     1     -22.295  -3.660 -11.049  1.00  0.00     0.011 A 
HETATM   27  C   UNL     1     -21.035  -3.427 -11.601  1.00  0.00     0.001 A 
HETATM   28  C   UNL     1     -19.926  -3.615 -10.817  1.00  0.00     0.001 A 
HETATM   29  C   UNL     1     -20.093  -4.111  -9.526  1.00  0.00     0.013 A 
BRANCH  25  30
HETATM   30  C   UNL     1     -23.985  -4.183  -9.281  1.00  0.00     0.078 C 
HETATM   31  C   UNL     1     -24.561  -5.551  -9.687  1.00  0.00     0.051 C 
HETATM   32  C   UNL     1     -24.820  -3.051  -9.916  1.00  0.00     0.051 C 
BRANCH  30  33
HETATM   33  O   UNL     1     -24.189  -4.024  -7.881  1.00  0.00    -0.386 OA
HETATM   34  H   UNL     1     -23.754  -3.201  -7.604  1.00  0.00     0.211 HD
ENDBRANCH  30  33
ENDBRANCH  25  30
ENDBRANCH   1  24
TORSDOF 6
ENDMDL
MODEL 7
REMARK VINA RESULT:      -9.3      2.156      3.467
REMARK  6 active torsions:
REMARK  status: ('A' for Active; 'I' for Inactive)
REMARK    1  A    between atoms: C_2  and  O_4 
REMARK    2  A    between atoms: C_2  and  C_5 
REMARK    3  A    between atoms: C_10  and  C_11 
REMARK    4  A    between atoms: C_17  and  C_18 
REMARK    5  A    between atoms: C_19  and  C_20 
REMARK    6  A    between atoms: C_23  and  C_24 
ROOT
HETATM    1  C   UNL     1     -21.436  -8.479  -3.161  1.00  0.00    -0.023 C 
HETATM    2  C   UNL     1     -20.971  -7.263  -2.597  1.00  0.00     0.014 C 
HETATM    3  C   UNL     1     -20.842  -6.083  -3.323  1.00  0.00     0.033 C 
HETATM    4  C   UNL     1     -21.001  -6.149  -4.698  1.00  0.00     0.060 A 
HETATM    5  N   UNL     1     -20.883  -5.136  -5.583  1.00  0.00    -0.341 N 
ATOM      6  HN  UNL     1     -20.725  -4.152  -5.366  1.00  0.00     0.167 HD
HETATM    7  C   UNL     1     -21.013  -5.665  -6.779  1.00  0.00     0.106 A 
HETATM    8  N   UNL     1     -21.241  -7.030  -6.671  1.00  0.00    -0.341 N 
HETATM    9  C   UNL     1     -21.305  -7.349  -5.322  1.00  0.00     0.061 A 
HETATM   10  C   UNL     1     -21.593  -8.516  -4.574  1.00  0.00     0.044 C 
HETATM   11  H   UNL     1     -21.341  -7.678  -7.439  1.00  0.00     0.167 HD
ENDROOT
BRANCH   7  12
HETATM   12  C   UNL     1     -20.912  -4.958  -8.014  1.00  0.00     0.049 C 
HETATM   13  C   UNL     1     -22.091  -4.716  -8.620  1.00  0.00     0.015 C 
BRANCH  13  14
HETATM   14  C   UNL     1     -22.397  -4.092  -9.909  1.00  0.00    -0.036 A 
HETATM   15  C   UNL     1     -23.752  -3.850 -10.187  1.00  0.00     0.012 A 
HETATM   16  C   UNL     1     -24.152  -3.265 -11.390  1.00  0.00     0.017 A 
HETATM   17  C   UNL     1     -23.195  -2.894 -12.339  1.00  0.00     0.048 A 
HETATM   18  C   UNL     1     -21.834  -3.068 -12.030  1.00  0.00     0.017 A 
HETATM   19  C   UNL     1     -21.437  -3.661 -10.822  1.00  0.00     0.012 A 
BRANCH  17  20
HETATM   20  C   UNL     1     -23.613  -2.347 -13.681  1.00  0.00     0.417 C 
HETATM   21  F   UNL     1     -22.909  -1.244 -14.064  1.00  0.00    -0.166 F 
HETATM   22  F   UNL     1     -23.471  -3.250 -14.689  1.00  0.00    -0.166 F 
HETATM   23  F   UNL     1     -24.923  -1.970 -13.697  1.00  0.00    -0.166 F 
ENDBRANCH  17  20
ENDBRANCH  13  14
ENDBRANCH   7  12
BRANCH   1  24
HETATM   24  C   UNL     1     -21.891  -9.558  -2.202  1.00  0.00    -0.017 A 
HETATM   25  C   UNL     1     -22.253  -9.456  -0.831  1.00  0.00    -0.014 A 
HETATM   26  C   UNL     1     -22.476 -10.674  -0.108  1.00  0.00     0.011 A 
HETATM   27  C   UNL     1     -22.442 -11.941  -0.691  1.00  0.00     0.001 A 
HETATM   28  C   UNL     1     -22.196 -12.041  -2.037  1.00  0.00     0.001 A 
HETATM   29  C   UNL     1     -21.907 -10.883  -2.754  1.00  0.00     0.013 A 
BRANCH  25  30
HETATM   30  C   UNL     1     -22.453  -8.175   0.001  1.00  0.00     0.078 C 
HETATM   31  C   UNL     1     -21.147  -7.833   0.738  1.00  0.00     0.051 C 
HETATM   32  C   UNL     1     -23.607  -8.328   1.015  1.00  0.00     0.051 C 
BRANCH  30  33
HETATM   33  O   UNL     1     -22.821  -7.042  -0.779  1.00  0.00    -0.386 OA
HETATM   34  H   UNL     1     -22.548  -6.243  -0.300  1.00  0.00     0.211 HD
ENDBRANCH  30  33
ENDBRANCH  25  30
ENDBRANCH   1  24
TORSDOF 6
ENDMDL
MODEL 8
REMARK VINA RESULT:      -9.0     17.046     19.902
REMARK  6 active torsions:
REMARK  status: ('A' for Active; 'I' for Inactive)
REMARK    1  A    between atoms: C_2  and  O_4 
REMARK    2  A    between atoms: C_2  and  C_5 
REMARK    3  A    between atoms: C_10  and  C_11 
REMARK    4  A    between atoms: C_17  and  C_18 
REMARK    5  A    between atoms: C_19  and  C_20 
REMARK    6  A    between atoms: C_23  and  C_24 
ROOT
HETATM    1  C   UNL     1     -24.767   9.263  -0.207  1.00  0.00    -0.023 C 
HETATM    2  C   UNL     1     -24.075  10.351  -0.798  1.00  0.00     0.014 C 
HETATM    3  C   UNL     1     -22.803  10.755  -0.405  1.00  0.00     0.033 C 
HETATM    4  C   UNL     1     -22.268  10.181   0.737  1.00  0.00     0.060 A 
HETATM    5  N   UNL     1     -21.074  10.456   1.305  1.00  0.00    -0.341 N 
ATOM      6  HN  UNL     1     -20.354  11.081   0.941  1.00  0.00     0.167 HD
HETATM    7  C   UNL     1     -21.019   9.759   2.419  1.00  0.00     0.106 A 
HETATM    8  N   UNL     1     -22.177   9.008   2.565  1.00  0.00    -0.341 N 
HETATM    9  C   UNL     1     -22.969   9.218   1.446  1.00  0.00     0.061 A 
HETATM   10  C   UNL     1     -24.191   8.691   0.961  1.00  0.00     0.044 C 
HETATM   11  H   UNL     1     -22.404   8.414   3.350  1.00  0.00     0.167 HD
ENDROOT
BRANCH   7  12
HETATM   12  C   UNL     1     -19.947   9.783   3.360  1.00  0.00     0.049 C 
HETATM   13  C   UNL     1     -18.731   9.548   2.830  1.00  0.00     0.015 C 
BRANCH  13  14
HETATM   14  C   UNL     1     -17.416   9.422   3.464  1.00  0.00    -0.036 A 
HETATM   15  C   UNL     1     -17.393   9.398   4.868  1.00  0.00     0.012 A 
HETATM   16  C   UNL     1     -16.192   9.286   5.571  1.00  0.00     0.017 A 
HETATM   17  C   UNL     1     -14.983   9.180   4.877  1.00  0.00     0.048 A 
HETATM   18  C   UNL     1     -15.013   9.130   3.472  1.00  0.00     0.017 A 
HETATM   19  C   UNL     1     -16.222   9.247   2.770  1.00  0.00     0.012 A 
BRANCH  17  20
HETATM   20  C   UNL     1     -13.670   9.152   5.619  1.00  0.00     0.417 C 
HETATM   21  F   UNL     1     -12.580   9.230   4.802  1.00  0.00    -0.166 F 
HETATM   22  F   UNL     1     -13.543  10.173   6.509  1.00  0.00    -0.166 F 
HETATM   23  F   UNL     1     -13.509   8.005   6.336  1.00  0.00    -0.166 F 
ENDBRANCH  17  20
ENDBRANCH  13  14
ENDBRANCH   7  12
BRANCH   1  24
HETATM   24  C   UNL     1     -25.945   8.695  -0.969  1.00  0.00    -0.017 A 
HETATM   25  C   UNL     1     -25.962   7.829  -2.096  1.00  0.00    -0.014 A 
HETATM   26  C   UNL     1     -27.224   7.588  -2.733  1.00  0.00     0.011 A 
HETATM   27  C   UNL     1     -28.439   8.082  -2.260  1.00  0.00     0.001 A 
HETATM   28  C   UNL     1     -28.445   8.832  -1.112  1.00  0.00     0.001 A 
HETATM   29  C   UNL     1     -27.229   9.143  -0.508  1.00  0.00     0.013 A 
BRANCH  25  30
HETATM   30  C   UNL     1     -24.773   7.088  -2.736  1.00  0.00     0.078 C 
HETATM   31  C   UNL     1     -25.276   6.223  -3.905  1.00  0.00     0.051 C 
HETATM   32  C   UNL     1     -24.032   6.206  -1.708  1.00  0.00     0.051 C 
BRANCH  30  33
HETATM   33  O   UNL     1     -23.765   7.957  -3.241  1.00  0.00    -0.386 OA
HETATM   34  H   UNL     1     -23.331   7.515  -3.989  1.00  0.00     0.211 HD
ENDBRANCH  30  33
ENDBRANCH  25  30
ENDBRANCH   1  24
TORSDOF 6
ENDMDL
MODEL 9
REMARK VINA RESULT:      -8.9      2.536      3.939
REMARK  6 active torsions:
REMARK  status: ('A' for Active; 'I' for Inactive)
REMARK    1  A    between atoms: C_2  and  O_4 
REMARK    2  A    between atoms: C_2  and  C_5 
REMARK    3  A    between atoms: C_10  and  C_11 
REMARK    4  A    between atoms: C_17  and  C_18 
REMARK    5  A    between atoms: C_19  and  C_20 
REMARK    6  A    between atoms: C_23  and  C_24 
ROOT
HETATM    1  C   UNL     1     -22.366 -12.677   0.280  1.00  0.00    -0.023 C 
HETATM    2  C   UNL     1     -21.250 -12.153   0.980  1.00  0.00     0.014 C 
HETATM    3  C   UNL     1     -20.729 -10.884   0.750  1.00  0.00     0.033 C 
HETATM    4  C   UNL     1     -21.212 -10.174  -0.339  1.00  0.00     0.060 A 
HETATM    5  N   UNL     1     -20.820  -8.951  -0.755  1.00  0.00    -0.341 N 
ATOM      6  HN  UNL     1     -20.153  -8.334  -0.291  1.00  0.00     0.167 HD
HETATM    7  C   UNL     1     -21.465  -8.711  -1.875  1.00  0.00     0.106 A 
HETATM    8  N   UNL     1     -22.301  -9.777  -2.178  1.00  0.00    -0.341 N 
HETATM    9  C   UNL     1     -22.200 -10.706  -1.153  1.00  0.00     0.061 A 
HETATM   10  C   UNL     1     -22.843 -11.926  -0.830  1.00  0.00     0.044 C 
HETATM   11  H   UNL     1     -22.880  -9.861  -3.001  1.00  0.00     0.167 HD
ENDROOT
BRANCH   7  12
HETATM   12  C   UNL     1     -21.317  -7.545  -2.683  1.00  0.00     0.049 C 
HETATM   13  C   UNL     1     -21.427  -7.763  -4.008  1.00  0.00     0.015 C 
BRANCH  13  14
HETATM   14  C   UNL     1     -21.271  -6.855  -5.146  1.00  0.00    -0.036 A 
HETATM   15  C   UNL     1     -20.073  -6.953  -5.872  1.00  0.00     0.012 A 
HETATM   16  C   UNL     1     -19.822  -6.129  -6.970  1.00  0.00     0.017 A 
HETATM   17  C   UNL     1     -20.778  -5.195  -7.378  1.00  0.00     0.048 A 
HETATM   18  C   UNL     1     -22.008  -5.147  -6.697  1.00  0.00     0.017 A 
HETATM   19  C   UNL     1     -22.255  -5.974  -5.590  1.00  0.00     0.012 A 
BRANCH  17  20
HETATM   20  C   UNL     1     -20.486  -4.235  -8.503  1.00  0.00     0.417 C 
HETATM   21  F   UNL     1     -19.465  -3.372  -8.234  1.00  0.00    -0.166 F 
HETATM   22  F   UNL     1     -20.148  -4.864  -9.662  1.00  0.00    -0.166 F 
HETATM   23  F   UNL     1     -21.559  -3.451  -8.802  1.00  0.00    -0.166 F 
ENDBRANCH  17  20
ENDBRANCH  13  14
ENDBRANCH   7  12
BRANCH   1  24
HETATM   24  C   UNL     1     -23.058 -13.883   0.881  1.00  0.00    -0.017 A 
HETATM   25  C   UNL     1     -23.452 -15.101   0.264  1.00  0.00    -0.014 A 
HETATM   26  C   UNL     1     -24.254 -16.008   1.031  1.00  0.00     0.011 A 
HETATM   27  C   UNL     1     -24.596 -15.802   2.368  1.00  0.00     0.001 A 
HETATM   28  C   UNL     1     -24.132 -14.679   3.002  1.00  0.00     0.001 A 
HETATM   29  C   UNL     1     -23.407 -13.744   2.266  1.00  0.00     0.013 A 
BRANCH  25  30
HETATM   30  C   UNL     1     -23.112 -15.594  -1.155  1.00  0.00     0.078 C 
HETATM   31  C   UNL     1     -21.616 -15.364  -1.434  1.00  0.00     0.051 C 
HETATM   32  C   UNL     1     -23.964 -14.879  -2.226  1.00  0.00     0.051 C 
BRANCH  30  33
HETATM   33  O   UNL     1     -23.384 -16.977  -1.359  1.00  0.00    -0.386 OA
HETATM   34  H   UNL     1     -22.569 -17.474  -1.185  1.00  0.00     0.211 HD
ENDBRANCH  30  33
ENDBRANCH  25  30
ENDBRANCH   1  24
TORSDOF 6
ENDMDL
