REMARK  4 active torsions:
REMARK  status: ('A' for Active; 'I' for Inactive)
REMARK       I    between atoms: C_2  and  N_3 
REMARK       I    between atoms: C_2  and  N_15 
REMARK    1  A    between atoms: N_3  and  C_4 
REMARK    2  A    between atoms: C_7  and  C_8 
REMARK    3  A    between atoms: N_18  and  C_19 
REMARK    4  A    between atoms: C_25  and  C_26 
ROOT
HETATM    1  O   UNL     1       1.087  -0.153  -0.324  1.00  0.00    -0.247 OA
HETATM    2  C   UNL     1       2.225   0.006   0.104  1.00  0.00     0.324 C 
HETATM    3  N   UNL     1       2.857   1.228   0.163  1.00  0.00    -0.295 N 
HETATM    4  N   UNL     1       2.989  -1.051   0.546  1.00  0.00    -0.331 N 
HETATM    5  C   UNL     1       2.617  -2.421   0.142  1.00  0.00     0.147 C 
HETATM    6  C   UNL     1       2.826  -3.460   1.269  1.00  0.00     0.144 C 
HETATM    7  N   UNL     1       4.194  -3.280   1.795  1.00  0.00    -0.363 N 
HETATM    8  C   UNL     1       4.367  -1.953   2.401  1.00  0.00     0.144 C 
HETATM    9  C   UNL     1       4.267  -0.917   1.263  1.00  0.00     0.147 C 
HETATM   10  H   UNL     1       3.818   1.220  -0.144  1.00  0.00     0.172 HD
ENDROOT
BRANCH   3  11
HETATM   11  C   UNL     1       2.211   2.411  -0.193  1.00  0.00     0.108 A 
HETATM   12  C   UNL     1       0.915   2.685   0.221  1.00  0.00     0.049 A 
HETATM   13  C   UNL     1       0.303   3.848  -0.231  1.00  0.00     0.021 A 
HETATM   14  C   UNL     1       0.997   4.698  -1.097  1.00  0.00     0.063 A 
HETATM   15  C   UNL     1       2.304   4.356  -1.417  1.00  0.00     0.106 A 
HETATM   16  N   UNL     1       2.937   3.253  -0.955  1.00  0.00    -0.351 N 
ATOM     17  HN  UNL     1       3.916   3.068  -1.173  1.00  0.00     0.166 HD
BRANCH  14  18
HETATM   18  C   UNL     1       0.380   5.920  -1.694  1.00  0.00     0.418 C 
HETATM   19  F   UNL     1      -0.883   6.165  -1.250  1.00  0.00    -0.166 F 
HETATM   20  F   UNL     1       1.095   7.047  -1.429  1.00  0.00    -0.166 F 
HETATM   21  F   UNL     1       0.290   5.845  -3.051  1.00  0.00    -0.166 F 
ENDBRANCH  14  18
ENDBRANCH   3  11
BRANCH   7  22
HETATM   22  C   UNL     1       4.913  -4.376   2.191  1.00  0.00     0.118 A 
HETATM   23  N   UNL     1       4.187  -5.487   2.494  1.00  0.00    -0.352 N 
HETATM   24  C   UNL     1       4.818  -6.639   2.816  1.00  0.00     0.089 A 
ATOM     25  HN  UNL     1       3.168  -5.451   2.478  1.00  0.00     0.166 HD
HETATM   26  C   UNL     1       6.185  -6.771   2.860  1.00  0.00     0.018 A 
HETATM   27  C   UNL     1       6.934  -5.651   2.556  1.00  0.00     0.021 A 
HETATM   28  C   UNL     1       6.310  -4.434   2.202  1.00  0.00     0.091 A 
BRANCH  28  29
HETATM   29  C   UNL     1       7.256  -3.335   1.805  1.00  0.00     0.421 C 
HETATM   30  F   UNL     1       6.735  -2.187   1.306  1.00  0.00    -0.166 F 
HETATM   31  F   UNL     1       8.035  -2.940   2.855  1.00  0.00    -0.166 F 
HETATM   32  F   UNL     1       8.142  -3.749   0.846  1.00  0.00    -0.166 F 
ENDBRANCH  28  29
ENDBRANCH   7  22
TORSDOF 4
