MODEL 1
REMARK VINA RESULT:      -9.6      0.000      0.000
REMARK  4 active torsions:
REMARK  status: ('A' for Active; 'I' for Inactive)
REMARK       I    between atoms: C_2  and  N_3 
REMARK       I    between atoms: C_2  and  N_15 
REMARK    1  A    between atoms: N_3  and  C_4 
REMARK    2  A    between atoms: C_7  and  C_8 
REMARK    3  A    between atoms: N_18  and  C_19 
REMARK    4  A    between atoms: C_25  and  C_26 
ROOT
HETATM    1  O   UNL     1     -20.320  -4.813  -5.275  1.00  0.00    -0.247 OA
HETATM    2  C   UNL     1     -21.004  -5.817  -5.445  1.00  0.00     0.324 C 
HETATM    3  N   UNL     1     -21.705  -6.079  -6.601  1.00  0.00    -0.295 N 
HETATM    4  N   UNL     1     -21.149  -6.771  -4.463  1.00  0.00    -0.331 N 
HETATM    5  C   UNL     1     -20.826  -6.417  -3.068  1.00  0.00     0.147 C 
HETATM    6  C   UNL     1     -20.138  -7.569  -2.297  1.00  0.00     0.144 C 
HETATM    7  N   UNL     1     -20.951  -8.786  -2.493  1.00  0.00    -0.363 N 
HETATM    8  C   UNL     1     -20.992  -9.184  -3.906  1.00  0.00     0.144 C 
HETATM    9  C   UNL     1     -21.772  -8.090  -4.664  1.00  0.00     0.147 C 
HETATM   10  H   UNL     1     -22.642  -6.423  -6.456  1.00  0.00     0.172 HD
ENDROOT
BRANCH   3  11
HETATM   11  C   UNL     1     -21.627  -5.246  -7.716  1.00  0.00     0.108 A 
HETATM   12  C   UNL     1     -22.700  -4.461  -8.114  1.00  0.00     0.049 A 
HETATM   13  C   UNL     1     -22.581  -3.710  -9.278  1.00  0.00     0.021 A 
HETATM   14  C   UNL     1     -21.399  -3.777 -10.021  1.00  0.00     0.063 A 
HETATM   15  C   UNL     1     -20.369  -4.559  -9.515  1.00  0.00     0.106 A 
HETATM   16  N   UNL     1     -20.444  -5.263  -8.362  1.00  0.00    -0.351 N 
ATOM     17  HN  UNL     1     -19.644  -5.782  -8.000  1.00  0.00     0.166 HD
BRANCH  14  18
HETATM   18  C   UNL     1     -21.226  -3.070 -11.325  1.00  0.00     0.418 C 
HETATM   19  F   UNL     1     -22.222  -2.185 -11.602  1.00  0.00    -0.166 F 
HETATM   20  F   UNL     1     -20.067  -2.358 -11.381  1.00  0.00    -0.166 F 
HETATM   21  F   UNL     1     -21.187  -3.930 -12.380  1.00  0.00    -0.166 F 
ENDBRANCH  14  18
ENDBRANCH   3  11
BRANCH   7  22
HETATM   22  C   UNL     1     -21.080  -9.682  -1.466  1.00  0.00     0.118 A 
HETATM   23  N   UNL     1     -20.369 -10.836  -1.589  1.00  0.00    -0.352 N 
HETATM   24  C   UNL     1     -20.372 -11.743  -0.586  1.00  0.00     0.089 A 
ATOM     25  HN  UNL     1     -19.832 -11.017  -2.438  1.00  0.00     0.166 HD
HETATM   26  C   UNL     1     -21.067 -11.575   0.588  1.00  0.00     0.018 A 
HETATM   27  C   UNL     1     -21.795 -10.409   0.726  1.00  0.00     0.021 A 
HETATM   28  C   UNL     1     -21.804  -9.434  -0.295  1.00  0.00     0.091 A 
BRANCH  28  29
HETATM   29  C   UNL     1     -22.561  -8.179   0.041  1.00  0.00     0.421 C 
HETATM   30  F   UNL     1     -22.919  -7.353  -0.973  1.00  0.00    -0.166 F 
HETATM   31  F   UNL     1     -23.727  -8.458   0.696  1.00  0.00    -0.166 F 
HETATM   32  F   UNL     1     -21.859  -7.376   0.899  1.00  0.00    -0.166 F 
ENDBRANCH  28  29
ENDBRANCH   7  22
TORSDOF 4
ENDMDL
MODEL 2
REMARK VINA RESULT:      -9.2      2.419     10.098
REMARK  4 active torsions:
REMARK  status: ('A' for Active; 'I' for Inactive)
REMARK       I    between atoms: C_2  and  N_3 
REMARK       I    between atoms: C_2  and  N_15 
REMARK    1  A    between atoms: N_3  and  C_4 
REMARK    2  A    between atoms: C_7  and  C_8 
REMARK    3  A    between atoms: N_18  and  C_19 
REMARK    4  A    between atoms: C_25  and  C_26 
ROOT
HETATM    1  O   UNL     1     -19.985  -6.833  -5.135  1.00  0.00    -0.247 OA
HETATM    2  C   UNL     1     -21.095  -6.348  -5.329  1.00  0.00     0.324 C 
HETATM    3  N   UNL     1     -22.109  -6.361  -4.398  1.00  0.00    -0.295 N 
HETATM    4  N   UNL     1     -21.432  -5.763  -6.529  1.00  0.00    -0.331 N 
HETATM    5  C   UNL     1     -20.620  -6.063  -7.725  1.00  0.00     0.147 C 
HETATM    6  C   UNL     1     -20.423  -4.834  -8.644  1.00  0.00     0.144 C 
HETATM    7  N   UNL     1     -21.753  -4.240  -8.886  1.00  0.00    -0.363 N 
HETATM    8  C   UNL     1     -22.357  -3.748  -7.641  1.00  0.00     0.144 C 
HETATM    9  C   UNL     1     -22.656  -4.980  -6.763  1.00  0.00     0.147 C 
HETATM   10  H   UNL     1     -23.016  -6.603  -4.767  1.00  0.00     0.172 HD
ENDROOT
BRANCH   3  11
HETATM   11  C   UNL     1     -21.923  -6.865  -3.111  1.00  0.00     0.108 A 
HETATM   12  C   UNL     1     -21.336  -8.103  -2.893  1.00  0.00     0.049 A 
HETATM   13  C   UNL     1     -21.249  -8.578  -1.590  1.00  0.00     0.021 A 
HETATM   14  C   UNL     1     -21.765  -7.811  -0.542  1.00  0.00     0.063 A 
HETATM   15  C   UNL     1     -22.294  -6.567  -0.861  1.00  0.00     0.106 A 
HETATM   16  N   UNL     1     -22.350  -6.063  -2.115  1.00  0.00    -0.351 N 
ATOM     17  HN  UNL     1     -22.698  -5.122  -2.298  1.00  0.00     0.166 HD
BRANCH  14  18
HETATM   18  C   UNL     1     -21.788  -8.288   0.873  1.00  0.00     0.418 C 
HETATM   19  F   UNL     1     -21.774  -9.644   0.990  1.00  0.00    -0.166 F 
HETATM   20  F   UNL     1     -20.723  -7.840   1.591  1.00  0.00    -0.166 F 
HETATM   21  F   UNL     1     -22.895  -7.867   1.545  1.00  0.00    -0.166 F 
ENDBRANCH  14  18
ENDBRANCH   3  11
BRANCH   7  22
HETATM   22  C   UNL     1     -22.036  -3.699 -10.112  1.00  0.00     0.118 A 
HETATM   23  N   UNL     1     -20.971  -3.505 -10.938  1.00  0.00    -0.352 N 
HETATM   24  C   UNL     1     -21.166  -3.051 -12.197  1.00  0.00     0.089 A 
ATOM     25  HN  UNL     1     -20.027  -3.701 -10.607  1.00  0.00     0.166 HD
HETATM   26  C   UNL     1     -22.405  -2.764 -12.718  1.00  0.00     0.018 A 
HETATM   27  C   UNL     1     -23.494  -2.956 -11.891  1.00  0.00     0.021 A 
HETATM   28  C   UNL     1     -23.330  -3.441 -10.574  1.00  0.00     0.091 A 
BRANCH  28  29
HETATM   29  C   UNL     1     -24.614  -3.689  -9.832  1.00  0.00     0.421 C 
HETATM   30  F   UNL     1     -24.779  -3.102  -8.620  1.00  0.00    -0.166 F 
HETATM   31  F   UNL     1     -25.699  -3.299 -10.562  1.00  0.00    -0.166 F 
HETATM   32  F   UNL     1     -24.812  -5.023  -9.591  1.00  0.00    -0.166 F 
ENDBRANCH  28  29
ENDBRANCH   7  22
TORSDOF 4
ENDMDL
MODEL 3
REMARK VINA RESULT:      -9.1      1.960     10.243
REMARK  4 active torsions:
REMARK  status: ('A' for Active; 'I' for Inactive)
REMARK       I    between atoms: C_2  and  N_3 
REMARK       I    between atoms: C_2  and  N_15 
REMARK    1  A    between atoms: N_3  and  C_4 
REMARK    2  A    between atoms: C_7  and  C_8 
REMARK    3  A    between atoms: N_18  and  C_19 
REMARK    4  A    between atoms: C_25  and  C_26 
ROOT
HETATM    1  O   UNL     1     -20.314  -4.984  -3.991  1.00  0.00    -0.247 OA
HETATM    2  C   UNL     1     -21.147  -5.635  -4.611  1.00  0.00     0.324 C 
HETATM    3  N   UNL     1     -21.768  -6.758  -4.112  1.00  0.00    -0.295 N 
HETATM    4  N   UNL     1     -21.518  -5.305  -5.896  1.00  0.00    -0.331 N 
HETATM    5  C   UNL     1     -20.641  -4.421  -6.689  1.00  0.00     0.147 C 
HETATM    6  C   UNL     1     -21.428  -3.424  -7.572  1.00  0.00     0.144 C 
HETATM    7  N   UNL     1     -22.437  -4.196  -8.326  1.00  0.00    -0.363 N 
HETATM    8  C   UNL     1     -23.411  -4.831  -7.428  1.00  0.00     0.144 C 
HETATM    9  C   UNL     1     -22.651  -5.902  -6.619  1.00  0.00     0.147 C 
HETATM   10  H   UNL     1     -21.836  -7.526  -4.762  1.00  0.00     0.172 HD
ENDROOT
BRANCH   3  11
HETATM   11  C   UNL     1     -21.551  -7.203  -2.809  1.00  0.00     0.108 A 
HETATM   12  C   UNL     1     -20.652  -8.223  -2.528  1.00  0.00     0.049 A 
HETATM   13  C   UNL     1     -20.539  -8.669  -1.217  1.00  0.00     0.021 A 
HETATM   14  C   UNL     1     -21.339  -8.096  -0.224  1.00  0.00     0.063 A 
HETATM   15  C   UNL     1     -22.175  -7.053  -0.600  1.00  0.00     0.106 A 
HETATM   16  N   UNL     1     -22.271  -6.571  -1.860  1.00  0.00    -0.351 N 
ATOM     17  HN  UNL     1     -22.859  -5.768  -2.082  1.00  0.00     0.166 HD
BRANCH  14  18
HETATM   18  C   UNL     1     -21.338  -8.577   1.190  1.00  0.00     0.418 C 
HETATM   19  F   UNL     1     -20.265  -8.151   1.910  1.00  0.00    -0.166 F 
HETATM   20  F   UNL     1     -22.438  -8.169   1.879  1.00  0.00    -0.166 F 
HETATM   21  F   UNL     1     -21.328  -9.937   1.274  1.00  0.00    -0.166 F 
ENDBRANCH  14  18
ENDBRANCH   3  11
BRANCH   7  22
HETATM   22  C   UNL     1     -22.740  -3.833  -9.611  1.00  0.00     0.118 A 
HETATM   23  N   UNL     1     -24.030  -3.461  -9.837  1.00  0.00    -0.352 N 
HETATM   24  C   UNL     1     -24.399  -3.010 -11.057  1.00  0.00     0.089 A 
ATOM     25  HN  UNL     1     -24.718  -3.523  -9.086  1.00  0.00     0.166 HD
HETATM   26  C   UNL     1     -23.535  -2.897 -12.120  1.00  0.00     0.018 A 
HETATM   27  C   UNL     1     -22.223  -3.271 -11.905  1.00  0.00     0.021 A 
HETATM   28  C   UNL     1     -21.798  -3.735 -10.640  1.00  0.00     0.091 A 
BRANCH  28  29
HETATM   29  C   UNL     1     -20.324  -4.012 -10.535  1.00  0.00     0.421 C 
HETATM   30  F   UNL     1     -19.928  -5.185  -9.982  1.00  0.00    -0.166 F 
HETATM   31  F   UNL     1     -19.719  -3.978 -11.759  1.00  0.00    -0.166 F 
HETATM   32  F   UNL     1     -19.678  -3.055  -9.798  1.00  0.00    -0.166 F 
ENDBRANCH  28  29
ENDBRANCH   7  22
TORSDOF 4
ENDMDL
MODEL 4
REMARK VINA RESULT:      -8.0      2.942      4.398
REMARK  4 active torsions:
REMARK  status: ('A' for Active; 'I' for Inactive)
REMARK       I    between atoms: C_2  and  N_3 
REMARK       I    between atoms: C_2  and  N_15 
REMARK    1  A    between atoms: N_3  and  C_4 
REMARK    2  A    between atoms: C_7  and  C_8 
REMARK    3  A    between atoms: N_18  and  C_19 
REMARK    4  A    between atoms: C_25  and  C_26 
ROOT
HETATM    1  O   UNL     1     -20.368  -7.734  -1.946  1.00  0.00    -0.247 OA
HETATM    2  C   UNL     1     -20.843  -8.737  -2.468  1.00  0.00     0.324 C 
HETATM    3  N   UNL     1     -21.342  -8.770  -3.751  1.00  0.00    -0.295 N 
HETATM    4  N   UNL     1     -20.940  -9.932  -1.790  1.00  0.00    -0.331 N 
HETATM    5  C   UNL     1     -20.855  -9.927  -0.316  1.00  0.00     0.147 C 
HETATM    6  C   UNL     1     -20.078 -11.141   0.247  1.00  0.00     0.144 C 
HETATM    7  N   UNL     1     -20.639 -12.358  -0.373  1.00  0.00    -0.363 N 
HETATM    8  C   UNL     1     -20.438 -12.361  -1.829  1.00  0.00     0.144 C 
HETATM    9  C   UNL     1     -21.297 -11.218  -2.409  1.00  0.00     0.147 C 
HETATM   10  H   UNL     1     -22.217  -9.263  -3.849  1.00  0.00     0.172 HD
ENDROOT
BRANCH   3  11
HETATM   11  C   UNL     1     -21.274  -7.664  -4.598  1.00  0.00     0.108 A 
HETATM   12  C   UNL     1     -22.375  -6.850  -4.821  1.00  0.00     0.049 A 
HETATM   13  C   UNL     1     -22.260  -5.809  -5.734  1.00  0.00     0.021 A 
HETATM   14  C   UNL     1     -21.052  -5.619  -6.411  1.00  0.00     0.063 A 
HETATM   15  C   UNL     1     -19.997  -6.461  -6.085  1.00  0.00     0.106 A 
HETATM   16  N   UNL     1     -20.071  -7.453  -5.168  1.00  0.00    -0.351 N 
ATOM     17  HN  UNL     1     -19.256  -8.014  -4.921  1.00  0.00     0.166 HD
BRANCH  14  18
HETATM   18  C   UNL     1     -20.874  -4.579  -7.468  1.00  0.00     0.418 C 
HETATM   19  F   UNL     1     -21.440  -3.382  -7.155  1.00  0.00    -0.166 F 
HETATM   20  F   UNL     1     -19.564  -4.318  -7.727  1.00  0.00    -0.166 F 
HETATM   21  F   UNL     1     -21.423  -4.951  -8.658  1.00  0.00    -0.166 F 
ENDBRANCH  14  18
ENDBRANCH   3  11
BRANCH   7  22
HETATM   22  C   UNL     1     -20.736 -13.507   0.365  1.00  0.00     0.118 A 
HETATM   23  N   UNL     1     -19.582 -14.210   0.525  1.00  0.00    -0.352 N 
HETATM   24  C   UNL     1     -19.567 -15.314   1.307  1.00  0.00     0.089 A 
ATOM     25  HN  UNL     1     -18.728 -13.906   0.057  1.00  0.00     0.166 HD
HETATM   26  C   UNL     1     -20.671 -15.790   1.972  1.00  0.00     0.018 A 
HETATM   27  C   UNL     1     -21.849 -15.087   1.817  1.00  0.00     0.021 A 
HETATM   28  C   UNL     1     -21.900 -13.921   1.019  1.00  0.00     0.091 A 
BRANCH  28  29
HETATM   29  C   UNL     1     -23.226 -13.213   1.026  1.00  0.00     0.421 C 
HETATM   30  F   UNL     1     -23.242 -11.877   0.795  1.00  0.00    -0.166 F 
HETATM   31  F   UNL     1     -24.080 -13.739   0.100  1.00  0.00    -0.166 F 
HETATM   32  F   UNL     1     -23.873 -13.357   2.224  1.00  0.00    -0.166 F 
ENDBRANCH  28  29
ENDBRANCH   7  22
TORSDOF 4
ENDMDL
MODEL 5
REMARK VINA RESULT:      -7.9      2.826      3.785
REMARK  4 active torsions:
REMARK  status: ('A' for Active; 'I' for Inactive)
REMARK       I    between atoms: C_2  and  N_3 
REMARK       I    between atoms: C_2  and  N_15 
REMARK    1  A    between atoms: N_3  and  C_4 
REMARK    2  A    between atoms: C_7  and  C_8 
REMARK    3  A    between atoms: N_18  and  C_19 
REMARK    4  A    between atoms: C_25  and  C_26 
ROOT
HETATM    1  O   UNL     1     -21.218  -9.392  -5.911  1.00  0.00    -0.247 OA
HETATM    2  C   UNL     1     -21.168  -8.876  -4.800  1.00  0.00     0.324 C 
HETATM    3  N   UNL     1     -20.971  -7.530  -4.589  1.00  0.00    -0.295 N 
HETATM    4  N   UNL     1     -21.280  -9.621  -3.647  1.00  0.00    -0.331 N 
HETATM    5  C   UNL     1     -21.058 -11.079  -3.713  1.00  0.00     0.147 C 
HETATM    6  C   UNL     1     -22.017 -11.877  -2.799  1.00  0.00     0.144 C 
HETATM    7  N   UNL     1     -21.967 -11.266  -1.456  1.00  0.00    -0.363 N 
HETATM    8  C   UNL     1     -22.453  -9.880  -1.477  1.00  0.00     0.144 C 
HETATM    9  C   UNL     1     -21.440  -9.056  -2.298  1.00  0.00     0.147 C 
HETATM   10  H   UNL     1     -20.313  -7.310  -3.857  1.00  0.00     0.172 HD
ENDROOT
BRANCH   3  11
HETATM   11  C   UNL     1     -20.892  -6.622  -5.644  1.00  0.00     0.108 A 
HETATM   12  C   UNL     1     -21.894  -5.691  -5.879  1.00  0.00     0.049 A 
HETATM   13  C   UNL     1     -21.788  -4.865  -6.992  1.00  0.00     0.021 A 
HETATM   14  C   UNL     1     -20.691  -5.002  -7.848  1.00  0.00     0.063 A 
HETATM   15  C   UNL     1     -19.722  -5.933  -7.501  1.00  0.00     0.106 A 
HETATM   16  N   UNL     1     -19.780  -6.718  -6.400  1.00  0.00    -0.351 N 
ATOM     17  HN  UNL     1     -19.019  -7.351  -6.155  1.00  0.00     0.166 HD
BRANCH  14  18
HETATM   18  C   UNL     1     -20.548  -4.213  -9.108  1.00  0.00     0.418 C 
HETATM   19  F   UNL     1     -19.699  -3.155  -8.995  1.00  0.00    -0.166 F 
HETATM   20  F   UNL     1     -20.076  -4.962 -10.141  1.00  0.00    -0.166 F 
HETATM   21  F   UNL     1     -21.734  -3.696  -9.533  1.00  0.00    -0.166 F 
ENDBRANCH  14  18
ENDBRANCH   3  11
BRANCH   7  22
HETATM   22  C   UNL     1     -22.054 -12.067  -0.348  1.00  0.00     0.118 A 
HETATM   23  N   UNL     1     -23.312 -12.322   0.104  1.00  0.00    -0.352 N 
HETATM   24  C   UNL     1     -23.498 -13.168   1.143  1.00  0.00     0.089 A 
ATOM     25  HN  UNL     1     -24.115 -11.877  -0.341  1.00  0.00     0.166 HD
HETATM   26  C   UNL     1     -22.472 -13.808   1.795  1.00  0.00     0.018 A 
HETATM   27  C   UNL     1     -21.189 -13.556   1.348  1.00  0.00     0.021 A 
HETATM   28  C   UNL     1     -20.958 -12.689   0.257  1.00  0.00     0.091 A 
BRANCH  28  29
HETATM   29  C   UNL     1     -19.521 -12.592  -0.175  1.00  0.00     0.421 C 
HETATM   30  F   UNL     1     -18.968 -11.360  -0.294  1.00  0.00    -0.166 F 
HETATM   31  F   UNL     1     -18.695 -13.267   0.678  1.00  0.00    -0.166 F 
HETATM   32  F   UNL     1     -19.317 -13.174  -1.398  1.00  0.00    -0.166 F 
ENDBRANCH  28  29
ENDBRANCH   7  22
TORSDOF 4
ENDMDL
MODEL 6
REMARK VINA RESULT:      -7.5      6.518      8.091
REMARK  4 active torsions:
REMARK  status: ('A' for Active; 'I' for Inactive)
REMARK       I    between atoms: C_2  and  N_3 
REMARK       I    between atoms: C_2  and  N_15 
REMARK    1  A    between atoms: N_3  and  C_4 
REMARK    2  A    between atoms: C_7  and  C_8 
REMARK    3  A    between atoms: N_18  and  C_19 
REMARK    4  A    between atoms: C_25  and  C_26 
ROOT
HETATM    1  O   UNL     1     -17.755 -12.291  -5.844  1.00  0.00    -0.247 OA
HETATM    2  C   UNL     1     -18.940 -12.016  -6.000  1.00  0.00     0.324 C 
HETATM    3  N   UNL     1     -19.733 -12.572  -6.979  1.00  0.00    -0.295 N 
HETATM    4  N   UNL     1     -19.580 -11.088  -5.209  1.00  0.00    -0.331 N 
HETATM    5  C   UNL     1     -18.771 -10.125  -4.437  1.00  0.00     0.147 C 
HETATM    6  C   UNL     1     -19.356  -9.832  -3.036  1.00  0.00     0.144 C 
HETATM    7  N   UNL     1     -20.784  -9.498  -3.208  1.00  0.00    -0.363 N 
HETATM    8  C   UNL     1     -21.539 -10.633  -3.756  1.00  0.00     0.144 C 
HETATM    9  C   UNL     1     -21.034 -10.862  -5.195  1.00  0.00     0.147 C 
HETATM   10  H   UNL     1     -20.328 -11.916  -7.462  1.00  0.00     0.172 HD
ENDROOT
BRANCH   3  11
HETATM   11  C   UNL     1     -19.262 -13.568  -7.833  1.00  0.00     0.108 A 
HETATM   12  C   UNL     1     -19.380 -14.914  -7.516  1.00  0.00     0.049 A 
HETATM   13  C   UNL     1     -18.823 -15.852  -8.376  1.00  0.00     0.021 A 
HETATM   14  C   UNL     1     -18.148 -15.420  -9.522  1.00  0.00     0.063 A 
HETATM   15  C   UNL     1     -18.123 -14.054  -9.771  1.00  0.00     0.106 A 
HETATM   16  N   UNL     1     -18.696 -13.124  -8.973  1.00  0.00    -0.351 N 
ATOM     17  HN  UNL     1     -18.699 -12.135  -9.222  1.00  0.00     0.166 HD
BRANCH  14  18
HETATM   18  C   UNL     1     -17.449 -16.359 -10.449  1.00  0.00     0.418 C 
HETATM   19  F   UNL     1     -16.729 -15.731 -11.419  1.00  0.00    -0.166 F 
HETATM   20  F   UNL     1     -16.574 -17.175  -9.802  1.00  0.00    -0.166 F 
HETATM   21  F   UNL     1     -18.315 -17.182 -11.102  1.00  0.00    -0.166 F 
ENDBRANCH  14  18
ENDBRANCH   3  11
BRANCH   7  22
HETATM   22  C   UNL     1     -21.354  -8.545  -2.407  1.00  0.00     0.118 A 
HETATM   23  N   UNL     1     -21.621  -8.923  -1.127  1.00  0.00    -0.352 N 
HETATM   24  C   UNL     1     -22.109  -8.023  -0.244  1.00  0.00     0.089 A 
ATOM     25  HN  UNL     1     -21.453  -9.886  -0.834  1.00  0.00     0.166 HD
HETATM   26  C   UNL     1     -22.363  -6.710  -0.559  1.00  0.00     0.018 A 
HETATM   27  C   UNL     1     -22.098  -6.312  -1.855  1.00  0.00     0.021 A 
HETATM   28  C   UNL     1     -21.575  -7.221  -2.801  1.00  0.00     0.091 A 
BRANCH  28  29
HETATM   29  C   UNL     1     -21.248  -6.618  -4.139  1.00  0.00     0.421 C 
HETATM   30  F   UNL     1     -20.249  -7.173  -4.868  1.00  0.00    -0.166 F 
HETATM   31  F   UNL     1     -22.333  -6.622  -4.969  1.00  0.00    -0.166 F 
HETATM   32  F   UNL     1     -20.894  -5.299  -4.029  1.00  0.00    -0.166 F 
ENDBRANCH  28  29
ENDBRANCH   7  22
TORSDOF 4
ENDMDL
MODEL 7
REMARK VINA RESULT:      -7.4     17.130     18.426
REMARK  4 active torsions:
REMARK  status: ('A' for Active; 'I' for Inactive)
REMARK       I    between atoms: C_2  and  N_3 
REMARK       I    between atoms: C_2  and  N_15 
REMARK    1  A    between atoms: N_3  and  C_4 
REMARK    2  A    between atoms: C_7  and  C_8 
REMARK    3  A    between atoms: N_18  and  C_19 
REMARK    4  A    between atoms: C_25  and  C_26 
ROOT
HETATM    1  O   UNL     1     -21.778  11.089   1.461  1.00  0.00    -0.247 OA
HETATM    2  C   UNL     1     -21.462   9.971   1.855  1.00  0.00     0.324 C 
HETATM    3  N   UNL     1     -22.273   8.864   1.746  1.00  0.00    -0.295 N 
HETATM    4  N   UNL     1     -20.255   9.734   2.473  1.00  0.00    -0.331 N 
HETATM    5  C   UNL     1     -19.502  10.872   3.034  1.00  0.00     0.147 C 
HETATM    6  C   UNL     1     -17.973  10.739   2.838  1.00  0.00     0.144 C 
HETATM    7  N   UNL     1     -17.577   9.396   3.308  1.00  0.00    -0.363 N 
HETATM    8  C   UNL     1     -18.204   8.339   2.503  1.00  0.00     0.144 C 
HETATM    9  C   UNL     1     -19.720   8.397   2.778  1.00  0.00     0.147 C 
HETATM   10  H   UNL     1     -22.307   8.285   2.572  1.00  0.00     0.172 HD
ENDROOT
BRANCH   3  11
HETATM   11  C   UNL     1     -23.507   8.912   1.098  1.00  0.00     0.108 A 
HETATM   12  C   UNL     1     -24.694   9.050   1.804  1.00  0.00     0.049 A 
HETATM   13  C   UNL     1     -25.893   9.017   1.102  1.00  0.00     0.021 A 
HETATM   14  C   UNL     1     -25.874   8.831  -0.283  1.00  0.00     0.063 A 
HETATM   15  C   UNL     1     -24.633   8.747  -0.900  1.00  0.00     0.106 A 
HETATM   16  N   UNL     1     -23.452   8.821  -0.245  1.00  0.00    -0.351 N 
ATOM     17  HN  UNL     1     -22.562   8.808  -0.745  1.00  0.00     0.166 HD
BRANCH  14  18
HETATM   18  C   UNL     1     -27.120   8.698  -1.096  1.00  0.00     0.418 C 
HETATM   19  F   UNL     1     -27.507   9.858  -1.693  1.00  0.00    -0.166 F 
HETATM   20  F   UNL     1     -26.994   7.785  -2.097  1.00  0.00    -0.166 F 
HETATM   21  F   UNL     1     -28.184   8.289  -0.350  1.00  0.00    -0.166 F 
ENDBRANCH  14  18
ENDBRANCH   3  11
BRANCH   7  22
HETATM   22  C   UNL     1     -16.375   9.232   3.943  1.00  0.00     0.118 A 
HETATM   23  N   UNL     1     -16.417   9.222   5.304  1.00  0.00    -0.352 N 
HETATM   24  C   UNL     1     -15.290   8.984   6.012  1.00  0.00     0.089 A 
ATOM     25  HN  UNL     1     -17.297   9.394   5.789  1.00  0.00     0.166 HD
HETATM   26  C   UNL     1     -14.066   8.744   5.436  1.00  0.00     0.018 A 
HETATM   27  C   UNL     1     -14.009   8.752   4.056  1.00  0.00     0.021 A 
HETATM   28  C   UNL     1     -15.168   8.984   3.282  1.00  0.00     0.091 A 
BRANCH  28  29
HETATM   29  C   UNL     1     -14.967   8.866   1.797  1.00  0.00     0.421 C 
HETATM   30  F   UNL     1     -15.555   9.786   0.993  1.00  0.00    -0.166 F 
HETATM   31  F   UNL     1     -13.642   8.905   1.466  1.00  0.00    -0.166 F 
HETATM   32  F   UNL     1     -15.414   7.663   1.318  1.00  0.00    -0.166 F 
ENDBRANCH  28  29
ENDBRANCH   7  22
TORSDOF 4
ENDMDL
MODEL 8
REMARK VINA RESULT:      -7.3      6.656      8.205
REMARK  4 active torsions:
REMARK  status: ('A' for Active; 'I' for Inactive)
REMARK       I    between atoms: C_2  and  N_3 
REMARK       I    between atoms: C_2  and  N_15 
REMARK    1  A    between atoms: N_3  and  C_4 
REMARK    2  A    between atoms: C_7  and  C_8 
REMARK    3  A    between atoms: N_18  and  C_19 
REMARK    4  A    between atoms: C_25  and  C_26 
ROOT
HETATM    1  O   UNL     1     -21.829 -13.314  -6.778  1.00  0.00    -0.247 OA
HETATM    2  C   UNL     1     -20.943 -13.089  -5.960  1.00  0.00     0.324 C 
HETATM    3  N   UNL     1     -19.660 -13.579  -6.067  1.00  0.00    -0.295 N 
HETATM    4  N   UNL     1     -21.171 -12.332  -4.832  1.00  0.00    -0.331 N 
HETATM    5  C   UNL     1     -22.560 -12.121  -4.381  1.00  0.00     0.147 C 
HETATM    6  C   UNL     1     -22.806 -10.697  -3.829  1.00  0.00     0.144 C 
HETATM    7  N   UNL     1     -21.745 -10.411  -2.842  1.00  0.00    -0.363 N 
HETATM    8  C   UNL     1     -20.416 -10.403  -3.468  1.00  0.00     0.144 C 
HETATM    9  C   UNL     1     -20.119 -11.845  -3.925  1.00  0.00     0.147 C 
HETATM   10  H   UNL     1     -19.276 -13.941  -5.207  1.00  0.00     0.172 HD
ENDROOT
BRANCH   3  11
HETATM   11  C   UNL     1     -19.242 -14.317  -7.172  1.00  0.00     0.108 A 
HETATM   12  C   UNL     1     -19.078 -15.694  -7.107  1.00  0.00     0.049 A 
HETATM   13  C   UNL     1     -18.587 -16.360  -8.224  1.00  0.00     0.021 A 
HETATM   14  C   UNL     1     -18.257 -15.630  -9.370  1.00  0.00     0.063 A 
HETATM   15  C   UNL     1     -18.498 -14.263  -9.348  1.00  0.00     0.106 A 
HETATM   16  N   UNL     1     -19.017 -13.598  -8.290  1.00  0.00    -0.351 N 
ATOM     17  HN  UNL     1     -19.227 -12.601  -8.336  1.00  0.00     0.166 HD
BRANCH  14  18
HETATM   18  C   UNL     1     -17.644 -16.259 -10.578  1.00  0.00     0.418 C 
HETATM   19  F   UNL     1     -18.542 -16.906 -11.370  1.00  0.00    -0.166 F 
HETATM   20  F   UNL     1     -17.024 -15.351 -11.379  1.00  0.00    -0.166 F 
HETATM   21  F   UNL     1     -16.696 -17.183 -10.257  1.00  0.00    -0.166 F 
ENDBRANCH  14  18
ENDBRANCH   3  11
BRANCH   7  22
HETATM   22  C   UNL     1     -22.044  -9.677  -1.726  1.00  0.00     0.118 A 
HETATM   23  N   UNL     1     -21.581  -8.397  -1.713  1.00  0.00    -0.352 N 
HETATM   24  C   UNL     1     -21.898  -7.574  -0.688  1.00  0.00     0.089 A 
ATOM     25  HN  UNL     1     -20.997  -8.058  -2.477  1.00  0.00     0.166 HD
HETATM   26  C   UNL     1     -22.679  -7.953   0.378  1.00  0.00     0.018 A 
HETATM   27  C   UNL     1     -23.154  -9.250   0.379  1.00  0.00     0.021 A 
HETATM   28  C   UNL     1     -22.855 -10.133  -0.682  1.00  0.00     0.091 A 
BRANCH  28  29
HETATM   29  C   UNL     1     -23.522 -11.477  -0.587  1.00  0.00     0.421 C 
HETATM   30  F   UNL     1     -22.825 -12.571  -0.984  1.00  0.00    -0.166 F 
HETATM   31  F   UNL     1     -23.912 -11.755   0.692  1.00  0.00    -0.166 F 
HETATM   32  F   UNL     1     -24.675 -11.526  -1.325  1.00  0.00    -0.166 F 
ENDBRANCH  28  29
ENDBRANCH   7  22
TORSDOF 4
ENDMDL
MODEL 9
REMARK VINA RESULT:      -7.3     18.126     20.154
REMARK  4 active torsions:
REMARK  status: ('A' for Active; 'I' for Inactive)
REMARK       I    between atoms: C_2  and  N_3 
REMARK       I    between atoms: C_2  and  N_15 
REMARK    1  A    between atoms: N_3  and  C_4 
REMARK    2  A    between atoms: C_7  and  C_8 
REMARK    3  A    between atoms: N_18  and  C_19 
REMARK    4  A    between atoms: C_25  and  C_26 
ROOT
HETATM    1  O   UNL     1     -18.347  10.589   3.074  1.00  0.00    -0.247 OA
HETATM    2  C   UNL     1     -19.074   9.846   3.724  1.00  0.00     0.324 C 
HETATM    3  N   UNL     1     -18.620   9.011   4.720  1.00  0.00    -0.295 N 
HETATM    4  N   UNL     1     -20.428   9.767   3.488  1.00  0.00    -0.331 N 
HETATM    5  C   UNL     1     -20.961  10.258   2.202  1.00  0.00     0.147 C 
HETATM    6  C   UNL     1     -22.324  10.974   2.348  1.00  0.00     0.144 C 
HETATM    7  N   UNL     1     -23.212  10.090   3.131  1.00  0.00    -0.363 N 
HETATM    8  C   UNL     1     -22.695   9.876   4.489  1.00  0.00     0.144 C 
HETATM    9  C   UNL     1     -21.388   9.068   4.356  1.00  0.00     0.147 C 
HETATM   10  H   UNL     1     -19.010   8.081   4.699  1.00  0.00     0.172 HD
ENDROOT
BRANCH   3  11
HETATM   11  C   UNL     1     -17.287   9.003   5.126  1.00  0.00     0.108 A 
HETATM   12  C   UNL     1     -16.922   9.305   6.431  1.00  0.00     0.049 A 
HETATM   13  C   UNL     1     -15.570   9.352   6.751  1.00  0.00     0.021 A 
HETATM   14  C   UNL     1     -14.619   9.110   5.755  1.00  0.00     0.063 A 
HETATM   15  C   UNL     1     -15.088   8.774   4.492  1.00  0.00     0.106 A 
HETATM   16  N   UNL     1     -16.398   8.679   4.167  1.00  0.00    -0.351 N 
ATOM     17  HN  UNL     1     -16.697   8.376   3.240  1.00  0.00     0.166 HD
BRANCH  14  18
HETATM   18  C   UNL     1     -13.150   9.226   5.998  1.00  0.00     0.418 C 
HETATM   19  F   UNL     1     -12.810  10.282   6.786  1.00  0.00    -0.166 F 
HETATM   20  F   UNL     1     -12.634   8.123   6.605  1.00  0.00    -0.166 F 
HETATM   21  F   UNL     1     -12.445   9.380   4.843  1.00  0.00    -0.166 F 
ENDBRANCH  14  18
ENDBRANCH   3  11
BRANCH   7  22
HETATM   22  C   UNL     1     -24.546  10.035   2.827  1.00  0.00     0.118 A 
HETATM   23  N   UNL     1     -25.374  10.736   3.649  1.00  0.00    -0.352 N 
HETATM   24  C   UNL     1     -26.697  10.804   3.377  1.00  0.00     0.089 A 
ATOM     25  HN  UNL     1     -24.997  11.210   4.469  1.00  0.00     0.166 HD
HETATM   26  C   UNL     1     -27.283  10.195   2.293  1.00  0.00     0.018 A 
HETATM   27  C   UNL     1     -26.454   9.479   1.451  1.00  0.00     0.021 A 
HETATM   28  C   UNL     1     -25.065   9.397   1.696  1.00  0.00     0.091 A 
BRANCH  28  29
HETATM   29  C   UNL     1     -24.284   8.665   0.641  1.00  0.00     0.421 C 
HETATM   30  F   UNL     1     -23.139   8.037   1.008  1.00  0.00    -0.166 F 
HETATM   31  F   UNL     1     -25.037   7.699   0.038  1.00  0.00    -0.166 F 
HETATM   32  F   UNL     1     -23.901   9.498  -0.377  1.00  0.00    -0.166 F 
ENDBRANCH  28  29
ENDBRANCH   7  22
TORSDOF 4
ENDMDL
