REMARK  19 active torsions:
REMARK  status: ('A' for Active; 'I' for Inactive)
REMARK    1  A    between atoms: C_2  and  C_3 
REMARK    2  A    between atoms: C_3  and  C_4 
REMARK    3  A    between atoms: C_4  and  C_5 
REMARK    4  A    between atoms: C_5  and  C_6 
REMARK    5  A    between atoms: C_6  and  C_7 
REMARK    6  A    between atoms: C_7  and  C_8 
REMARK    7  A    between atoms: C_8  and  C_9 
REMARK    8  A    between atoms: C_10  and  C_11 
REMARK    9  A    between atoms: C_11  and  C_12 
REMARK   10  A    between atoms: C_12  and  C_13 
REMARK   11  A    between atoms: C_13  and  C_14 
REMARK   12  A    between atoms: C_14  and  C_15 
REMARK   13  A    between atoms: C_15  and  C_16 
REMARK   14  A    between atoms: C_16  and  C_17 
REMARK   15  A    between atoms: C_17  and  C_18 
REMARK       I    between atoms: C_18  and  N_20 
REMARK   16  A    between atoms: N_20  and  C_21 
REMARK   17  A    between atoms: C_21  and  C_22 
REMARK   18  A    between atoms: C_25  and  O_26 
REMARK   19  A    between atoms: C_27  and  O_28 
ROOT
HETATM    1  C   UNL     1      16.622  -1.234  10.204  1.00  0.00     0.009 C 
ENDROOT
BRANCH   1   2
HETATM    2  C   UNL     1      15.098  -1.233  10.192  1.00  0.00     0.000 C 
BRANCH   2   3
HETATM    3  C   UNL     1      14.579  -1.047   8.774  1.00  0.00     0.000 C 
BRANCH   3   4
HETATM    4  C   UNL     1      13.054  -1.048   8.741  1.00  0.00     0.000 C 
BRANCH   4   5
HETATM    5  C   UNL     1      12.535  -0.870   7.318  1.00  0.00     0.004 C 
BRANCH   5   6
HETATM    6  C   UNL     1      13.017  -2.002   6.417  1.00  0.00     0.027 C 
BRANCH   6   7
HETATM    7  C   UNL     1      12.523  -1.831   5.024  1.00  0.00    -0.031 C 
HETATM    8  C   UNL     1      11.753  -2.753   4.425  1.00  0.00    -0.031 C 
BRANCH   8   9
HETATM    9  C   UNL     1      11.250  -2.582   3.032  1.00  0.00     0.027 C 
BRANCH   9  10
HETATM   10  C   UNL     1       9.730  -2.582   3.014  1.00  0.00     0.004 C 
BRANCH  10  11
HETATM   11  C   UNL     1       9.228  -2.411   1.590  1.00  0.00     0.000 C 
BRANCH  11  12
HETATM   12  C   UNL     1       7.709  -2.410   1.568  1.00  0.00     0.000 C 
BRANCH  12  13
HETATM   13  C   UNL     1       7.206  -2.237   0.144  1.00  0.00     0.000 C 
BRANCH  13  14
HETATM   14  C   UNL     1       5.686  -2.234   0.121  1.00  0.00    -0.000 C 
BRANCH  14  15
HETATM   15  C   UNL     1       5.171  -2.061  -1.301  1.00  0.00    -0.005 C 
HETATM   16  C   UNL     1       3.655  -2.061  -1.320  1.00  0.00     0.005 C 
ENDBRANCH  14  15
ENDBRANCH  13  14
ENDBRANCH  12  13
ENDBRANCH  11  12
ENDBRANCH  10  11
ENDBRANCH   9  10
ENDBRANCH   8   9
ENDBRANCH   6   7
ENDBRANCH   5   6
ENDBRANCH   4   5
ENDBRANCH   3   4
ENDBRANCH   2   3
ENDBRANCH   1   2
BRANCH   1  17
HETATM   17  C   UNL     1      17.193  -1.413  11.612  1.00  0.00     0.103 C 
BRANCH  17  18
HETATM   18  C   UNL     1      18.713  -1.406  11.567  1.00  0.00     0.217 C 
HETATM   19  O   UNL     1      19.329  -1.255  10.520  1.00  0.00    -0.274 OA
HETATM   20  N   UNL     1      19.329  -1.562  12.796  1.00  0.00    -0.357 N 
HETATM   21  H   UNL     1      18.797  -1.643  13.655  1.00  0.00     0.162 HD
BRANCH  20  22
HETATM   22  C   UNL     1      20.776  -1.570  12.864  1.00  0.00     0.161 C 
BRANCH  22  23
HETATM   23  C   UNL     1      21.357  -2.953  12.717  1.00  0.00    -0.038 A 
HETATM   24  C   UNL     1      21.682  -3.435  11.445  1.00  0.00     0.012 A 
HETATM   25  C   UNL     1      22.219  -4.709  11.279  1.00  0.00     0.040 A 
HETATM   26  C   UNL     1      22.438  -5.523  12.389  1.00  0.00     0.099 A 
HETATM   27  C   UNL     1      22.124  -5.077  13.677  1.00  0.00     0.101 A 
HETATM   28  C   UNL     1      21.577  -3.787  13.821  1.00  0.00     0.048 A 
BRANCH  26  29
HETATM   29  O   UNL     1      22.969  -6.766  12.165  1.00  0.00    -0.358 OA
HETATM   30  H   UNL     1      23.151  -6.892  11.229  1.00  0.00     0.217 HD
ENDBRANCH  26  29
BRANCH  27  31
HETATM   31  O   UNL     1      22.284  -5.765  14.853  1.00  0.00    -0.353 OA
HETATM   32  C   UNL     1      22.823  -7.077  14.803  1.00  0.00     0.210 C 
ENDBRANCH  27  31
ENDBRANCH  22  23
ENDBRANCH  20  22
ENDBRANCH  17  18
ENDBRANCH   1  17
TORSDOF 19
