MODEL 1
REMARK VINA RESULT:      -8.0      0.000      0.000
REMARK  19 active torsions:
REMARK  status: ('A' for Active; 'I' for Inactive)
REMARK    1  A    between atoms: C_2  and  C_3 
REMARK    2  A    between atoms: C_3  and  C_4 
REMARK    3  A    between atoms: C_4  and  C_5 
REMARK    4  A    between atoms: C_5  and  C_6 
REMARK    5  A    between atoms: C_6  and  C_7 
REMARK    6  A    between atoms: C_7  and  C_8 
REMARK    7  A    between atoms: C_8  and  C_9 
REMARK    8  A    between atoms: C_10  and  C_11 
REMARK    9  A    between atoms: C_11  and  C_12 
REMARK   10  A    between atoms: C_12  and  C_13 
REMARK   11  A    between atoms: C_13  and  C_14 
REMARK   12  A    between atoms: C_14  and  C_15 
REMARK   13  A    between atoms: C_15  and  C_16 
REMARK   14  A    between atoms: C_16  and  C_17 
REMARK   15  A    between atoms: C_17  and  C_18 
REMARK       I    between atoms: C_18  and  N_20 
REMARK   16  A    between atoms: N_20  and  C_21 
REMARK   17  A    between atoms: C_21  and  C_22 
REMARK   18  A    between atoms: C_25  and  O_26 
REMARK   19  A    between atoms: C_27  and  O_28 
ROOT
HETATM    1  C   UNL     1     -20.455  -7.832  -4.307  1.00  0.00     0.009 C 
ENDROOT
BRANCH   1   2
HETATM    2  C   UNL     1     -21.248  -7.887  -3.007  1.00  0.00     0.000 C 
BRANCH   2   3
HETATM    3  C   UNL     1     -21.395  -6.493  -2.417  1.00  0.00     0.000 C 
BRANCH   3   4
HETATM    4  C   UNL     1     -22.271  -6.513  -1.168  1.00  0.00     0.000 C 
BRANCH   4   5
HETATM    5  C   UNL     1     -22.424  -7.930  -0.627  1.00  0.00     0.004 C 
BRANCH   5   6
HETATM    6  C   UNL     1     -22.023  -7.999   0.843  1.00  0.00     0.027 C 
BRANCH   6   7
HETATM    7  C   UNL     1     -21.114  -9.148   1.101  1.00  0.00    -0.031 C 
HETATM    8  C   UNL     1     -20.900 -10.105   0.184  1.00  0.00    -0.031 C 
BRANCH   8   9
HETATM    9  C   UNL     1     -19.984 -11.254   0.437  1.00  0.00     0.027 C 
BRANCH   9  10
HETATM   10  C   UNL     1     -19.518 -11.858  -0.878  1.00  0.00     0.004 C 
BRANCH  10  11
HETATM   11  C   UNL     1     -19.505 -10.794  -1.962  1.00  0.00     0.000 C 
BRANCH  11  12
HETATM   12  C   UNL     1     -18.219 -10.884  -2.767  1.00  0.00     0.000 C 
BRANCH  12  13
HETATM   13  C   UNL     1     -17.575  -9.512  -2.880  1.00  0.00     0.000 C 
BRANCH  13  14
HETATM   14  C   UNL     1     -16.060  -9.643  -2.887  1.00  0.00    -0.000 C 
BRANCH  14  15
HETATM   15  C   UNL     1     -15.605 -10.549  -4.022  1.00  0.00    -0.005 C 
HETATM   16  C   UNL     1     -15.803  -9.865  -5.360  1.00  0.00     0.005 C 
ENDBRANCH  14  15
ENDBRANCH  13  14
ENDBRANCH  12  13
ENDBRANCH  11  12
ENDBRANCH  10  11
ENDBRANCH   9  10
ENDBRANCH   8   9
ENDBRANCH   6   7
ENDBRANCH   5   6
ENDBRANCH   4   5
ENDBRANCH   3   4
ENDBRANCH   2   3
ENDBRANCH   1   2
BRANCH   1  17
HETATM   17  C   UNL     1     -21.360  -7.774  -5.539  1.00  0.00     0.103 C 
BRANCH  17  18
HETATM   18  C   UNL     1     -21.653  -6.328  -5.908  1.00  0.00     0.217 C 
HETATM   19  O   UNL     1     -22.668  -5.756  -5.531  1.00  0.00    -0.274 OA
HETATM   20  N   UNL     1     -20.677  -5.718  -6.676  1.00  0.00    -0.357 N 
HETATM   21  H   UNL     1     -19.825  -6.199  -6.940  1.00  0.00     0.162 HD
BRANCH  20  22
HETATM   22  C   UNL     1     -20.858  -4.339  -7.083  1.00  0.00     0.161 C 
BRANCH  22  23
HETATM   23  C   UNL     1     -21.127  -4.199  -8.559  1.00  0.00    -0.038 A 
HETATM   24  C   UNL     1     -20.126  -4.529  -9.479  1.00  0.00     0.012 A 
HETATM   25  C   UNL     1     -20.346  -4.408 -10.848  1.00  0.00     0.040 A 
HETATM   26  C   UNL     1     -21.576  -3.953 -11.319  1.00  0.00     0.099 A 
HETATM   27  C   UNL     1     -22.601  -3.612 -10.431  1.00  0.00     0.101 A 
HETATM   28  C   UNL     1     -22.355  -3.737  -9.049  1.00  0.00     0.048 A 
BRANCH  26  29
HETATM   29  O   UNL     1     -21.736  -3.855 -12.677  1.00  0.00    -0.358 OA
HETATM   30  H   UNL     1     -22.175  -4.638 -13.022  1.00  0.00     0.217 HD
ENDBRANCH  26  29
BRANCH  27  31
HETATM   31  O   UNL     1     -23.854  -3.152 -10.749  1.00  0.00    -0.353 OA
HETATM   32  C   UNL     1     -24.915  -3.387  -9.836  1.00  0.00     0.210 C 
ENDBRANCH  27  31
ENDBRANCH  22  23
ENDBRANCH  20  22
ENDBRANCH  17  18
ENDBRANCH   1  17
TORSDOF 19
ENDMDL
MODEL 2
REMARK VINA RESULT:      -7.9      2.426      4.399
REMARK  19 active torsions:
REMARK  status: ('A' for Active; 'I' for Inactive)
REMARK    1  A    between atoms: C_2  and  C_3 
REMARK    2  A    between atoms: C_3  and  C_4 
REMARK    3  A    between atoms: C_4  and  C_5 
REMARK    4  A    between atoms: C_5  and  C_6 
REMARK    5  A    between atoms: C_6  and  C_7 
REMARK    6  A    between atoms: C_7  and  C_8 
REMARK    7  A    between atoms: C_8  and  C_9 
REMARK    8  A    between atoms: C_10  and  C_11 
REMARK    9  A    between atoms: C_11  and  C_12 
REMARK   10  A    between atoms: C_12  and  C_13 
REMARK   11  A    between atoms: C_13  and  C_14 
REMARK   12  A    between atoms: C_14  and  C_15 
REMARK   13  A    between atoms: C_15  and  C_16 
REMARK   14  A    between atoms: C_16  and  C_17 
REMARK   15  A    between atoms: C_17  and  C_18 
REMARK       I    between atoms: C_18  and  N_20 
REMARK   16  A    between atoms: N_20  and  C_21 
REMARK   17  A    between atoms: C_21  and  C_22 
REMARK   18  A    between atoms: C_25  and  O_26 
REMARK   19  A    between atoms: C_27  and  O_28 
ROOT
HETATM    1  C   UNL     1     -20.149  -8.206  -4.458  1.00  0.00     0.009 C 
ENDROOT
BRANCH   1   2
HETATM    2  C   UNL     1     -20.648  -8.942  -3.220  1.00  0.00     0.000 C 
BRANCH   2   3
HETATM    3  C   UNL     1     -20.379  -8.118  -1.969  1.00  0.00     0.000 C 
BRANCH   3   4
HETATM    4  C   UNL     1     -21.043  -6.748  -2.059  1.00  0.00     0.000 C 
BRANCH   4   5
HETATM    5  C   UNL     1     -22.332  -6.708  -1.245  1.00  0.00     0.004 C 
BRANCH   5   6
HETATM    6  C   UNL     1     -22.195  -7.527   0.034  1.00  0.00     0.027 C 
BRANCH   6   7
HETATM    7  C   UNL     1     -23.273  -8.546   0.142  1.00  0.00    -0.031 C 
HETATM    8  C   UNL     1     -23.044  -9.849  -0.086  1.00  0.00    -0.031 C 
BRANCH   8   9
HETATM    9  C   UNL     1     -24.120 -10.875   0.028  1.00  0.00     0.027 C 
BRANCH   9  10
HETATM   10  C   UNL     1     -23.888 -11.999  -0.969  1.00  0.00     0.004 C 
BRANCH  10  11
HETATM   11  C   UNL     1     -23.679 -13.311  -0.232  1.00  0.00     0.000 C 
BRANCH  11  12
HETATM   12  C   UNL     1     -22.240 -13.422   0.240  1.00  0.00     0.000 C 
BRANCH  12  13
HETATM   13  C   UNL     1     -22.199 -13.699   1.734  1.00  0.00     0.000 C 
BRANCH  13  14
HETATM   14  C   UNL     1     -23.577 -14.106   2.230  1.00  0.00    -0.000 C 
BRANCH  14  15
HETATM   15  C   UNL     1     -23.467 -14.923   3.510  1.00  0.00    -0.005 C 
HETATM   16  C   UNL     1     -22.734 -16.224   3.248  1.00  0.00     0.005 C 
ENDBRANCH  14  15
ENDBRANCH  13  14
ENDBRANCH  12  13
ENDBRANCH  11  12
ENDBRANCH  10  11
ENDBRANCH   9  10
ENDBRANCH   8   9
ENDBRANCH   6   7
ENDBRANCH   5   6
ENDBRANCH   4   5
ENDBRANCH   3   4
ENDBRANCH   2   3
ENDBRANCH   1   2
BRANCH   1  17
HETATM   17  C   UNL     1     -21.236  -8.058  -5.524  1.00  0.00     0.103 C 
BRANCH  17  18
HETATM   18  C   UNL     1     -21.520  -6.587  -5.783  1.00  0.00     0.217 C 
HETATM   19  O   UNL     1     -22.338  -5.959  -5.123  1.00  0.00    -0.274 OA
HETATM   20  N   UNL     1     -20.771  -6.024  -6.801  1.00  0.00    -0.357 N 
HETATM   21  H   UNL     1     -20.069  -6.553  -7.306  1.00  0.00     0.162 HD
BRANCH  20  22
HETATM   22  C   UNL     1     -20.965  -4.626  -7.129  1.00  0.00     0.161 C 
BRANCH  22  23
HETATM   23  C   UNL     1     -21.209  -4.403  -8.600  1.00  0.00    -0.038 A 
HETATM   24  C   UNL     1     -20.161  -4.578  -9.510  1.00  0.00     0.012 A 
HETATM   25  C   UNL     1     -20.358  -4.378 -10.874  1.00  0.00     0.040 A 
HETATM   26  C   UNL     1     -21.612  -3.997 -11.348  1.00  0.00     0.099 A 
HETATM   27  C   UNL     1     -22.684  -3.810 -10.470  1.00  0.00     0.101 A 
HETATM   28  C   UNL     1     -22.461  -4.013  -9.094  1.00  0.00     0.048 A 
BRANCH  26  29
HETATM   29  O   UNL     1     -21.746  -3.815 -12.700  1.00  0.00    -0.358 OA
HETATM   30  H   UNL     1     -21.364  -2.974 -12.967  1.00  0.00     0.217 HD
ENDBRANCH  26  29
BRANCH  27  31
HETATM   31  O   UNL     1     -23.964  -3.437 -10.793  1.00  0.00    -0.353 OA
HETATM   32  C   UNL     1     -24.909  -3.281  -9.746  1.00  0.00     0.210 C 
ENDBRANCH  27  31
ENDBRANCH  22  23
ENDBRANCH  20  22
ENDBRANCH  17  18
ENDBRANCH   1  17
TORSDOF 19
ENDMDL
MODEL 3
REMARK VINA RESULT:      -7.9      1.805      2.410
REMARK  19 active torsions:
REMARK  status: ('A' for Active; 'I' for Inactive)
REMARK    1  A    between atoms: C_2  and  C_3 
REMARK    2  A    between atoms: C_3  and  C_4 
REMARK    3  A    between atoms: C_4  and  C_5 
REMARK    4  A    between atoms: C_5  and  C_6 
REMARK    5  A    between atoms: C_6  and  C_7 
REMARK    6  A    between atoms: C_7  and  C_8 
REMARK    7  A    between atoms: C_8  and  C_9 
REMARK    8  A    between atoms: C_10  and  C_11 
REMARK    9  A    between atoms: C_11  and  C_12 
REMARK   10  A    between atoms: C_12  and  C_13 
REMARK   11  A    between atoms: C_13  and  C_14 
REMARK   12  A    between atoms: C_14  and  C_15 
REMARK   13  A    between atoms: C_15  and  C_16 
REMARK   14  A    between atoms: C_16  and  C_17 
REMARK   15  A    between atoms: C_17  and  C_18 
REMARK       I    between atoms: C_18  and  N_20 
REMARK   16  A    between atoms: N_20  and  C_21 
REMARK   17  A    between atoms: C_21  and  C_22 
REMARK   18  A    between atoms: C_25  and  O_26 
REMARK   19  A    between atoms: C_27  and  O_28 
ROOT
HETATM    1  C   UNL     1     -21.621  -7.878  -4.530  1.00  0.00     0.009 C 
ENDROOT
BRANCH   1   2
HETATM    2  C   UNL     1     -21.163  -7.614  -3.100  1.00  0.00     0.000 C 
BRANCH   2   3
HETATM    3  C   UNL     1     -21.974  -6.484  -2.484  1.00  0.00     0.000 C 
BRANCH   3   4
HETATM    4  C   UNL     1     -22.172  -6.701  -0.987  1.00  0.00     0.000 C 
BRANCH   4   5
HETATM    5  C   UNL     1     -21.415  -7.934  -0.506  1.00  0.00     0.004 C 
BRANCH   5   6
HETATM    6  C   UNL     1     -22.060  -8.513   0.749  1.00  0.00     0.027 C 
BRANCH   6   7
HETATM    7  C   UNL     1     -22.527  -9.908   0.522  1.00  0.00    -0.031 C 
HETATM    8  C   UNL     1     -23.500 -10.197  -0.356  1.00  0.00    -0.031 C 
BRANCH   8   9
HETATM    9  C   UNL     1     -23.965 -11.594  -0.591  1.00  0.00     0.027 C 
BRANCH   9  10
HETATM   10  C   UNL     1     -23.221 -12.209  -1.765  1.00  0.00     0.004 C 
BRANCH  10  11
HETATM   11  C   UNL     1     -22.840 -11.128  -2.763  1.00  0.00     0.000 C 
BRANCH  11  12
HETATM   12  C   UNL     1     -21.385 -11.282  -3.170  1.00  0.00     0.000 C 
BRANCH  12  13
HETATM   13  C   UNL     1     -20.624 -12.063  -2.111  1.00  0.00     0.000 C 
BRANCH  13  14
HETATM   14  C   UNL     1     -19.649 -11.150  -1.385  1.00  0.00    -0.000 C 
BRANCH  14  15
HETATM   15  C   UNL     1     -19.333 -11.695   0.000  1.00  0.00    -0.005 C 
HETATM   16  C   UNL     1     -17.887 -12.147   0.076  1.00  0.00     0.005 C 
ENDBRANCH  14  15
ENDBRANCH  13  14
ENDBRANCH  12  13
ENDBRANCH  11  12
ENDBRANCH  10  11
ENDBRANCH   9  10
ENDBRANCH   8   9
ENDBRANCH   6   7
ENDBRANCH   5   6
ENDBRANCH   4   5
ENDBRANCH   3   4
ENDBRANCH   2   3
ENDBRANCH   1   2
BRANCH   1  17
HETATM   17  C   UNL     1     -20.708  -7.218  -5.565  1.00  0.00     0.103 C 
BRANCH  17  18
HETATM   18  C   UNL     1     -21.318  -5.910  -6.045  1.00  0.00     0.217 C 
HETATM   19  O   UNL     1     -22.487  -5.622  -5.825  1.00  0.00    -0.274 OA
HETATM   20  N   UNL     1     -20.444  -5.079  -6.723  1.00  0.00    -0.357 N 
HETATM   21  H   UNL     1     -19.469  -5.322  -6.856  1.00  0.00     0.162 HD
BRANCH  20  22
HETATM   22  C   UNL     1     -20.925  -3.808  -7.223  1.00  0.00     0.161 C 
BRANCH  22  23
HETATM   23  C   UNL     1     -21.229  -3.842  -8.699  1.00  0.00    -0.038 A 
HETATM   24  C   UNL     1     -20.203  -4.108  -9.611  1.00  0.00     0.012 A 
HETATM   25  C   UNL     1     -20.455  -4.145 -10.980  1.00  0.00     0.040 A 
HETATM   26  C   UNL     1     -21.744  -3.912 -11.458  1.00  0.00     0.099 A 
HETATM   27  C   UNL     1     -22.796  -3.640 -10.577  1.00  0.00     0.101 A 
HETATM   28  C   UNL     1     -22.517  -3.603  -9.197  1.00  0.00     0.048 A 
BRANCH  26  29
HETATM   29  O   UNL     1     -21.932  -3.962 -12.814  1.00  0.00    -0.358 OA
HETATM   30  H   UNL     1     -21.091  -4.060 -13.269  1.00  0.00     0.217 HD
ENDBRANCH  26  29
BRANCH  27  31
HETATM   31  O   UNL     1     -24.105  -3.393 -10.903  1.00  0.00    -0.353 OA
HETATM   32  C   UNL     1     -25.053  -3.267  -9.854  1.00  0.00     0.210 C 
ENDBRANCH  27  31
ENDBRANCH  22  23
ENDBRANCH  20  22
ENDBRANCH  17  18
ENDBRANCH   1  17
TORSDOF 19
ENDMDL
MODEL 4
REMARK VINA RESULT:      -7.9      1.683      2.753
REMARK  19 active torsions:
REMARK  status: ('A' for Active; 'I' for Inactive)
REMARK    1  A    between atoms: C_2  and  C_3 
REMARK    2  A    between atoms: C_3  and  C_4 
REMARK    3  A    between atoms: C_4  and  C_5 
REMARK    4  A    between atoms: C_5  and  C_6 
REMARK    5  A    between atoms: C_6  and  C_7 
REMARK    6  A    between atoms: C_7  and  C_8 
REMARK    7  A    between atoms: C_8  and  C_9 
REMARK    8  A    between atoms: C_10  and  C_11 
REMARK    9  A    between atoms: C_11  and  C_12 
REMARK   10  A    between atoms: C_12  and  C_13 
REMARK   11  A    between atoms: C_13  and  C_14 
REMARK   12  A    between atoms: C_14  and  C_15 
REMARK   13  A    between atoms: C_15  and  C_16 
REMARK   14  A    between atoms: C_16  and  C_17 
REMARK   15  A    between atoms: C_17  and  C_18 
REMARK       I    between atoms: C_18  and  N_20 
REMARK   16  A    between atoms: N_20  and  C_21 
REMARK   17  A    between atoms: C_21  and  C_22 
REMARK   18  A    between atoms: C_25  and  O_26 
REMARK   19  A    between atoms: C_27  and  O_28 
ROOT
HETATM    1  C   UNL     1     -21.621  -8.222  -4.046  1.00  0.00     0.009 C 
ENDROOT
BRANCH   1   2
HETATM    2  C   UNL     1     -20.669  -8.329  -2.860  1.00  0.00     0.000 C 
BRANCH   2   3
HETATM    3  C   UNL     1     -20.832  -7.130  -1.939  1.00  0.00     0.000 C 
BRANCH   3   4
HETATM    4  C   UNL     1     -22.287  -6.954  -1.516  1.00  0.00     0.000 C 
BRANCH   4   5
HETATM    5  C   UNL     1     -22.637  -7.877  -0.353  1.00  0.00     0.004 C 
BRANCH   5   6
HETATM    6  C   UNL     1     -21.595  -7.775   0.756  1.00  0.00     0.027 C 
BRANCH   6   7
HETATM    7  C   UNL     1     -21.114  -9.120   1.171  1.00  0.00    -0.031 C 
HETATM    8  C   UNL     1     -21.060 -10.151   0.314  1.00  0.00    -0.031 C 
BRANCH   8   9
HETATM    9  C   UNL     1     -20.572 -11.499   0.725  1.00  0.00     0.027 C 
BRANCH   9  10
HETATM   10  C   UNL     1     -19.194 -11.765   0.139  1.00  0.00     0.004 C 
BRANCH  10  11
HETATM   11  C   UNL     1     -19.197 -11.463  -1.350  1.00  0.00     0.000 C 
BRANCH  11  12
HETATM   12  C   UNL     1     -19.938 -12.554  -2.103  1.00  0.00     0.000 C 
BRANCH  12  13
HETATM   13  C   UNL     1     -20.953 -11.938  -3.053  1.00  0.00     0.000 C 
BRANCH  13  14
HETATM   14  C   UNL     1     -22.358 -12.379  -2.677  1.00  0.00    -0.000 C 
BRANCH  14  15
HETATM   15  C   UNL     1     -23.243 -11.172  -2.400  1.00  0.00    -0.005 C 
HETATM   16  C   UNL     1     -24.026 -11.371  -1.117  1.00  0.00     0.005 C 
ENDBRANCH  14  15
ENDBRANCH  13  14
ENDBRANCH  12  13
ENDBRANCH  11  12
ENDBRANCH  10  11
ENDBRANCH   9  10
ENDBRANCH   8   9
ENDBRANCH   6   7
ENDBRANCH   5   6
ENDBRANCH   4   5
ENDBRANCH   3   4
ENDBRANCH   2   3
ENDBRANCH   1   2
BRANCH   1  17
HETATM   17  C   UNL     1     -20.928  -7.690  -5.302  1.00  0.00     0.103 C 
BRANCH  17  18
HETATM   18  C   UNL     1     -21.489  -6.326  -5.673  1.00  0.00     0.217 C 
HETATM   19  O   UNL     1     -22.551  -5.918  -5.222  1.00  0.00    -0.274 OA
HETATM   20  N   UNL     1     -20.696  -5.590  -6.536  1.00  0.00    -0.357 N 
HETATM   21  H   UNL     1     -19.800  -5.932  -6.863  1.00  0.00     0.162 HD
BRANCH  20  22
HETATM   22  C   UNL     1     -21.139  -4.275  -6.953  1.00  0.00     0.161 C 
BRANCH  22  23
HETATM   23  C   UNL     1     -21.332  -4.173  -8.444  1.00  0.00    -0.038 A 
HETATM   24  C   UNL     1     -20.253  -4.417  -9.299  1.00  0.00     0.012 A 
HETATM   25  C   UNL     1     -20.401  -4.329 -10.681  1.00  0.00     0.040 A 
HETATM   26  C   UNL     1     -21.638  -3.993 -11.229  1.00  0.00     0.099 A 
HETATM   27  C   UNL     1     -22.741  -3.740 -10.406  1.00  0.00     0.101 A 
HETATM   28  C   UNL     1     -22.566  -3.830  -9.011  1.00  0.00     0.048 A 
BRANCH  26  29
HETATM   29  O   UNL     1     -21.725  -3.921 -12.594  1.00  0.00    -0.358 OA
HETATM   30  H   UNL     1     -21.245  -3.156 -12.924  1.00  0.00     0.217 HD
ENDBRANCH  26  29
BRANCH  27  31
HETATM   31  O   UNL     1     -24.009  -3.401 -10.803  1.00  0.00    -0.353 OA
HETATM   32  C   UNL     1     -25.002  -3.207  -9.808  1.00  0.00     0.210 C 
ENDBRANCH  27  31
ENDBRANCH  22  23
ENDBRANCH  20  22
ENDBRANCH  17  18
ENDBRANCH   1  17
TORSDOF 19
ENDMDL
MODEL 5
REMARK VINA RESULT:      -7.8      2.061      2.641
REMARK  19 active torsions:
REMARK  status: ('A' for Active; 'I' for Inactive)
REMARK    1  A    between atoms: C_2  and  C_3 
REMARK    2  A    between atoms: C_3  and  C_4 
REMARK    3  A    between atoms: C_4  and  C_5 
REMARK    4  A    between atoms: C_5  and  C_6 
REMARK    5  A    between atoms: C_6  and  C_7 
REMARK    6  A    between atoms: C_7  and  C_8 
REMARK    7  A    between atoms: C_8  and  C_9 
REMARK    8  A    between atoms: C_10  and  C_11 
REMARK    9  A    between atoms: C_11  and  C_12 
REMARK   10  A    between atoms: C_12  and  C_13 
REMARK   11  A    between atoms: C_13  and  C_14 
REMARK   12  A    between atoms: C_14  and  C_15 
REMARK   13  A    between atoms: C_15  and  C_16 
REMARK   14  A    between atoms: C_16  and  C_17 
REMARK   15  A    between atoms: C_17  and  C_18 
REMARK       I    between atoms: C_18  and  N_20 
REMARK   16  A    between atoms: N_20  and  C_21 
REMARK   17  A    between atoms: C_21  and  C_22 
REMARK   18  A    between atoms: C_25  and  O_26 
REMARK   19  A    between atoms: C_27  and  O_28 
ROOT
HETATM    1  C   UNL     1     -20.095  -8.296  -4.520  1.00  0.00     0.009 C 
ENDROOT
BRANCH   1   2
HETATM    2  C   UNL     1     -20.529  -9.063  -3.277  1.00  0.00     0.000 C 
BRANCH   2   3
HETATM    3  C   UNL     1     -20.292  -8.227  -2.028  1.00  0.00     0.000 C 
BRANCH   3   4
HETATM    4  C   UNL     1     -21.176  -6.984  -2.021  1.00  0.00     0.000 C 
BRANCH   4   5
HETATM    5  C   UNL     1     -22.349  -7.150  -1.061  1.00  0.00     0.004 C 
BRANCH   5   6
HETATM    6  C   UNL     1     -21.875  -7.661   0.295  1.00  0.00     0.027 C 
BRANCH   6   7
HETATM    7  C   UNL     1     -22.523  -8.956   0.640  1.00  0.00    -0.031 C 
HETATM    8  C   UNL     1     -23.239  -9.653  -0.256  1.00  0.00    -0.031 C 
BRANCH   8   9
HETATM    9  C   UNL     1     -23.883 -10.954   0.084  1.00  0.00     0.027 C 
BRANCH   9  10
HETATM   10  C   UNL     1     -24.068 -11.796  -1.168  1.00  0.00     0.004 C 
BRANCH  10  11
HETATM   11  C   UNL     1     -23.191 -11.261  -2.288  1.00  0.00     0.000 C 
BRANCH  11  12
HETATM   12  C   UNL     1     -22.642 -12.410  -3.116  1.00  0.00     0.000 C 
BRANCH  12  13
HETATM   13  C   UNL     1     -22.396 -11.955  -4.545  1.00  0.00     0.000 C 
BRANCH  13  14
HETATM   14  C   UNL     1     -20.938 -12.167  -4.919  1.00  0.00    -0.000 C 
BRANCH  14  15
HETATM   15  C   UNL     1     -20.704 -11.821  -6.383  1.00  0.00    -0.005 C 
HETATM   16  C   UNL     1     -19.220 -11.701  -6.669  1.00  0.00     0.005 C 
ENDBRANCH  14  15
ENDBRANCH  13  14
ENDBRANCH  12  13
ENDBRANCH  11  12
ENDBRANCH  10  11
ENDBRANCH   9  10
ENDBRANCH   8   9
ENDBRANCH   6   7
ENDBRANCH   5   6
ENDBRANCH   4   5
ENDBRANCH   3   4
ENDBRANCH   2   3
ENDBRANCH   1   2
BRANCH   1  17
HETATM   17  C   UNL     1     -21.231  -8.138  -5.533  1.00  0.00     0.103 C 
BRANCH  17  18
HETATM   18  C   UNL     1     -21.496  -6.664  -5.799  1.00  0.00     0.217 C 
HETATM   19  O   UNL     1     -22.275  -6.013  -5.115  1.00  0.00    -0.274 OA
HETATM   20  N   UNL     1     -20.776  -6.128  -6.851  1.00  0.00    -0.357 N 
HETATM   21  H   UNL     1     -20.105  -6.677  -7.376  1.00  0.00     0.162 HD
BRANCH  20  22
HETATM   22  C   UNL     1     -20.955  -4.731  -7.189  1.00  0.00     0.161 C 
BRANCH  22  23
HETATM   23  C   UNL     1     -21.214  -4.517  -8.659  1.00  0.00    -0.038 A 
HETATM   24  C   UNL     1     -20.141  -4.506  -9.556  1.00  0.00     0.012 A 
HETATM   25  C   UNL     1     -20.350  -4.309 -10.918  1.00  0.00     0.040 A 
HETATM   26  C   UNL     1     -21.643  -4.118 -11.404  1.00  0.00     0.099 A 
HETATM   27  C   UNL     1     -22.741  -4.121 -10.538  1.00  0.00     0.101 A 
HETATM   28  C   UNL     1     -22.506  -4.316  -9.163  1.00  0.00     0.048 A 
BRANCH  26  29
HETATM   29  O   UNL     1     -21.788  -3.930 -12.754  1.00  0.00    -0.358 OA
HETATM   30  H   UNL     1     -22.455  -4.526 -13.108  1.00  0.00     0.217 HD
ENDBRANCH  26  29
BRANCH  27  31
HETATM   31  O   UNL     1     -24.060  -3.946 -10.874  1.00  0.00    -0.353 OA
HETATM   32  C   UNL     1     -24.906  -3.260  -9.963  1.00  0.00     0.210 C 
ENDBRANCH  27  31
ENDBRANCH  22  23
ENDBRANCH  20  22
ENDBRANCH  17  18
ENDBRANCH   1  17
TORSDOF 19
ENDMDL
MODEL 6
REMARK VINA RESULT:      -7.6      1.556      1.950
REMARK  19 active torsions:
REMARK  status: ('A' for Active; 'I' for Inactive)
REMARK    1  A    between atoms: C_2  and  C_3 
REMARK    2  A    between atoms: C_3  and  C_4 
REMARK    3  A    between atoms: C_4  and  C_5 
REMARK    4  A    between atoms: C_5  and  C_6 
REMARK    5  A    between atoms: C_6  and  C_7 
REMARK    6  A    between atoms: C_7  and  C_8 
REMARK    7  A    between atoms: C_8  and  C_9 
REMARK    8  A    between atoms: C_10  and  C_11 
REMARK    9  A    between atoms: C_11  and  C_12 
REMARK   10  A    between atoms: C_12  and  C_13 
REMARK   11  A    between atoms: C_13  and  C_14 
REMARK   12  A    between atoms: C_14  and  C_15 
REMARK   13  A    between atoms: C_15  and  C_16 
REMARK   14  A    between atoms: C_16  and  C_17 
REMARK   15  A    between atoms: C_17  and  C_18 
REMARK       I    between atoms: C_18  and  N_20 
REMARK   16  A    between atoms: N_20  and  C_21 
REMARK   17  A    between atoms: C_21  and  C_22 
REMARK   18  A    between atoms: C_25  and  O_26 
REMARK   19  A    between atoms: C_27  and  O_28 
ROOT
HETATM    1  C   UNL     1     -21.757  -7.408  -3.780  1.00  0.00     0.009 C 
ENDROOT
BRANCH   1   2
HETATM    2  C   UNL     1     -21.746  -6.541  -2.526  1.00  0.00     0.000 C 
BRANCH   2   3
HETATM    3  C   UNL     1     -21.327  -7.362  -1.317  1.00  0.00     0.000 C 
BRANCH   3   4
HETATM    4  C   UNL     1     -22.508  -7.612  -0.384  1.00  0.00     0.000 C 
BRANCH   4   5
HETATM    5  C   UNL     1     -22.377  -8.960   0.319  1.00  0.00     0.004 C 
BRANCH   5   6
HETATM    6  C   UNL     1     -23.275 -10.004  -0.335  1.00  0.00     0.027 C 
BRANCH   6   7
HETATM    7  C   UNL     1     -22.505 -10.872  -1.267  1.00  0.00    -0.031 C 
HETATM    8  C   UNL     1     -22.645 -10.784  -2.599  1.00  0.00    -0.031 C 
BRANCH   8   9
HETATM    9  C   UNL     1     -21.869 -11.646  -3.536  1.00  0.00     0.027 C 
BRANCH   9  10
HETATM   10  C   UNL     1     -21.369 -10.830  -4.716  1.00  0.00     0.004 C 
BRANCH  10  11
HETATM   11  C   UNL     1     -19.903 -11.137  -4.976  1.00  0.00     0.000 C 
BRANCH  11  12
HETATM   12  C   UNL     1     -19.072  -9.873  -4.842  1.00  0.00     0.000 C 
BRANCH  12  13
HETATM   13  C   UNL     1     -18.934  -9.489  -3.378  1.00  0.00     0.000 C 
BRANCH  13  14
HETATM   14  C   UNL     1     -17.496  -9.670  -2.921  1.00  0.00    -0.000 C 
BRANCH  14  15
HETATM   15  C   UNL     1     -16.555  -9.718  -4.117  1.00  0.00    -0.005 C 
HETATM   16  C   UNL     1     -15.529 -10.820  -3.941  1.00  0.00     0.005 C 
ENDBRANCH  14  15
ENDBRANCH  13  14
ENDBRANCH  12  13
ENDBRANCH  11  12
ENDBRANCH  10  11
ENDBRANCH   9  10
ENDBRANCH   8   9
ENDBRANCH   6   7
ENDBRANCH   5   6
ENDBRANCH   4   5
ENDBRANCH   3   4
ENDBRANCH   2   3
ENDBRANCH   1   2
BRANCH   1  17
HETATM   17  C   UNL     1     -22.362  -6.683  -4.984  1.00  0.00     0.103 C 
BRANCH  17  18
HETATM   18  C   UNL     1     -21.281  -5.925  -5.738  1.00  0.00     0.217 C 
HETATM   19  O   UNL     1     -20.105  -6.261  -5.695  1.00  0.00    -0.274 OA
HETATM   20  N   UNL     1     -21.739  -4.852  -6.482  1.00  0.00    -0.357 N 
HETATM   21  H   UNL     1     -22.724  -4.619  -6.536  1.00  0.00     0.162 HD
BRANCH  20  22
HETATM   22  C   UNL     1     -20.790  -4.062  -7.239  1.00  0.00     0.161 C 
BRANCH  22  23
HETATM   23  C   UNL     1     -21.117  -4.011  -8.709  1.00  0.00    -0.038 A 
HETATM   24  C   UNL     1     -20.108  -4.234  -9.651  1.00  0.00     0.012 A 
HETATM   25  C   UNL     1     -20.381  -4.192 -11.016  1.00  0.00     0.040 A 
HETATM   26  C   UNL     1     -21.675  -3.924 -11.459  1.00  0.00     0.099 A 
HETATM   27  C   UNL     1     -22.711  -3.694 -10.548  1.00  0.00     0.101 A 
HETATM   28  C   UNL     1     -22.411  -3.736  -9.173  1.00  0.00     0.048 A 
BRANCH  26  29
HETATM   29  O   UNL     1     -21.885  -3.896 -12.813  1.00  0.00    -0.358 OA
HETATM   30  H   UNL     1     -21.944  -2.988 -13.127  1.00  0.00     0.217 HD
ENDBRANCH  26  29
BRANCH  27  31
HETATM   31  O   UNL     1     -24.023  -3.419 -10.839  1.00  0.00    -0.353 OA
HETATM   32  C   UNL     1     -24.935  -3.249  -9.764  1.00  0.00     0.210 C 
ENDBRANCH  27  31
ENDBRANCH  22  23
ENDBRANCH  20  22
ENDBRANCH  17  18
ENDBRANCH   1  17
TORSDOF 19
ENDMDL
MODEL 7
REMARK VINA RESULT:      -7.3      2.224      4.382
REMARK  19 active torsions:
REMARK  status: ('A' for Active; 'I' for Inactive)
REMARK    1  A    between atoms: C_2  and  C_3 
REMARK    2  A    between atoms: C_3  and  C_4 
REMARK    3  A    between atoms: C_4  and  C_5 
REMARK    4  A    between atoms: C_5  and  C_6 
REMARK    5  A    between atoms: C_6  and  C_7 
REMARK    6  A    between atoms: C_7  and  C_8 
REMARK    7  A    between atoms: C_8  and  C_9 
REMARK    8  A    between atoms: C_10  and  C_11 
REMARK    9  A    between atoms: C_11  and  C_12 
REMARK   10  A    between atoms: C_12  and  C_13 
REMARK   11  A    between atoms: C_13  and  C_14 
REMARK   12  A    between atoms: C_14  and  C_15 
REMARK   13  A    between atoms: C_15  and  C_16 
REMARK   14  A    between atoms: C_16  and  C_17 
REMARK   15  A    between atoms: C_17  and  C_18 
REMARK       I    between atoms: C_18  and  N_20 
REMARK   16  A    between atoms: N_20  and  C_21 
REMARK   17  A    between atoms: C_21  and  C_22 
REMARK   18  A    between atoms: C_25  and  O_26 
REMARK   19  A    between atoms: C_27  and  O_28 
ROOT
HETATM    1  C   UNL     1     -20.611  -8.210  -4.018  1.00  0.00     0.009 C 
ENDROOT
BRANCH   1   2
HETATM    2  C   UNL     1     -19.934  -9.574  -3.947  1.00  0.00     0.000 C 
BRANCH   2   3
HETATM    3  C   UNL     1     -19.512 -10.029  -5.336  1.00  0.00     0.000 C 
BRANCH   3   4
HETATM    4  C   UNL     1     -19.967 -11.458  -5.610  1.00  0.00     0.000 C 
BRANCH   4   5
HETATM    5  C   UNL     1     -21.215 -11.480  -6.487  1.00  0.00     0.004 C 
BRANCH   5   6
HETATM    6  C   UNL     1     -22.047 -12.730  -6.220  1.00  0.00     0.027 C 
BRANCH   6   7
HETATM    7  C   UNL     1     -21.832 -13.236  -4.838  1.00  0.00    -0.031 C 
HETATM    8  C   UNL     1     -22.709 -12.996  -3.850  1.00  0.00    -0.031 C 
BRANCH   8   9
HETATM    9  C   UNL     1     -22.501 -13.508  -2.465  1.00  0.00     0.027 C 
BRANCH   9  10
HETATM   10  C   UNL     1     -22.997 -12.495  -1.446  1.00  0.00     0.004 C 
BRANCH  10  11
HETATM   11  C   UNL     1     -22.992 -11.102  -2.054  1.00  0.00     0.000 C 
BRANCH  11  12
HETATM   12  C   UNL     1     -22.303 -10.125  -1.117  1.00  0.00     0.000 C 
BRANCH  12  13
HETATM   13  C   UNL     1     -23.292  -9.600  -0.089  1.00  0.00     0.000 C 
BRANCH  13  14
HETATM   14  C   UNL     1     -22.941  -8.172   0.297  1.00  0.00    -0.000 C 
BRANCH  14  15
HETATM   15  C   UNL     1     -21.827  -7.635  -0.591  1.00  0.00    -0.005 C 
HETATM   16  C   UNL     1     -22.318  -6.450  -1.400  1.00  0.00     0.005 C 
ENDBRANCH  14  15
ENDBRANCH  13  14
ENDBRANCH  12  13
ENDBRANCH  11  12
ENDBRANCH  10  11
ENDBRANCH   9  10
ENDBRANCH   8   9
ENDBRANCH   6   7
ENDBRANCH   5   6
ENDBRANCH   4   5
ENDBRANCH   3   4
ENDBRANCH   2   3
ENDBRANCH   1   2
BRANCH   1  17
HETATM   17  C   UNL     1     -21.273  -7.958  -5.375  1.00  0.00     0.103 C 
BRANCH  17  18
HETATM   18  C   UNL     1     -21.400  -6.464  -5.628  1.00  0.00     0.217 C 
HETATM   19  O   UNL     1     -21.990  -5.724  -4.852  1.00  0.00    -0.274 OA
HETATM   20  N   UNL     1     -20.782  -6.019  -6.783  1.00  0.00    -0.357 N 
HETATM   21  H   UNL     1     -20.264  -6.645  -7.388  1.00  0.00     0.162 HD
BRANCH  20  22
HETATM   22  C   UNL     1     -20.844  -4.611  -7.118  1.00  0.00     0.161 C 
BRANCH  22  23
HETATM   23  C   UNL     1     -21.104  -4.373  -8.584  1.00  0.00    -0.038 A 
HETATM   24  C   UNL     1     -20.114  -4.684  -9.521  1.00  0.00     0.012 A 
HETATM   25  C   UNL     1     -20.327  -4.474 -10.881  1.00  0.00     0.040 A 
HETATM   26  C   UNL     1     -21.538  -3.946 -11.324  1.00  0.00     0.099 A 
HETATM   27  C   UNL     1     -22.552  -3.621 -10.417  1.00  0.00     0.101 A 
HETATM   28  C   UNL     1     -22.313  -3.837  -9.045  1.00  0.00     0.048 A 
BRANCH  26  29
HETATM   29  O   UNL     1     -21.691  -3.761 -12.673  1.00  0.00    -0.358 OA
HETATM   30  H   UNL     1     -22.574  -4.021 -12.952  1.00  0.00     0.217 HD
ENDBRANCH  26  29
BRANCH  27  31
HETATM   31  O   UNL     1     -23.786  -3.097 -10.707  1.00  0.00    -0.353 OA
HETATM   32  C   UNL     1     -24.899  -3.515  -9.933  1.00  0.00     0.210 C 
ENDBRANCH  27  31
ENDBRANCH  22  23
ENDBRANCH  20  22
ENDBRANCH  17  18
ENDBRANCH   1  17
TORSDOF 19
ENDMDL
MODEL 8
REMARK VINA RESULT:      -7.3      1.265      3.861
REMARK  19 active torsions:
REMARK  status: ('A' for Active; 'I' for Inactive)
REMARK    1  A    between atoms: C_2  and  C_3 
REMARK    2  A    between atoms: C_3  and  C_4 
REMARK    3  A    between atoms: C_4  and  C_5 
REMARK    4  A    between atoms: C_5  and  C_6 
REMARK    5  A    between atoms: C_6  and  C_7 
REMARK    6  A    between atoms: C_7  and  C_8 
REMARK    7  A    between atoms: C_8  and  C_9 
REMARK    8  A    between atoms: C_10  and  C_11 
REMARK    9  A    between atoms: C_11  and  C_12 
REMARK   10  A    between atoms: C_12  and  C_13 
REMARK   11  A    between atoms: C_13  and  C_14 
REMARK   12  A    between atoms: C_14  and  C_15 
REMARK   13  A    between atoms: C_15  and  C_16 
REMARK   14  A    between atoms: C_16  and  C_17 
REMARK   15  A    between atoms: C_17  and  C_18 
REMARK       I    between atoms: C_18  and  N_20 
REMARK   16  A    between atoms: N_20  and  C_21 
REMARK   17  A    between atoms: C_21  and  C_22 
REMARK   18  A    between atoms: C_25  and  O_26 
REMARK   19  A    between atoms: C_27  and  O_28 
ROOT
HETATM    1  C   UNL     1     -20.505  -8.886  -5.112  1.00  0.00     0.009 C 
ENDROOT
BRANCH   1   2
HETATM    2  C   UNL     1     -19.653  -8.746  -3.856  1.00  0.00     0.000 C 
BRANCH   2   3
HETATM    3  C   UNL     1     -18.379  -9.566  -3.984  1.00  0.00     0.000 C 
BRANCH   3   4
HETATM    4  C   UNL     1     -17.462  -9.352  -2.784  1.00  0.00     0.000 C 
BRANCH   4   5
HETATM    5  C   UNL     1     -16.343 -10.388  -2.756  1.00  0.00     0.004 C 
BRANCH   5   6
HETATM    6  C   UNL     1     -16.905 -11.793  -2.568  1.00  0.00     0.027 C 
BRANCH   6   7
HETATM    7  C   UNL     1     -17.641 -11.912  -1.280  1.00  0.00    -0.031 C 
HETATM    8  C   UNL     1     -18.839 -12.512  -1.199  1.00  0.00    -0.031 C 
BRANCH   8   9
HETATM    9  C   UNL     1     -19.575 -12.640   0.091  1.00  0.00     0.027 C 
BRANCH   9  10
HETATM   10  C   UNL     1     -20.732 -11.655   0.140  1.00  0.00     0.004 C 
BRANCH  10  11
HETATM   11  C   UNL     1     -20.461 -10.588   1.188  1.00  0.00     0.000 C 
BRANCH  11  12
HETATM   12  C   UNL     1     -21.033  -9.255   0.736  1.00  0.00     0.000 C 
BRANCH  12  13
HETATM   13  C   UNL     1     -21.042  -9.176  -0.782  1.00  0.00     0.000 C 
BRANCH  13  14
HETATM   14  C   UNL     1     -22.316  -8.502  -1.266  1.00  0.00    -0.000 C 
BRANCH  14  15
HETATM   15  C   UNL     1     -22.365  -7.053  -0.803  1.00  0.00    -0.005 C 
HETATM   16  C   UNL     1     -22.095  -6.115  -1.963  1.00  0.00     0.005 C 
ENDBRANCH  14  15
ENDBRANCH  13  14
ENDBRANCH  12  13
ENDBRANCH  11  12
ENDBRANCH  10  11
ENDBRANCH   9  10
ENDBRANCH   8   9
ENDBRANCH   6   7
ENDBRANCH   5   6
ENDBRANCH   4   5
ENDBRANCH   3   4
ENDBRANCH   2   3
ENDBRANCH   1   2
BRANCH   1  17
HETATM   17  C   UNL     1     -21.404  -7.671  -5.345  1.00  0.00     0.103 C 
BRANCH  17  18
HETATM   18  C   UNL     1     -20.681  -6.637  -6.194  1.00  0.00     0.217 C 
HETATM   19  O   UNL     1     -19.654  -6.905  -6.805  1.00  0.00    -0.274 OA
HETATM   20  N   UNL     1     -21.287  -5.394  -6.233  1.00  0.00    -0.357 N 
HETATM   21  H   UNL     1     -22.160  -5.209  -5.753  1.00  0.00     0.162 HD
BRANCH  20  22
HETATM   22  C   UNL     1     -20.678  -4.337  -7.015  1.00  0.00     0.161 C 
BRANCH  22  23
HETATM   23  C   UNL     1     -21.135  -4.339  -8.451  1.00  0.00    -0.038 A 
HETATM   24  C   UNL     1     -20.187  -4.327  -9.479  1.00  0.00     0.012 A 
HETATM   25  C   UNL     1     -20.580  -4.328 -10.814  1.00  0.00     0.040 A 
HETATM   26  C   UNL     1     -21.935  -4.339 -11.142  1.00  0.00     0.099 A 
HETATM   27  C   UNL     1     -22.913  -4.348 -10.142  1.00  0.00     0.101 A 
HETATM   28  C   UNL     1     -22.493  -4.342  -8.798  1.00  0.00     0.048 A 
BRANCH  26  29
HETATM   29  O   UNL     1     -22.262  -4.339 -12.472  1.00  0.00    -0.358 OA
HETATM   30  H   UNL     1     -23.169  -4.043 -12.597  1.00  0.00     0.217 HD
ENDBRANCH  26  29
BRANCH  27  31
HETATM   31  O   UNL     1     -24.274  -4.359 -10.316  1.00  0.00    -0.353 OA
HETATM   32  C   UNL     1     -25.024  -3.242  -9.863  1.00  0.00     0.210 C 
ENDBRANCH  27  31
ENDBRANCH  22  23
ENDBRANCH  20  22
ENDBRANCH  17  18
ENDBRANCH   1  17
TORSDOF 19
ENDMDL
MODEL 9
REMARK VINA RESULT:      -7.0      1.587      2.730
REMARK  19 active torsions:
REMARK  status: ('A' for Active; 'I' for Inactive)
REMARK    1  A    between atoms: C_2  and  C_3 
REMARK    2  A    between atoms: C_3  and  C_4 
REMARK    3  A    between atoms: C_4  and  C_5 
REMARK    4  A    between atoms: C_5  and  C_6 
REMARK    5  A    between atoms: C_6  and  C_7 
REMARK    6  A    between atoms: C_7  and  C_8 
REMARK    7  A    between atoms: C_8  and  C_9 
REMARK    8  A    between atoms: C_10  and  C_11 
REMARK    9  A    between atoms: C_11  and  C_12 
REMARK   10  A    between atoms: C_12  and  C_13 
REMARK   11  A    between atoms: C_13  and  C_14 
REMARK   12  A    between atoms: C_14  and  C_15 
REMARK   13  A    between atoms: C_15  and  C_16 
REMARK   14  A    between atoms: C_16  and  C_17 
REMARK   15  A    between atoms: C_17  and  C_18 
REMARK       I    between atoms: C_18  and  N_20 
REMARK   16  A    between atoms: N_20  and  C_21 
REMARK   17  A    between atoms: C_21  and  C_22 
REMARK   18  A    between atoms: C_25  and  O_26 
REMARK   19  A    between atoms: C_27  and  O_28 
ROOT
HETATM    1  C   UNL     1     -21.274  -7.134  -2.994  1.00  0.00     0.009 C 
ENDROOT
BRANCH   1   2
HETATM    2  C   UNL     1     -21.932  -7.008  -1.625  1.00  0.00     0.000 C 
BRANCH   2   3
HETATM    3  C   UNL     1     -21.324  -8.005  -0.651  1.00  0.00     0.000 C 
BRANCH   3   4
HETATM    4  C   UNL     1     -22.384  -8.953  -0.098  1.00  0.00     0.000 C 
BRANCH   4   5
HETATM    5  C   UNL     1     -22.138 -10.384  -0.564  1.00  0.00     0.004 C 
BRANCH   5   6
HETATM    6  C   UNL     1     -23.233 -10.841  -1.521  1.00  0.00     0.027 C 
BRANCH   6   7
HETATM    7  C   UNL     1     -22.735 -10.901  -2.922  1.00  0.00    -0.031 C 
HETATM    8  C   UNL     1     -21.456 -10.635  -3.234  1.00  0.00    -0.031 C 
BRANCH   8   9
HETATM    9  C   UNL     1     -20.952 -10.702  -4.635  1.00  0.00     0.027 C 
BRANCH   9  10
HETATM   10  C   UNL     1     -19.517 -10.203  -4.705  1.00  0.00     0.004 C 
BRANCH  10  11
HETATM   11  C   UNL     1     -18.760 -10.623  -3.456  1.00  0.00     0.000 C 
BRANCH  11  12
HETATM   12  C   UNL     1     -18.149  -9.406  -2.782  1.00  0.00     0.000 C 
BRANCH  12  13
HETATM   13  C   UNL     1     -16.643  -9.395  -2.988  1.00  0.00     0.000 C 
BRANCH  13  14
HETATM   14  C   UNL     1     -16.197 -10.676  -3.673  1.00  0.00    -0.000 C 
BRANCH  14  15
HETATM   15  C   UNL     1     -15.474 -10.365  -4.976  1.00  0.00    -0.005 C 
HETATM   16  C   UNL     1     -16.082 -11.151  -6.121  1.00  0.00     0.005 C 
ENDBRANCH  14  15
ENDBRANCH  13  14
ENDBRANCH  12  13
ENDBRANCH  11  12
ENDBRANCH  10  11
ENDBRANCH   9  10
ENDBRANCH   8   9
ENDBRANCH   6   7
ENDBRANCH   5   6
ENDBRANCH   4   5
ENDBRANCH   3   4
ENDBRANCH   2   3
ENDBRANCH   1   2
BRANCH   1  17
HETATM   17  C   UNL     1     -22.274  -6.966  -4.139  1.00  0.00     0.103 C 
BRANCH  17  18
HETATM   18  C   UNL     1     -21.550  -6.565  -5.415  1.00  0.00     0.217 C 
HETATM   19  O   UNL     1     -20.929  -7.377  -6.089  1.00  0.00    -0.274 OA
HETATM   20  N   UNL     1     -21.669  -5.229  -5.753  1.00  0.00    -0.357 N 
HETATM   21  H   UNL     1     -22.225  -4.585  -5.201  1.00  0.00     0.162 HD
BRANCH  20  22
HETATM   22  C   UNL     1     -21.016  -4.743  -6.951  1.00  0.00     0.161 C 
BRANCH  22  23
HETATM   23  C   UNL     1     -21.995  -4.336  -8.023  1.00  0.00    -0.038 A 
HETATM   24  C   UNL     1     -23.368  -4.382  -7.759  1.00  0.00     0.012 A 
HETATM   25  C   UNL     1     -24.295  -4.014  -8.730  1.00  0.00     0.040 A 
HETATM   26  C   UNL     1     -23.859  -3.593  -9.985  1.00  0.00     0.099 A 
HETATM   27  C   UNL     1     -22.495  -3.536 -10.288  1.00  0.00     0.101 A 
HETATM   28  C   UNL     1     -21.575  -3.918  -9.292  1.00  0.00     0.048 A 
BRANCH  26  29
HETATM   29  O   UNL     1     -24.817  -3.242 -10.900  1.00  0.00    -0.358 OA
HETATM   30  H   UNL     1     -24.856  -2.286 -10.999  1.00  0.00     0.217 HD
ENDBRANCH  26  29
BRANCH  27  31
HETATM   31  O   UNL     1     -21.926  -3.145 -11.473  1.00  0.00    -0.353 OA
HETATM   32  C   UNL     1     -20.510  -3.143 -11.577  1.00  0.00     0.210 C 
ENDBRANCH  27  31
ENDBRANCH  22  23
ENDBRANCH  20  22
ENDBRANCH  17  18
ENDBRANCH   1  17
TORSDOF 19
ENDMDL
