REMARK  19 active torsions:
REMARK  status: ('A' for Active; 'I' for Inactive)
REMARK    1  A    between atoms: C_2  and  C_3 
REMARK    2  A    between atoms: C_3  and  C_4 
REMARK    3  A    between atoms: C_4  and  C_5 
REMARK    4  A    between atoms: C_5  and  C_6 
REMARK    5  A    between atoms: C_6  and  C_7 
REMARK    6  A    between atoms: C_7  and  C_8 
REMARK    7  A    between atoms: C_8  and  C_9 
REMARK    8  A    between atoms: C_10  and  C_11 
REMARK    9  A    between atoms: C_11  and  C_12 
REMARK   10  A    between atoms: C_12  and  C_13 
REMARK   11  A    between atoms: C_13  and  C_14 
REMARK   12  A    between atoms: C_14  and  C_15 
REMARK   13  A    between atoms: C_15  and  C_16 
REMARK   14  A    between atoms: C_16  and  C_17 
REMARK   15  A    between atoms: C_17  and  C_18 
REMARK       I    between atoms: C_18  and  N_20 
REMARK   16  A    between atoms: N_20  and  C_21 
REMARK   17  A    between atoms: C_21  and  C_22 
REMARK   18  A    between atoms: C_25  and  O_26 
REMARK   19  A    between atoms: C_27  and  O_28 
ROOT
HETATM    1  C   UNL     1      16.455   7.041   7.557  1.00  0.00     0.009 C 
ENDROOT
BRANCH   1   2
HETATM    2  C   UNL     1      14.933   7.062   7.571  1.00  0.00     0.000 C 
BRANCH   2   3
HETATM    3  C   UNL     1      14.415   6.090   6.526  1.00  0.00     0.000 C 
BRANCH   3   4
HETATM    4  C   UNL     1      12.889   6.060   6.503  1.00  0.00     0.000 C 
BRANCH   4   5
HETATM    5  C   UNL     1      12.372   5.079   5.455  1.00  0.00     0.004 C 
BRANCH   5   6
HETATM    6  C   UNL     1      12.854   3.661   5.751  1.00  0.00     0.027 C 
BRANCH   6   7
HETATM    7  C   UNL     1      12.358   2.700   4.731  1.00  0.00    -0.031 C 
HETATM    8  C   UNL     1      11.595   1.651   5.056  1.00  0.00    -0.031 C 
BRANCH   8   9
HETATM    9  C   UNL     1      11.091   0.692   4.031  1.00  0.00     0.027 C 
BRANCH   9  10
HETATM   10  C   UNL     1       9.570   0.682   4.018  1.00  0.00     0.004 C 
BRANCH  10  11
HETATM   11  C   UNL     1       9.062  -0.299   2.969  1.00  0.00     0.000 C 
BRANCH  11  12
HETATM   12  C   UNL     1       7.541  -0.314   2.952  1.00  0.00     0.000 C 
BRANCH  12  13
HETATM   13  C   UNL     1       7.030  -1.293   1.904  1.00  0.00     0.000 C 
BRANCH  13  14
HETATM   14  C   UNL     1       5.507  -1.309   1.889  1.00  0.00    -0.000 C 
BRANCH  14  15
HETATM   15  C   UNL     1       4.986  -2.287   0.842  1.00  0.00    -0.005 C 
HETATM   16  C   UNL     1       3.469  -2.300   0.829  1.00  0.00     0.005 C 
ENDBRANCH  14  15
ENDBRANCH  13  14
ENDBRANCH  12  13
ENDBRANCH  11  12
ENDBRANCH  10  11
ENDBRANCH   9  10
ENDBRANCH   8   9
ENDBRANCH   6   7
ENDBRANCH   5   6
ENDBRANCH   4   5
ENDBRANCH   3   4
ENDBRANCH   2   3
ENDBRANCH   1   2
BRANCH   1  17
HETATM   17  C   UNL     1      17.025   8.001   8.575  1.00  0.00     0.103 C 
BRANCH  17  18
HETATM   18  C   UNL     1      18.560   8.004   8.550  1.00  0.00     0.217 C 
HETATM   19  O   UNL     1      19.207   7.292   7.815  1.00  0.00    -0.274 OA
HETATM   20  N   UNL     1      19.135   8.895   9.432  1.00  0.00    -0.357 N 
HETATM   21  H   UNL     1      20.145   8.889   9.535  1.00  0.00     0.162 HD
BRANCH  20  22
HETATM   22  C   UNL     1      18.374   9.701  10.364  1.00  0.00     0.161 C 
BRANCH  22  23
HETATM   23  C   UNL     1      18.073   8.965  11.647  1.00  0.00    -0.038 A 
HETATM   24  C   UNL     1      18.985   8.047  12.178  1.00  0.00     0.012 A 
HETATM   25  C   UNL     1      18.677   7.333  13.332  1.00  0.00     0.040 A 
HETATM   26  C   UNL     1      17.457   7.533  13.980  1.00  0.00     0.099 A 
HETATM   27  C   UNL     1      16.531   8.463  13.485  1.00  0.00     0.101 A 
HETATM   28  C   UNL     1      16.861   9.180  12.323  1.00  0.00     0.048 A 
BRANCH  26  29
HETATM   29  O   UNL     1      17.207   6.797  15.106  1.00  0.00    -0.358 OA
HETATM   30  H   UNL     1      17.965   6.216  15.280  1.00  0.00     0.217 HD
ENDBRANCH  26  29
BRANCH  27  31
HETATM   31  O   UNL     1      15.298   8.779  13.989  1.00  0.00    -0.353 OA
HETATM   32  C   UNL     1      14.861   8.096  15.157  1.00  0.00     0.210 C 
ENDBRANCH  27  31
ENDBRANCH  22  23
ENDBRANCH  20  22
ENDBRANCH  17  18
ENDBRANCH   1  17
TORSDOF 19
