MODEL 1
REMARK VINA RESULT:      -7.6      0.000      0.000
REMARK  19 active torsions:
REMARK  status: ('A' for Active; 'I' for Inactive)
REMARK    1  A    between atoms: C_2  and  C_3 
REMARK    2  A    between atoms: C_3  and  C_4 
REMARK    3  A    between atoms: C_4  and  C_5 
REMARK    4  A    between atoms: C_5  and  C_6 
REMARK    5  A    between atoms: C_6  and  C_7 
REMARK    6  A    between atoms: C_7  and  C_8 
REMARK    7  A    between atoms: C_8  and  C_9 
REMARK    8  A    between atoms: C_10  and  C_11 
REMARK    9  A    between atoms: C_11  and  C_12 
REMARK   10  A    between atoms: C_12  and  C_13 
REMARK   11  A    between atoms: C_13  and  C_14 
REMARK   12  A    between atoms: C_14  and  C_15 
REMARK   13  A    between atoms: C_15  and  C_16 
REMARK   14  A    between atoms: C_16  and  C_17 
REMARK   15  A    between atoms: C_17  and  C_18 
REMARK       I    between atoms: C_18  and  N_20 
REMARK   16  A    between atoms: N_20  and  C_21 
REMARK   17  A    between atoms: C_21  and  C_22 
REMARK   18  A    between atoms: C_25  and  O_26 
REMARK   19  A    between atoms: C_27  and  O_28 
ROOT
HETATM    1  C   UNL     1     -21.752  -7.132  -4.077  1.00  0.00     0.009 C 
ENDROOT
BRANCH   1   2
HETATM    2  C   UNL     1     -21.209  -5.998  -3.219  1.00  0.00     0.000 C 
BRANCH   2   3
HETATM    3  C   UNL     1     -21.986  -5.949  -1.915  1.00  0.00     0.000 C 
BRANCH   3   4
HETATM    4  C   UNL     1     -22.306  -7.351  -1.405  1.00  0.00     0.000 C 
BRANCH   4   5
HETATM    5  C   UNL     1     -22.038  -7.469   0.092  1.00  0.00     0.004 C 
BRANCH   5   6
HETATM    6  C   UNL     1     -22.841  -8.615   0.701  1.00  0.00     0.027 C 
BRANCH   6   7
HETATM    7  C   UNL     1     -23.060  -9.705  -0.287  1.00  0.00    -0.031 C 
HETATM    8  C   UNL     1     -23.887 -10.727  -0.045  1.00  0.00    -0.031 C 
BRANCH   8   9
HETATM    9  C   UNL     1     -24.112 -11.815  -1.040  1.00  0.00     0.027 C 
BRANCH   9  10
HETATM   10  C   UNL     1     -23.407 -11.490  -2.348  1.00  0.00     0.004 C 
BRANCH  10  11
HETATM   11  C   UNL     1     -22.475 -12.629  -2.738  1.00  0.00     0.000 C 
BRANCH  11  12
HETATM   12  C   UNL     1     -21.041 -12.130  -2.834  1.00  0.00     0.000 C 
BRANCH  12  13
HETATM   13  C   UNL     1     -20.388 -12.119  -1.459  1.00  0.00     0.000 C 
BRANCH  13  14
HETATM   14  C   UNL     1     -19.713 -10.778  -1.201  1.00  0.00    -0.000 C 
BRANCH  14  15
HETATM   15  C   UNL     1     -19.907  -9.838  -2.386  1.00  0.00    -0.005 C 
HETATM   16  C   UNL     1     -18.578  -9.254  -2.829  1.00  0.00     0.005 C 
ENDBRANCH  14  15
ENDBRANCH  13  14
ENDBRANCH  12  13
ENDBRANCH  11  12
ENDBRANCH  10  11
ENDBRANCH   9  10
ENDBRANCH   8   9
ENDBRANCH   6   7
ENDBRANCH   5   6
ENDBRANCH   4   5
ENDBRANCH   3   4
ENDBRANCH   2   3
ENDBRANCH   1   2
BRANCH   1  17
HETATM   17  C   UNL     1     -21.752  -6.759  -5.541  1.00  0.00     0.103 C 
BRANCH  17  18
HETATM   18  C   UNL     1     -20.347  -6.868  -6.150  1.00  0.00     0.217 C 
HETATM   19  O   UNL     1     -19.590  -7.780  -5.900  1.00  0.00    -0.274 OA
HETATM   20  N   UNL     1     -20.028  -5.842  -7.015  1.00  0.00    -0.357 N 
HETATM   21  H   UNL     1     -19.084  -5.799  -7.386  1.00  0.00     0.162 HD
BRANCH  20  22
HETATM   22  C   UNL     1     -20.896  -4.711  -7.269  1.00  0.00     0.161 C 
BRANCH  22  23
HETATM   23  C   UNL     1     -21.145  -4.498  -8.742  1.00  0.00    -0.038 A 
HETATM   24  C   UNL     1     -20.086  -4.494  -9.655  1.00  0.00     0.012 A 
HETATM   25  C   UNL     1     -20.317  -4.243 -11.004  1.00  0.00     0.040 A 
HETATM   26  C   UNL     1     -21.613  -4.004 -11.464  1.00  0.00     0.099 A 
HETATM   27  C   UNL     1     -22.700  -4.024 -10.577  1.00  0.00     0.101 A 
HETATM   28  C   UNL     1     -22.449  -4.285  -9.220  1.00  0.00     0.048 A 
BRANCH  26  29
HETATM   29  O   UNL     1     -21.779  -3.756 -12.800  1.00  0.00    -0.358 OA
HETATM   30  H   UNL     1     -22.574  -3.215 -12.926  1.00  0.00     0.217 HD
ENDBRANCH  26  29
BRANCH  27  31
HETATM   31  O   UNL     1     -24.023  -3.809 -10.855  1.00  0.00    -0.353 OA
HETATM   32  C   UNL     1     -24.855  -3.330  -9.806  1.00  0.00     0.210 C 
ENDBRANCH  27  31
ENDBRANCH  22  23
ENDBRANCH  20  22
ENDBRANCH  17  18
ENDBRANCH   1  17
TORSDOF 19
ENDMDL
MODEL 2
REMARK VINA RESULT:      -7.6      1.264      2.285
REMARK  19 active torsions:
REMARK  status: ('A' for Active; 'I' for Inactive)
REMARK    1  A    between atoms: C_2  and  C_3 
REMARK    2  A    between atoms: C_3  and  C_4 
REMARK    3  A    between atoms: C_4  and  C_5 
REMARK    4  A    between atoms: C_5  and  C_6 
REMARK    5  A    between atoms: C_6  and  C_7 
REMARK    6  A    between atoms: C_7  and  C_8 
REMARK    7  A    between atoms: C_8  and  C_9 
REMARK    8  A    between atoms: C_10  and  C_11 
REMARK    9  A    between atoms: C_11  and  C_12 
REMARK   10  A    between atoms: C_12  and  C_13 
REMARK   11  A    between atoms: C_13  and  C_14 
REMARK   12  A    between atoms: C_14  and  C_15 
REMARK   13  A    between atoms: C_15  and  C_16 
REMARK   14  A    between atoms: C_16  and  C_17 
REMARK   15  A    between atoms: C_17  and  C_18 
REMARK       I    between atoms: C_18  and  N_20 
REMARK   16  A    between atoms: N_20  and  C_21 
REMARK   17  A    between atoms: C_21  and  C_22 
REMARK   18  A    between atoms: C_25  and  O_26 
REMARK   19  A    between atoms: C_27  and  O_28 
ROOT
HETATM    1  C   UNL     1     -21.197  -6.160  -3.570  1.00  0.00     0.009 C 
ENDROOT
BRANCH   1   2
HETATM    2  C   UNL     1     -22.242  -6.188  -2.463  1.00  0.00     0.000 C 
BRANCH   2   3
HETATM    3  C   UNL     1     -21.924  -7.327  -1.511  1.00  0.00     0.000 C 
BRANCH   3   4
HETATM    4  C   UNL     1     -22.536  -7.086  -0.133  1.00  0.00     0.000 C 
BRANCH   4   5
HETATM    5  C   UNL     1     -22.551  -8.367   0.696  1.00  0.00     0.004 C 
BRANCH   5   6
HETATM    6  C   UNL     1     -21.139  -8.752   1.130  1.00  0.00     0.027 C 
BRANCH   6   7
HETATM    7  C   UNL     1     -20.677  -9.980   0.430  1.00  0.00    -0.031 C 
HETATM    8  C   UNL     1     -20.688 -11.180   1.020  1.00  0.00    -0.031 C 
BRANCH   8   9
HETATM    9  C   UNL     1     -20.232 -12.412   0.315  1.00  0.00     0.027 C 
BRANCH   9  10
HETATM   10  C   UNL     1     -21.102 -13.598   0.705  1.00  0.00     0.004 C 
BRANCH  10  11
HETATM   11  C   UNL     1     -22.499 -13.121   1.083  1.00  0.00     0.000 C 
BRANCH  11  12
HETATM   12  C   UNL     1     -23.369 -12.999  -0.159  1.00  0.00     0.000 C 
BRANCH  12  13
HETATM   13  C   UNL     1     -24.004 -11.617  -0.231  1.00  0.00     0.000 C 
BRANCH  13  14
HETATM   14  C   UNL     1     -23.916 -11.064  -1.647  1.00  0.00    -0.000 C 
BRANCH  14  15
HETATM   15  C   UNL     1     -22.549 -11.355  -2.258  1.00  0.00    -0.005 C 
HETATM   16  C   UNL     1     -22.422 -10.703  -3.622  1.00  0.00     0.005 C 
ENDBRANCH  14  15
ENDBRANCH  13  14
ENDBRANCH  12  13
ENDBRANCH  11  12
ENDBRANCH  10  11
ENDBRANCH   9  10
ENDBRANCH   8   9
ENDBRANCH   6   7
ENDBRANCH   5   6
ENDBRANCH   4   5
ENDBRANCH   3   4
ENDBRANCH   2   3
ENDBRANCH   1   2
BRANCH   1  17
HETATM   17  C   UNL     1     -21.834  -6.330  -4.929  1.00  0.00     0.103 C 
BRANCH  17  18
HETATM   18  C   UNL     1     -20.912  -7.089  -5.894  1.00  0.00     0.217 C 
HETATM   19  O   UNL     1     -20.514  -8.212  -5.676  1.00  0.00    -0.274 OA
HETATM   20  N   UNL     1     -20.585  -6.382  -7.032  1.00  0.00    -0.357 N 
HETATM   21  H   UNL     1     -19.908  -6.785  -7.673  1.00  0.00     0.162 HD
BRANCH  20  22
HETATM   22  C   UNL     1     -20.998  -5.015  -7.270  1.00  0.00     0.161 C 
BRANCH  22  23
HETATM   23  C   UNL     1     -21.213  -4.727  -8.736  1.00  0.00    -0.038 A 
HETATM   24  C   UNL     1     -20.126  -4.572  -9.603  1.00  0.00     0.012 A 
HETATM   25  C   UNL     1     -20.331  -4.253 -10.942  1.00  0.00     0.040 A 
HETATM   26  C   UNL     1     -21.626  -4.096 -11.439  1.00  0.00     0.099 A 
HETATM   27  C   UNL     1     -22.737  -4.267 -10.600  1.00  0.00     0.101 A 
HETATM   28  C   UNL     1     -22.512  -4.595  -9.253  1.00  0.00     0.048 A 
BRANCH  26  29
HETATM   29  O   UNL     1     -21.766  -3.776 -12.762  1.00  0.00    -0.358 OA
HETATM   30  H   UNL     1     -22.606  -3.306 -12.888  1.00  0.00     0.217 HD
ENDBRANCH  26  29
BRANCH  27  31
HETATM   31  O   UNL     1     -24.064  -4.148 -10.918  1.00  0.00    -0.353 OA
HETATM   32  C   UNL     1     -24.863  -3.279 -10.126  1.00  0.00     0.210 C 
ENDBRANCH  27  31
ENDBRANCH  22  23
ENDBRANCH  20  22
ENDBRANCH  17  18
ENDBRANCH   1  17
TORSDOF 19
ENDMDL
MODEL 3
REMARK VINA RESULT:      -7.4      1.564      2.791
REMARK  19 active torsions:
REMARK  status: ('A' for Active; 'I' for Inactive)
REMARK    1  A    between atoms: C_2  and  C_3 
REMARK    2  A    between atoms: C_3  and  C_4 
REMARK    3  A    between atoms: C_4  and  C_5 
REMARK    4  A    between atoms: C_5  and  C_6 
REMARK    5  A    between atoms: C_6  and  C_7 
REMARK    6  A    between atoms: C_7  and  C_8 
REMARK    7  A    between atoms: C_8  and  C_9 
REMARK    8  A    between atoms: C_10  and  C_11 
REMARK    9  A    between atoms: C_11  and  C_12 
REMARK   10  A    between atoms: C_12  and  C_13 
REMARK   11  A    between atoms: C_13  and  C_14 
REMARK   12  A    between atoms: C_14  and  C_15 
REMARK   13  A    between atoms: C_15  and  C_16 
REMARK   14  A    between atoms: C_16  and  C_17 
REMARK   15  A    between atoms: C_17  and  C_18 
REMARK       I    between atoms: C_18  and  N_20 
REMARK   16  A    between atoms: N_20  and  C_21 
REMARK   17  A    between atoms: C_21  and  C_22 
REMARK   18  A    between atoms: C_25  and  O_26 
REMARK   19  A    between atoms: C_27  and  O_28 
ROOT
HETATM    1  C   UNL     1     -22.094  -7.036  -4.176  1.00  0.00     0.009 C 
ENDROOT
BRANCH   1   2
HETATM    2  C   UNL     1     -21.446  -6.198  -3.083  1.00  0.00     0.000 C 
BRANCH   2   3
HETATM    3  C   UNL     1     -22.283  -6.299  -1.820  1.00  0.00     0.000 C 
BRANCH   3   4
HETATM    4  C   UNL     1     -21.776  -7.410  -0.905  1.00  0.00     0.000 C 
BRANCH   4   5
HETATM    5  C   UNL     1     -22.828  -7.795   0.131  1.00  0.00     0.004 C 
BRANCH   5   6
HETATM    6  C   UNL     1     -23.149  -9.286   0.054  1.00  0.00     0.027 C 
BRANCH   6   7
HETATM    7  C   UNL     1     -21.930 -10.085  -0.237  1.00  0.00    -0.031 C 
HETATM    8  C   UNL     1     -21.116 -10.515   0.732  1.00  0.00    -0.031 C 
BRANCH   8   9
HETATM    9  C   UNL     1     -19.897 -11.324   0.440  1.00  0.00     0.027 C 
BRANCH   9  10
HETATM   10  C   UNL     1     -20.166 -12.294  -0.700  1.00  0.00     0.004 C 
BRANCH  10  11
HETATM   11  C   UNL     1     -19.823 -13.715  -0.271  1.00  0.00     0.000 C 
BRANCH  11  12
HETATM   12  C   UNL     1     -21.094 -14.512  -0.017  1.00  0.00     0.000 C 
BRANCH  12  13
HETATM   13  C   UNL     1     -22.298 -13.800  -0.618  1.00  0.00     0.000 C 
BRANCH  13  14
HETATM   14  C   UNL     1     -23.385 -13.614   0.433  1.00  0.00    -0.000 C 
BRANCH  14  15
HETATM   15  C   UNL     1     -22.807 -13.736   1.838  1.00  0.00    -0.005 C 
HETATM   16  C   UNL     1     -23.801 -14.403   2.770  1.00  0.00     0.005 C 
ENDBRANCH  14  15
ENDBRANCH  13  14
ENDBRANCH  12  13
ENDBRANCH  11  12
ENDBRANCH  10  11
ENDBRANCH   9  10
ENDBRANCH   8   9
ENDBRANCH   6   7
ENDBRANCH   5   6
ENDBRANCH   4   5
ENDBRANCH   3   4
ENDBRANCH   2   3
ENDBRANCH   1   2
BRANCH   1  17
HETATM   17  C   UNL     1     -21.896  -6.409  -5.536  1.00  0.00     0.103 C 
BRANCH  17  18
HETATM   18  C   UNL     1     -20.475  -6.646  -6.066  1.00  0.00     0.217 C 
HETATM   19  O   UNL     1     -19.820  -7.623  -5.777  1.00  0.00    -0.274 OA
HETATM   20  N   UNL     1     -20.014  -5.653  -6.905  1.00  0.00    -0.357 N 
HETATM   21  H   UNL     1     -19.051  -5.697  -7.222  1.00  0.00     0.162 HD
BRANCH  20  22
HETATM   22  C   UNL     1     -20.760  -4.448  -7.202  1.00  0.00     0.161 C 
BRANCH  22  23
HETATM   23  C   UNL     1     -21.045  -4.297  -8.677  1.00  0.00    -0.038 A 
HETATM   24  C   UNL     1     -20.057  -4.567  -9.629  1.00  0.00     0.012 A 
HETATM   25  C   UNL     1     -20.310  -4.374 -10.983  1.00  0.00     0.040 A 
HETATM   26  C   UNL     1     -21.559  -3.919 -11.409  1.00  0.00     0.099 A 
HETATM   27  C   UNL     1     -22.578  -3.661 -10.480  1.00  0.00     0.101 A 
HETATM   28  C   UNL     1     -22.307  -3.867  -9.117  1.00  0.00     0.048 A 
BRANCH  26  29
HETATM   29  O   UNL     1     -21.747  -3.741 -12.753  1.00  0.00    -0.358 OA
HETATM   30  H   UNL     1     -21.146  -3.047 -13.068  1.00  0.00     0.217 HD
ENDBRANCH  26  29
BRANCH  27  31
HETATM   31  O   UNL     1     -23.848  -3.211 -10.722  1.00  0.00    -0.353 OA
HETATM   32  C   UNL     1     -24.809  -3.340  -9.682  1.00  0.00     0.210 C 
ENDBRANCH  27  31
ENDBRANCH  22  23
ENDBRANCH  20  22
ENDBRANCH  17  18
ENDBRANCH   1  17
TORSDOF 19
ENDMDL
MODEL 4
REMARK VINA RESULT:      -7.3      1.302      2.361
REMARK  19 active torsions:
REMARK  status: ('A' for Active; 'I' for Inactive)
REMARK    1  A    between atoms: C_2  and  C_3 
REMARK    2  A    between atoms: C_3  and  C_4 
REMARK    3  A    between atoms: C_4  and  C_5 
REMARK    4  A    between atoms: C_5  and  C_6 
REMARK    5  A    between atoms: C_6  and  C_7 
REMARK    6  A    between atoms: C_7  and  C_8 
REMARK    7  A    between atoms: C_8  and  C_9 
REMARK    8  A    between atoms: C_10  and  C_11 
REMARK    9  A    between atoms: C_11  and  C_12 
REMARK   10  A    between atoms: C_12  and  C_13 
REMARK   11  A    between atoms: C_13  and  C_14 
REMARK   12  A    between atoms: C_14  and  C_15 
REMARK   13  A    between atoms: C_15  and  C_16 
REMARK   14  A    between atoms: C_16  and  C_17 
REMARK   15  A    between atoms: C_17  and  C_18 
REMARK       I    between atoms: C_18  and  N_20 
REMARK   16  A    between atoms: N_20  and  C_21 
REMARK   17  A    between atoms: C_21  and  C_22 
REMARK   18  A    between atoms: C_25  and  O_26 
REMARK   19  A    between atoms: C_27  and  O_28 
ROOT
HETATM    1  C   UNL     1     -22.012  -7.160  -3.788  1.00  0.00     0.009 C 
ENDROOT
BRANCH   1   2
HETATM    2  C   UNL     1     -21.739  -6.271  -2.583  1.00  0.00     0.000 C 
BRANCH   2   3
HETATM    3  C   UNL     1     -21.428  -7.146  -1.382  1.00  0.00     0.000 C 
BRANCH   3   4
HETATM    4  C   UNL     1     -22.610  -7.207  -0.418  1.00  0.00     0.000 C 
BRANCH   4   5
HETATM    5  C   UNL     1     -22.488  -8.397   0.529  1.00  0.00     0.004 C 
BRANCH   5   6
HETATM    6  C   UNL     1     -23.239  -9.608  -0.018  1.00  0.00     0.027 C 
BRANCH   6   7
HETATM    7  C   UNL     1     -22.311 -10.737  -0.294  1.00  0.00    -0.031 C 
HETATM    8  C   UNL     1     -21.011 -10.543  -0.539  1.00  0.00    -0.031 C 
BRANCH   8   9
HETATM    9  C   UNL     1     -20.079 -11.676  -0.808  1.00  0.00     0.027 C 
BRANCH   9  10
HETATM   10  C   UNL     1     -18.857 -11.187  -1.570  1.00  0.00     0.004 C 
BRANCH  10  11
HETATM   11  C   UNL     1     -19.289 -10.384  -2.791  1.00  0.00     0.000 C 
BRANCH  11  12
HETATM   12  C   UNL     1     -18.254  -9.318  -3.116  1.00  0.00     0.000 C 
BRANCH  12  13
HETATM   13  C   UNL     1     -16.856  -9.809  -2.766  1.00  0.00     0.000 C 
BRANCH  13  14
HETATM   14  C   UNL     1     -15.924  -9.654  -3.960  1.00  0.00    -0.000 C 
BRANCH  14  15
HETATM   15  C   UNL     1     -16.656  -9.961  -5.262  1.00  0.00    -0.005 C 
HETATM   16  C   UNL     1     -16.318 -11.357  -5.750  1.00  0.00     0.005 C 
ENDBRANCH  14  15
ENDBRANCH  13  14
ENDBRANCH  12  13
ENDBRANCH  11  12
ENDBRANCH  10  11
ENDBRANCH   9  10
ENDBRANCH   8   9
ENDBRANCH   6   7
ENDBRANCH   5   6
ENDBRANCH   4   5
ENDBRANCH   3   4
ENDBRANCH   2   3
ENDBRANCH   1   2
BRANCH   1  17
HETATM   17  C   UNL     1     -21.858  -6.394  -5.080  1.00  0.00     0.103 C 
BRANCH  17  18
HETATM   18  C   UNL     1     -20.795  -7.027  -5.989  1.00  0.00     0.217 C 
HETATM   19  O   UNL     1     -20.305  -8.113  -5.770  1.00  0.00    -0.274 OA
HETATM   20  N   UNL     1     -20.454  -6.255  -7.080  1.00  0.00    -0.357 N 
HETATM   21  H   UNL     1     -19.695  -6.569  -7.676  1.00  0.00     0.162 HD
BRANCH  20  22
HETATM   22  C   UNL     1     -20.981  -4.927  -7.314  1.00  0.00     0.161 C 
BRANCH  22  23
HETATM   23  C   UNL     1     -21.199  -4.646  -8.782  1.00  0.00    -0.038 A 
HETATM   24  C   UNL     1     -20.121  -4.608  -9.672  1.00  0.00     0.012 A 
HETATM   25  C   UNL     1     -20.323  -4.296 -11.013  1.00  0.00     0.040 A 
HETATM   26  C   UNL     1     -21.608  -4.027 -11.488  1.00  0.00     0.099 A 
HETATM   27  C   UNL     1     -22.712  -4.079 -10.624  1.00  0.00     0.101 A 
HETATM   28  C   UNL     1     -22.491  -4.402  -9.276  1.00  0.00     0.048 A 
BRANCH  26  29
HETATM   29  O   UNL     1     -21.744  -3.718 -12.814  1.00  0.00    -0.358 OA
HETATM   30  H   UNL     1     -20.961  -3.224 -13.106  1.00  0.00     0.217 HD
ENDBRANCH  26  29
BRANCH  27  31
HETATM   31  O   UNL     1     -24.028  -3.842 -10.919  1.00  0.00    -0.353 OA
HETATM   32  C   UNL     1     -24.862  -3.339  -9.884  1.00  0.00     0.210 C 
ENDBRANCH  27  31
ENDBRANCH  22  23
ENDBRANCH  20  22
ENDBRANCH  17  18
ENDBRANCH   1  17
TORSDOF 19
ENDMDL
MODEL 5
REMARK VINA RESULT:      -7.3      1.697      2.298
REMARK  19 active torsions:
REMARK  status: ('A' for Active; 'I' for Inactive)
REMARK    1  A    between atoms: C_2  and  C_3 
REMARK    2  A    between atoms: C_3  and  C_4 
REMARK    3  A    between atoms: C_4  and  C_5 
REMARK    4  A    between atoms: C_5  and  C_6 
REMARK    5  A    between atoms: C_6  and  C_7 
REMARK    6  A    between atoms: C_7  and  C_8 
REMARK    7  A    between atoms: C_8  and  C_9 
REMARK    8  A    between atoms: C_10  and  C_11 
REMARK    9  A    between atoms: C_11  and  C_12 
REMARK   10  A    between atoms: C_12  and  C_13 
REMARK   11  A    between atoms: C_13  and  C_14 
REMARK   12  A    between atoms: C_14  and  C_15 
REMARK   13  A    between atoms: C_15  and  C_16 
REMARK   14  A    between atoms: C_16  and  C_17 
REMARK   15  A    between atoms: C_17  and  C_18 
REMARK       I    between atoms: C_18  and  N_20 
REMARK   16  A    between atoms: N_20  and  C_21 
REMARK   17  A    between atoms: C_21  and  C_22 
REMARK   18  A    between atoms: C_25  and  O_26 
REMARK   19  A    between atoms: C_27  and  O_28 
ROOT
HETATM    1  C   UNL     1     -21.144  -7.851  -4.574  1.00  0.00     0.009 C 
ENDROOT
BRANCH   1   2
HETATM    2  C   UNL     1     -21.135  -7.279  -3.163  1.00  0.00     0.000 C 
BRANCH   2   3
HETATM    3  C   UNL     1     -20.393  -8.235  -2.247  1.00  0.00     0.000 C 
BRANCH   3   4
HETATM    4  C   UNL     1     -20.847  -8.082  -0.797  1.00  0.00     0.000 C 
BRANCH   4   5
HETATM    5  C   UNL     1     -22.161  -7.311  -0.710  1.00  0.00     0.004 C 
BRANCH   5   6
HETATM    6  C   UNL     1     -23.057  -7.885   0.385  1.00  0.00     0.027 C 
BRANCH   6   7
HETATM    7  C   UNL     1     -22.958  -9.367   0.440  1.00  0.00    -0.031 C 
HETATM    8  C   UNL     1     -23.823 -10.161  -0.199  1.00  0.00    -0.031 C 
BRANCH   8   9
HETATM    9  C   UNL     1     -23.718 -11.648  -0.150  1.00  0.00     0.027 C 
BRANCH   9  10
HETATM   10  C   UNL     1     -23.365 -12.200  -1.522  1.00  0.00     0.004 C 
BRANCH  10  11
HETATM   11  C   UNL     1     -22.503 -11.200  -2.282  1.00  0.00     0.000 C 
BRANCH  11  12
HETATM   12  C   UNL     1     -22.779 -11.291  -3.775  1.00  0.00     0.000 C 
BRANCH  12  13
HETATM   13  C   UNL     1     -21.685 -12.088  -4.472  1.00  0.00     0.000 C 
BRANCH  13  14
HETATM   14  C   UNL     1     -21.171 -11.333  -5.691  1.00  0.00    -0.000 C 
BRANCH  14  15
HETATM   15  C   UNL     1     -21.386 -12.146  -6.962  1.00  0.00    -0.005 C 
HETATM   16  C   UNL     1     -21.583 -13.614  -6.632  1.00  0.00     0.005 C 
ENDBRANCH  14  15
ENDBRANCH  13  14
ENDBRANCH  12  13
ENDBRANCH  11  12
ENDBRANCH  10  11
ENDBRANCH   9  10
ENDBRANCH   8   9
ENDBRANCH   6   7
ENDBRANCH   5   6
ENDBRANCH   4   5
ENDBRANCH   3   4
ENDBRANCH   2   3
ENDBRANCH   1   2
BRANCH   1  17
HETATM   17  C   UNL     1     -20.997  -6.759  -5.608  1.00  0.00     0.103 C 
BRANCH  17  18
HETATM   18  C   UNL     1     -22.246  -5.867  -5.668  1.00  0.00     0.217 C 
HETATM   19  O   UNL     1     -23.280  -6.144  -5.102  1.00  0.00    -0.274 OA
HETATM   20  N   UNL     1     -22.081  -4.720  -6.415  1.00  0.00    -0.357 N 
HETATM   21  H   UNL     1     -22.890  -4.127  -6.574  1.00  0.00     0.162 HD
BRANCH  20  22
HETATM   22  C   UNL     1     -20.873  -4.412  -7.152  1.00  0.00     0.161 C 
BRANCH  22  23
HETATM   23  C   UNL     1     -21.123  -4.281  -8.635  1.00  0.00    -0.038 A 
HETATM   24  C   UNL     1     -20.109  -4.552  -9.560  1.00  0.00     0.012 A 
HETATM   25  C   UNL     1     -20.331  -4.377 -10.922  1.00  0.00     0.040 A 
HETATM   26  C   UNL     1     -21.573  -3.939 -11.384  1.00  0.00     0.099 A 
HETATM   27  C   UNL     1     -22.617  -3.680 -10.483  1.00  0.00     0.101 A 
HETATM   28  C   UNL     1     -22.378  -3.869  -9.112  1.00  0.00     0.048 A 
BRANCH  26  29
HETATM   29  O   UNL     1     -21.730  -3.778 -12.733  1.00  0.00    -0.358 OA
HETATM   30  H   UNL     1     -22.400  -3.095 -12.896  1.00  0.00     0.217 HD
ENDBRANCH  26  29
BRANCH  27  31
HETATM   31  O   UNL     1     -23.885  -3.246 -10.761  1.00  0.00    -0.353 OA
HETATM   32  C   UNL     1     -24.855  -3.313  -9.723  1.00  0.00     0.210 C 
ENDBRANCH  27  31
ENDBRANCH  22  23
ENDBRANCH  20  22
ENDBRANCH  17  18
ENDBRANCH   1  17
TORSDOF 19
ENDMDL
MODEL 6
REMARK VINA RESULT:      -7.3      0.999      2.108
REMARK  19 active torsions:
REMARK  status: ('A' for Active; 'I' for Inactive)
REMARK    1  A    between atoms: C_2  and  C_3 
REMARK    2  A    between atoms: C_3  and  C_4 
REMARK    3  A    between atoms: C_4  and  C_5 
REMARK    4  A    between atoms: C_5  and  C_6 
REMARK    5  A    between atoms: C_6  and  C_7 
REMARK    6  A    between atoms: C_7  and  C_8 
REMARK    7  A    between atoms: C_8  and  C_9 
REMARK    8  A    between atoms: C_10  and  C_11 
REMARK    9  A    between atoms: C_11  and  C_12 
REMARK   10  A    between atoms: C_12  and  C_13 
REMARK   11  A    between atoms: C_13  and  C_14 
REMARK   12  A    between atoms: C_14  and  C_15 
REMARK   13  A    between atoms: C_15  and  C_16 
REMARK   14  A    between atoms: C_16  and  C_17 
REMARK   15  A    between atoms: C_17  and  C_18 
REMARK       I    between atoms: C_18  and  N_20 
REMARK   16  A    between atoms: N_20  and  C_21 
REMARK   17  A    between atoms: C_21  and  C_22 
REMARK   18  A    between atoms: C_25  and  O_26 
REMARK   19  A    between atoms: C_27  and  O_28 
ROOT
HETATM    1  C   UNL     1     -22.019  -7.100  -4.309  1.00  0.00     0.009 C 
ENDROOT
BRANCH   1   2
HETATM    2  C   UNL     1     -21.475  -6.283  -3.145  1.00  0.00     0.000 C 
BRANCH   2   3
HETATM    3  C   UNL     1     -21.289  -7.195  -1.945  1.00  0.00     0.000 C 
BRANCH   3   4
HETATM    4  C   UNL     1     -22.355  -6.938  -0.882  1.00  0.00     0.000 C 
BRANCH   4   5
HETATM    5  C   UNL     1     -22.246  -7.941   0.262  1.00  0.00     0.004 C 
BRANCH   5   6
HETATM    6  C   UNL     1     -23.046  -9.205  -0.043  1.00  0.00     0.027 C 
BRANCH   6   7
HETATM    7  C   UNL     1     -22.226 -10.426   0.168  1.00  0.00    -0.031 C 
HETATM    8  C   UNL     1     -21.016 -10.573  -0.383  1.00  0.00    -0.031 C 
BRANCH   8   9
HETATM    9  C   UNL     1     -20.190 -11.795  -0.165  1.00  0.00     0.027 C 
BRANCH   9  10
HETATM   10  C   UNL     1     -19.246 -12.013  -1.337  1.00  0.00     0.004 C 
BRANCH  10  11
HETATM   11  C   UNL     1     -18.807 -10.672  -1.911  1.00  0.00     0.000 C 
BRANCH  11  12
HETATM   12  C   UNL     1     -18.863 -10.703  -3.431  1.00  0.00     0.000 C 
BRANCH  12  13
HETATM   13  C   UNL     1     -20.213 -10.203  -3.925  1.00  0.00     0.000 C 
BRANCH  13  14
HETATM   14  C   UNL     1     -20.820 -11.194  -4.910  1.00  0.00    -0.000 C 
BRANCH  14  15
HETATM   15  C   UNL     1     -21.989 -11.941  -4.276  1.00  0.00    -0.005 C 
HETATM   16  C   UNL     1     -22.840 -10.998  -3.447  1.00  0.00     0.005 C 
ENDBRANCH  14  15
ENDBRANCH  13  14
ENDBRANCH  12  13
ENDBRANCH  11  12
ENDBRANCH  10  11
ENDBRANCH   9  10
ENDBRANCH   8   9
ENDBRANCH   6   7
ENDBRANCH   5   6
ENDBRANCH   4   5
ENDBRANCH   3   4
ENDBRANCH   2   3
ENDBRANCH   1   2
BRANCH   1  17
HETATM   17  C   UNL     1     -21.830  -6.376  -5.621  1.00  0.00     0.103 C 
BRANCH  17  18
HETATM   18  C   UNL     1     -20.418  -6.589  -6.185  1.00  0.00     0.217 C 
HETATM   19  O   UNL     1     -19.734  -7.547  -5.900  1.00  0.00    -0.274 OA
HETATM   20  N   UNL     1     -20.001  -5.598  -7.048  1.00  0.00    -0.357 N 
HETATM   21  H   UNL     1     -19.045  -5.625  -7.390  1.00  0.00     0.162 HD
BRANCH  20  22
HETATM   22  C   UNL     1     -20.781  -4.413  -7.342  1.00  0.00     0.161 C 
BRANCH  22  23
HETATM   23  C   UNL     1     -21.083  -4.275  -8.814  1.00  0.00    -0.038 A 
HETATM   24  C   UNL     1     -20.061  -4.349  -9.766  1.00  0.00     0.012 A 
HETATM   25  C   UNL     1     -20.339  -4.167 -11.117  1.00  0.00     0.040 A 
HETATM   26  C   UNL     1     -21.646  -3.918 -11.540  1.00  0.00     0.099 A 
HETATM   27  C   UNL     1     -22.696  -3.859 -10.612  1.00  0.00     0.101 A 
HETATM   28  C   UNL     1     -22.398  -4.053  -9.253  1.00  0.00     0.048 A 
BRANCH  26  29
HETATM   29  O   UNL     1     -21.857  -3.739 -12.880  1.00  0.00    -0.358 OA
HETATM   30  H   UNL     1     -21.143  -4.172 -13.374  1.00  0.00     0.217 HD
ENDBRANCH  26  29
BRANCH  27  31
HETATM   31  O   UNL     1     -24.024  -3.624 -10.851  1.00  0.00    -0.353 OA
HETATM   32  C   UNL     1     -24.849  -3.280  -9.745  1.00  0.00     0.210 C 
ENDBRANCH  27  31
ENDBRANCH  22  23
ENDBRANCH  20  22
ENDBRANCH  17  18
ENDBRANCH   1  17
TORSDOF 19
ENDMDL
MODEL 7
REMARK VINA RESULT:      -7.2      2.142      3.099
REMARK  19 active torsions:
REMARK  status: ('A' for Active; 'I' for Inactive)
REMARK    1  A    between atoms: C_2  and  C_3 
REMARK    2  A    between atoms: C_3  and  C_4 
REMARK    3  A    between atoms: C_4  and  C_5 
REMARK    4  A    between atoms: C_5  and  C_6 
REMARK    5  A    between atoms: C_6  and  C_7 
REMARK    6  A    between atoms: C_7  and  C_8 
REMARK    7  A    between atoms: C_8  and  C_9 
REMARK    8  A    between atoms: C_10  and  C_11 
REMARK    9  A    between atoms: C_11  and  C_12 
REMARK   10  A    between atoms: C_12  and  C_13 
REMARK   11  A    between atoms: C_13  and  C_14 
REMARK   12  A    between atoms: C_14  and  C_15 
REMARK   13  A    between atoms: C_15  and  C_16 
REMARK   14  A    between atoms: C_16  and  C_17 
REMARK   15  A    between atoms: C_17  and  C_18 
REMARK       I    between atoms: C_18  and  N_20 
REMARK   16  A    between atoms: N_20  and  C_21 
REMARK   17  A    between atoms: C_21  and  C_22 
REMARK   18  A    between atoms: C_25  and  O_26 
REMARK   19  A    between atoms: C_27  and  O_28 
ROOT
HETATM    1  C   UNL     1     -21.668  -7.066  -3.685  1.00  0.00     0.009 C 
ENDROOT
BRANCH   1   2
HETATM    2  C   UNL     1     -21.969  -6.220  -2.456  1.00  0.00     0.000 C 
BRANCH   2   3
HETATM    3  C   UNL     1     -21.509  -6.967  -1.216  1.00  0.00     0.000 C 
BRANCH   3   4
HETATM    4  C   UNL     1     -22.682  -7.292  -0.296  1.00  0.00     0.000 C 
BRANCH   4   5
HETATM    5  C   UNL     1     -22.243  -8.174   0.868  1.00  0.00     0.004 C 
BRANCH   5   6
HETATM    6  C   UNL     1     -21.385  -9.338   0.377  1.00  0.00     0.027 C 
BRANCH   6   7
HETATM    7  C   UNL     1     -22.225 -10.505   0.002  1.00  0.00    -0.031 C 
HETATM    8  C   UNL     1     -23.342 -10.373  -0.721  1.00  0.00    -0.031 C 
BRANCH   8   9
HETATM    9  C   UNL     1     -24.180 -11.546  -1.103  1.00  0.00     0.027 C 
BRANCH   9  10
HETATM   10  C   UNL     1     -23.360 -12.826  -1.041  1.00  0.00     0.004 C 
BRANCH  10  11
HETATM   11  C   UNL     1     -24.282 -14.037  -0.982  1.00  0.00     0.000 C 
BRANCH  11  12
HETATM   12  C   UNL     1     -23.957 -14.891   0.233  1.00  0.00     0.000 C 
BRANCH  12  13
HETATM   13  C   UNL     1     -22.963 -14.174   1.137  1.00  0.00     0.000 C 
BRANCH  13  14
HETATM   14  C   UNL     1     -23.416 -14.246   2.589  1.00  0.00    -0.000 C 
BRANCH  14  15
HETATM   15  C   UNL     1     -22.302 -14.787   3.478  1.00  0.00    -0.005 C 
HETATM   16  C   UNL     1     -22.879 -15.558   4.650  1.00  0.00     0.005 C 
ENDBRANCH  14  15
ENDBRANCH  13  14
ENDBRANCH  12  13
ENDBRANCH  11  12
ENDBRANCH  10  11
ENDBRANCH   9  10
ENDBRANCH   8   9
ENDBRANCH   6   7
ENDBRANCH   5   6
ENDBRANCH   4   5
ENDBRANCH   3   4
ENDBRANCH   2   3
ENDBRANCH   1   2
BRANCH   1  17
HETATM   17  C   UNL     1     -21.435  -6.200  -4.901  1.00  0.00     0.103 C 
BRANCH  17  18
HETATM   18  C   UNL     1     -20.548  -6.907  -5.935  1.00  0.00     0.217 C 
HETATM   19  O   UNL     1     -20.102  -8.020  -5.768  1.00  0.00    -0.274 OA
HETATM   20  N   UNL     1     -20.311  -6.165  -7.074  1.00  0.00    -0.357 N 
HETATM   21  H   UNL     1     -19.660  -6.531  -7.762  1.00  0.00     0.162 HD
BRANCH  20  22
HETATM   22  C   UNL     1     -20.780  -4.807  -7.255  1.00  0.00     0.161 C 
BRANCH  22  23
HETATM   23  C   UNL     1     -21.030  -4.475  -8.706  1.00  0.00    -0.038 A 
HETATM   24  C   UNL     1     -20.058  -4.731  -9.679  1.00  0.00     0.012 A 
HETATM   25  C   UNL     1     -20.275  -4.373 -11.006  1.00  0.00     0.040 A 
HETATM   26  C   UNL     1     -21.473  -3.763 -11.384  1.00  0.00     0.099 A 
HETATM   27  C   UNL     1     -22.476  -3.514 -10.436  1.00  0.00     0.101 A 
HETATM   28  C   UNL     1     -22.243  -3.888  -9.103  1.00  0.00     0.048 A 
BRANCH  26  29
HETATM   29  O   UNL     1     -21.626  -3.427 -12.701  1.00  0.00    -0.358 OA
HETATM   30  H   UNL     1     -21.575  -2.462 -12.791  1.00  0.00     0.217 HD
ENDBRANCH  26  29
BRANCH  27  31
HETATM   31  O   UNL     1     -23.698  -2.927 -10.633  1.00  0.00    -0.353 OA
HETATM   32  C   UNL     1     -24.854  -3.638 -10.208  1.00  0.00     0.210 C 
ENDBRANCH  27  31
ENDBRANCH  22  23
ENDBRANCH  20  22
ENDBRANCH  17  18
ENDBRANCH   1  17
TORSDOF 19
ENDMDL
MODEL 8
REMARK VINA RESULT:      -7.0     12.708     16.079
REMARK  19 active torsions:
REMARK  status: ('A' for Active; 'I' for Inactive)
REMARK    1  A    between atoms: C_2  and  C_3 
REMARK    2  A    between atoms: C_3  and  C_4 
REMARK    3  A    between atoms: C_4  and  C_5 
REMARK    4  A    between atoms: C_5  and  C_6 
REMARK    5  A    between atoms: C_6  and  C_7 
REMARK    6  A    between atoms: C_7  and  C_8 
REMARK    7  A    between atoms: C_8  and  C_9 
REMARK    8  A    between atoms: C_10  and  C_11 
REMARK    9  A    between atoms: C_11  and  C_12 
REMARK   10  A    between atoms: C_12  and  C_13 
REMARK   11  A    between atoms: C_13  and  C_14 
REMARK   12  A    between atoms: C_14  and  C_15 
REMARK   13  A    between atoms: C_15  and  C_16 
REMARK   14  A    between atoms: C_16  and  C_17 
REMARK   15  A    between atoms: C_17  and  C_18 
REMARK       I    between atoms: C_18  and  N_20 
REMARK   16  A    between atoms: N_20  and  C_21 
REMARK   17  A    between atoms: C_21  and  C_22 
REMARK   18  A    between atoms: C_25  and  O_26 
REMARK   19  A    between atoms: C_27  and  O_28 
ROOT
HETATM    1  C   UNL     1     -32.891  -3.975 -17.057  1.00  0.00     0.009 C 
ENDROOT
BRANCH   1   2
HETATM    2  C   UNL     1     -33.727  -4.330 -15.836  1.00  0.00     0.000 C 
BRANCH   2   3
HETATM    3  C   UNL     1     -34.846  -3.315 -15.690  1.00  0.00     0.000 C 
BRANCH   3   4
HETATM    4  C   UNL     1     -34.769  -2.243 -16.773  1.00  0.00     0.000 C 
BRANCH   4   5
HETATM    5  C   UNL     1     -35.831  -1.168 -16.563  1.00  0.00     0.004 C 
BRANCH   5   6
HETATM    6  C   UNL     1     -35.371  -0.142 -15.529  1.00  0.00     0.027 C 
BRANCH   6   7
HETATM    7  C   UNL     1     -36.133  -0.278 -14.260  1.00  0.00    -0.031 C 
HETATM    8  C   UNL     1     -35.531  -0.534 -13.094  1.00  0.00    -0.031 C 
BRANCH   8   9
HETATM    9  C   UNL     1     -36.296  -0.662 -11.820  1.00  0.00     0.027 C 
BRANCH   9  10
HETATM   10  C   UNL     1     -35.572  -1.592 -10.859  1.00  0.00     0.004 C 
BRANCH  10  11
HETATM   11  C   UNL     1     -34.155  -1.856 -11.353  1.00  0.00     0.000 C 
BRANCH  11  12
HETATM   12  C   UNL     1     -33.612  -3.138 -10.741  1.00  0.00     0.000 C 
BRANCH  12  13
HETATM   13  C   UNL     1     -33.322  -4.165 -11.827  1.00  0.00     0.000 C 
BRANCH  13  14
HETATM   14  C   UNL     1     -33.353  -5.574 -11.248  1.00  0.00    -0.000 C 
BRANCH  14  15
HETATM   15  C   UNL     1     -34.597  -5.780 -10.392  1.00  0.00    -0.005 C 
HETATM   16  C   UNL     1     -34.746  -7.240 -10.005  1.00  0.00     0.005 C 
ENDBRANCH  14  15
ENDBRANCH  13  14
ENDBRANCH  12  13
ENDBRANCH  11  12
ENDBRANCH  10  11
ENDBRANCH   9  10
ENDBRANCH   8   9
ENDBRANCH   6   7
ENDBRANCH   5   6
ENDBRANCH   4   5
ENDBRANCH   3   4
ENDBRANCH   2   3
ENDBRANCH   1   2
BRANCH   1  17
HETATM   17  C   UNL     1     -31.477  -4.488 -16.921  1.00  0.00     0.103 C 
BRANCH  17  18
HETATM   18  C   UNL     1     -30.459  -3.506 -17.518  1.00  0.00     0.217 C 
HETATM   19  O   UNL     1     -30.584  -2.304 -17.442  1.00  0.00    -0.274 OA
HETATM   20  N   UNL     1     -29.389  -4.114 -18.140  1.00  0.00    -0.357 N 
HETATM   21  H   UNL     1     -28.723  -3.529 -18.636  1.00  0.00     0.162 HD
BRANCH  20  22
HETATM   22  C   UNL     1     -29.265  -5.548 -18.298  1.00  0.00     0.161 C 
BRANCH  22  23
HETATM   23  C   UNL     1     -28.089  -6.109 -17.537  1.00  0.00    -0.038 A 
HETATM   24  C   UNL     1     -28.243  -6.595 -16.234  1.00  0.00     0.012 A 
HETATM   25  C   UNL     1     -27.143  -7.061 -15.520  1.00  0.00     0.040 A 
HETATM   26  C   UNL     1     -25.874  -7.060 -16.100  1.00  0.00     0.099 A 
HETATM   27  C   UNL     1     -25.690  -6.601 -17.412  1.00  0.00     0.101 A 
HETATM   28  C   UNL     1     -26.812  -6.140 -18.121  1.00  0.00     0.048 A 
BRANCH  26  29
HETATM   29  O   UNL     1     -24.830  -7.524 -15.346  1.00  0.00    -0.358 OA
HETATM   30  H   UNL     1     -25.178  -7.910 -14.527  1.00  0.00     0.217 HD
ENDBRANCH  26  29
BRANCH  27  31
HETATM   31  O   UNL     1     -24.525  -6.528 -18.128  1.00  0.00    -0.353 OA
HETATM   32  C   UNL     1     -24.431  -7.288 -19.326  1.00  0.00     0.210 C 
ENDBRANCH  27  31
ENDBRANCH  22  23
ENDBRANCH  20  22
ENDBRANCH  17  18
ENDBRANCH   1  17
TORSDOF 19
ENDMDL
MODEL 9
REMARK VINA RESULT:      -7.0      1.736      2.252
REMARK  19 active torsions:
REMARK  status: ('A' for Active; 'I' for Inactive)
REMARK    1  A    between atoms: C_2  and  C_3 
REMARK    2  A    between atoms: C_3  and  C_4 
REMARK    3  A    between atoms: C_4  and  C_5 
REMARK    4  A    between atoms: C_5  and  C_6 
REMARK    5  A    between atoms: C_6  and  C_7 
REMARK    6  A    between atoms: C_7  and  C_8 
REMARK    7  A    between atoms: C_8  and  C_9 
REMARK    8  A    between atoms: C_10  and  C_11 
REMARK    9  A    between atoms: C_11  and  C_12 
REMARK   10  A    between atoms: C_12  and  C_13 
REMARK   11  A    between atoms: C_13  and  C_14 
REMARK   12  A    between atoms: C_14  and  C_15 
REMARK   13  A    between atoms: C_15  and  C_16 
REMARK   14  A    between atoms: C_16  and  C_17 
REMARK   15  A    between atoms: C_17  and  C_18 
REMARK       I    between atoms: C_18  and  N_20 
REMARK   16  A    between atoms: N_20  and  C_21 
REMARK   17  A    between atoms: C_21  and  C_22 
REMARK   18  A    between atoms: C_25  and  O_26 
REMARK   19  A    between atoms: C_27  and  O_28 
ROOT
HETATM    1  C   UNL     1     -20.388  -6.924  -4.746  1.00  0.00     0.009 C 
ENDROOT
BRANCH   1   2
HETATM    2  C   UNL     1     -20.512  -8.345  -4.214  1.00  0.00     0.000 C 
BRANCH   2   3
HETATM    3  C   UNL     1     -21.525  -8.365  -3.084  1.00  0.00     0.000 C 
BRANCH   3   4
HETATM    4  C   UNL     1     -21.109  -7.433  -1.949  1.00  0.00     0.000 C 
BRANCH   4   5
HETATM    5  C   UNL     1     -22.325  -6.914  -1.187  1.00  0.00     0.004 C 
BRANCH   5   6
HETATM    6  C   UNL     1     -22.331  -7.433   0.249  1.00  0.00     0.027 C 
BRANCH   6   7
HETATM    7  C   UNL     1     -22.101  -8.901   0.291  1.00  0.00    -0.031 C 
HETATM    8  C   UNL     1     -21.052  -9.437   0.924  1.00  0.00    -0.031 C 
BRANCH   8   9
HETATM    9  C   UNL     1     -20.825 -10.910   0.974  1.00  0.00     0.027 C 
BRANCH   9  10
HETATM   10  C   UNL     1     -20.681 -11.471  -0.433  1.00  0.00     0.004 C 
BRANCH  10  11
HETATM   11  C   UNL     1     -19.368 -11.005  -1.050  1.00  0.00     0.000 C 
BRANCH  11  12
HETATM   12  C   UNL     1     -19.288 -11.432  -2.508  1.00  0.00     0.000 C 
BRANCH  12  13
HETATM   13  C   UNL     1     -18.002 -12.204  -2.766  1.00  0.00     0.000 C 
BRANCH  13  14
HETATM   14  C   UNL     1     -16.836 -11.557  -2.030  1.00  0.00    -0.000 C 
BRANCH  14  15
HETATM   15  C   UNL     1     -15.941 -10.791  -2.998  1.00  0.00    -0.005 C 
HETATM   16  C   UNL     1     -15.951  -9.308  -2.677  1.00  0.00     0.005 C 
ENDBRANCH  14  15
ENDBRANCH  13  14
ENDBRANCH  12  13
ENDBRANCH  11  12
ENDBRANCH  10  11
ENDBRANCH   9  10
ENDBRANCH   8   9
ENDBRANCH   6   7
ENDBRANCH   5   6
ENDBRANCH   4   5
ENDBRANCH   3   4
ENDBRANCH   2   3
ENDBRANCH   1   2
BRANCH   1  17
HETATM   17  C   UNL     1     -21.164  -6.751  -6.031  1.00  0.00     0.103 C 
BRANCH  17  18
HETATM   18  C   UNL     1     -22.327  -5.764  -5.859  1.00  0.00     0.217 C 
HETATM   19  O   UNL     1     -23.349  -6.047  -5.274  1.00  0.00    -0.274 OA
HETATM   20  N   UNL     1     -22.101  -4.525  -6.422  1.00  0.00    -0.357 N 
HETATM   21  H   UNL     1     -22.860  -3.851  -6.426  1.00  0.00     0.162 HD
BRANCH  20  22
HETATM   22  C   UNL     1     -20.913  -4.198  -7.183  1.00  0.00     0.161 C 
BRANCH  22  23
HETATM   23  C   UNL     1     -21.181  -4.137  -8.668  1.00  0.00    -0.038 A 
HETATM   24  C   UNL     1     -20.157  -4.374  -9.591  1.00  0.00     0.012 A 
HETATM   25  C   UNL     1     -20.399  -4.263 -10.957  1.00  0.00     0.040 A 
HETATM   26  C   UNL     1     -21.671  -3.924 -11.422  1.00  0.00     0.099 A 
HETATM   27  C   UNL     1     -22.724  -3.703 -10.522  1.00  0.00     0.101 A 
HETATM   28  C   UNL     1     -22.463  -3.826  -9.147  1.00  0.00     0.048 A 
BRANCH  26  29
HETATM   29  O   UNL     1     -21.847  -3.823 -12.775  1.00  0.00    -0.358 OA
HETATM   30  H   UNL     1     -22.431  -3.070 -12.964  1.00  0.00     0.217 HD
ENDBRANCH  26  29
BRANCH  27  31
HETATM   31  O   UNL     1     -24.020  -3.363 -10.803  1.00  0.00    -0.353 OA
HETATM   32  C   UNL     1     -24.943  -3.308  -9.724  1.00  0.00     0.210 C 
ENDBRANCH  27  31
ENDBRANCH  22  23
ENDBRANCH  20  22
ENDBRANCH  17  18
ENDBRANCH   1  17
TORSDOF 19
ENDMDL
