REMARK  22 active torsions:
REMARK  status: ('A' for Active; 'I' for Inactive)
REMARK    1  A    between atoms: C_2  and  C_3 
REMARK    2  A    between atoms: C_3  and  C_4 
REMARK    3  A    between atoms: C_4  and  C_5 
REMARK    4  A    between atoms: C_5  and  C_6 
REMARK    5  A    between atoms: C_6  and  C_7 
REMARK    6  A    between atoms: C_7  and  C_8 
REMARK    7  A    between atoms: C_7  and  C_31 
REMARK    8  A    between atoms: C_8  and  C_9 
REMARK    9  A    between atoms: C_10  and  C_11 
REMARK   10  A    between atoms: C_11  and  C_12 
REMARK   11  A    between atoms: C_12  and  C_13 
REMARK   12  A    between atoms: C_13  and  C_14 
REMARK   13  A    between atoms: C_14  and  C_15 
REMARK   14  A    between atoms: C_15  and  C_16 
REMARK   15  A    between atoms: C_16  and  C_17 
REMARK   16  A    between atoms: C_17  and  C_18 
REMARK       I    between atoms: C_18  and  N_20 
REMARK   17  A    between atoms: N_20  and  C_21 
REMARK   18  A    between atoms: C_21  and  C_22 
REMARK   19  A    between atoms: C_25  and  O_26 
REMARK   20  A    between atoms: C_27  and  O_28 
REMARK   21  A    between atoms: C_31  and  C_33 
REMARK   22  A    between atoms: C_33  and  C_34 
ROOT
HETATM    1  C   UNL     1       2.393  -1.623   7.421  1.00  0.00     0.004 C 
ENDROOT
BRANCH   1   2
HETATM    2  C   UNL     1       2.963  -1.469   6.013  1.00  0.00     0.027 C 
BRANCH   2   3
HETATM    3  C   UNL     1       4.458  -1.488   5.970  1.00  0.00    -0.031 C 
HETATM    4  C   UNL     1       5.167  -0.442   5.526  1.00  0.00    -0.030 C 
BRANCH   4   5
HETATM    5  C   UNL     1       6.635  -0.488   5.228  1.00  0.00     0.039 C 
BRANCH   5   6
HETATM    6  C   UNL     1       6.928  -0.179   3.743  1.00  0.00     0.059 C 
BRANCH   6   7
HETATM    7  C   UNL     1       6.567   1.271   3.338  1.00  0.00     0.012 C 
BRANCH   7   8
HETATM    8  C   UNL     1       7.167   2.377   4.205  1.00  0.00     0.001 C 
BRANCH   8   9
HETATM    9  C   UNL     1       8.694   2.397   4.186  1.00  0.00     0.000 C 
BRANCH   9  10
HETATM   10  C   UNL     1       9.217   3.510   5.090  1.00  0.00    -0.000 C 
BRANCH  10  11
HETATM   11  C   UNL     1      10.740   3.579   5.076  1.00  0.00    -0.005 C 
HETATM   12  C   UNL     1      11.237   4.694   5.982  1.00  0.00     0.005 C 
ENDBRANCH  10  11
ENDBRANCH   9  10
ENDBRANCH   8   9
ENDBRANCH   7   8
ENDBRANCH   6   7
BRANCH   6  13
HETATM   13  C   UNL     1       6.206  -1.161   2.802  1.00  0.00     0.135 C 
HETATM   14  O   UNL     1       5.455  -0.765   1.901  1.00  0.00    -0.297 OA
BRANCH  13  15
HETATM   15  C   UNL     1       6.507  -2.642   2.931  1.00  0.00     0.117 C 
BRANCH  15  16
HETATM   16  C   UNL     1       7.705  -3.074   2.126  1.00  0.00    -0.051 A 
HETATM   17  C   UNL     1       8.826  -3.632   2.754  1.00  0.00     0.007 A 
HETATM   18  C   UNL     1       9.906  -4.085   1.996  1.00  0.00     0.001 A 
HETATM   19  C   UNL     1       9.877  -3.986   0.606  1.00  0.00     0.000 A 
HETATM   20  C   UNL     1       8.773  -3.421  -0.028  1.00  0.00     0.001 A 
HETATM   21  C   UNL     1       7.693  -2.965   0.728  1.00  0.00     0.007 A 
ENDBRANCH  15  16
ENDBRANCH  13  15
ENDBRANCH   6  13
ENDBRANCH   5   6
ENDBRANCH   4   5
ENDBRANCH   2   3
ENDBRANCH   1   2
BRANCH   1  22
HETATM   22  C   UNL     1       0.859  -1.599   7.421  1.00  0.00     0.000 C 
BRANCH  22  23
HETATM   23  C   UNL     1       0.267  -2.735   6.588  1.00  0.00     0.000 C 
BRANCH  23  24
HETATM   24  C   UNL     1      -1.259  -2.730   6.583  1.00  0.00     0.000 C 
BRANCH  24  25
HETATM   25  C   UNL     1      -1.750  -3.881   5.710  1.00  0.00     0.009 C 
BRANCH  25  26
HETATM   26  C   UNL     1      -3.268  -3.964   5.629  1.00  0.00     0.103 C 
BRANCH  26  27
HETATM   27  C   UNL     1      -3.673  -5.158   4.788  1.00  0.00     0.217 C 
HETATM   28  O   UNL     1      -2.864  -5.924   4.275  1.00  0.00    -0.274 OA
HETATM   29  N   UNL     1      -5.033  -5.314   4.672  1.00  0.00    -0.357 N 
HETATM   30  H   UNL     1      -5.645  -4.577   4.997  1.00  0.00     0.162 HD
BRANCH  29  31
HETATM   31  C   UNL     1      -5.588  -6.386   3.884  1.00  0.00     0.161 C 
BRANCH  31  32
HETATM   32  C   UNL     1      -5.806  -5.970   2.453  1.00  0.00    -0.038 A 
HETATM   33  C   UNL     1      -4.801  -6.125   1.490  1.00  0.00     0.012 A 
HETATM   34  C   UNL     1      -5.026  -5.746   0.165  1.00  0.00     0.040 A 
HETATM   35  C   UNL     1      -6.257  -5.200  -0.197  1.00  0.00     0.099 A 
HETATM   36  C   UNL     1      -7.267  -5.013   0.755  1.00  0.00     0.101 A 
HETATM   37  C   UNL     1      -7.028  -5.398   2.077  1.00  0.00     0.048 A 
BRANCH  35  38
HETATM   38  O   UNL     1      -6.486  -4.839  -1.499  1.00  0.00    -0.358 OA
HETATM   39  H   UNL     1      -5.706  -5.062  -2.029  1.00  0.00     0.217 HD
ENDBRANCH  35  38
BRANCH  36  40
HETATM   40  O   UNL     1      -8.441  -4.461   0.317  1.00  0.00    -0.353 OA
HETATM   41  C   UNL     1      -9.445  -4.257   1.299  1.00  0.00     0.210 C 
ENDBRANCH  36  40
ENDBRANCH  31  32
ENDBRANCH  29  31
ENDBRANCH  26  27
ENDBRANCH  25  26
ENDBRANCH  24  25
ENDBRANCH  23  24
ENDBRANCH  22  23
ENDBRANCH   1  22
TORSDOF 22
