MODEL 1
REMARK VINA RESULT:      -8.3      0.000      0.000
REMARK  22 active torsions:
REMARK  status: ('A' for Active; 'I' for Inactive)
REMARK    1  A    between atoms: C_2  and  C_3 
REMARK    2  A    between atoms: C_3  and  C_4 
REMARK    3  A    between atoms: C_4  and  C_5 
REMARK    4  A    between atoms: C_5  and  C_6 
REMARK    5  A    between atoms: C_6  and  C_7 
REMARK    6  A    between atoms: C_7  and  C_8 
REMARK    7  A    between atoms: C_7  and  C_31 
REMARK    8  A    between atoms: C_8  and  C_9 
REMARK    9  A    between atoms: C_10  and  C_11 
REMARK   10  A    between atoms: C_11  and  C_12 
REMARK   11  A    between atoms: C_12  and  C_13 
REMARK   12  A    between atoms: C_13  and  C_14 
REMARK   13  A    between atoms: C_14  and  C_15 
REMARK   14  A    between atoms: C_15  and  C_16 
REMARK   15  A    between atoms: C_16  and  C_17 
REMARK   16  A    between atoms: C_17  and  C_18 
REMARK       I    between atoms: C_18  and  N_20 
REMARK   17  A    between atoms: N_20  and  C_21 
REMARK   18  A    between atoms: C_21  and  C_22 
REMARK   19  A    between atoms: C_25  and  O_26 
REMARK   20  A    between atoms: C_27  and  O_28 
REMARK   21  A    between atoms: C_31  and  C_33 
REMARK   22  A    between atoms: C_33  and  C_34 
ROOT
HETATM    1  C   UNL     1     -21.926  -7.500  -0.272  1.00  0.00     0.004 C 
ENDROOT
BRANCH   1   2
HETATM    2  C   UNL     1     -22.981  -8.366   0.412  1.00  0.00     0.027 C 
BRANCH   2   3
HETATM    3  C   UNL     1     -23.206  -9.679  -0.268  1.00  0.00    -0.031 C 
HETATM    4  C   UNL     1     -22.374 -10.140  -1.210  1.00  0.00    -0.030 C 
BRANCH   4   5
HETATM    5  C   UNL     1     -22.672 -11.314  -2.093  1.00  0.00     0.039 C 
BRANCH   5   6
HETATM    6  C   UNL     1     -21.647 -11.441  -3.242  1.00  0.00     0.059 C 
BRANCH   6   7
HETATM    7  C   UNL     1     -21.925 -12.642  -4.178  1.00  0.00     0.012 C 
BRANCH   7   8
HETATM    8  C   UNL     1     -22.247 -12.298  -5.632  1.00  0.00     0.001 C 
BRANCH   8   9
HETATM    9  C   UNL     1     -21.183 -11.425  -6.295  1.00  0.00     0.000 C 
BRANCH   9  10
HETATM   10  C   UNL     1     -19.992 -12.280  -6.720  1.00  0.00    -0.000 C 
BRANCH  10  11
HETATM   11  C   UNL     1     -20.348 -13.207  -7.878  1.00  0.00    -0.005 C 
HETATM   12  C   UNL     1     -19.213 -13.269  -8.887  1.00  0.00     0.005 C 
ENDBRANCH  10  11
ENDBRANCH   9  10
ENDBRANCH   8   9
ENDBRANCH   7   8
ENDBRANCH   6   7
BRANCH   6  13
HETATM   13  C   UNL     1     -20.204 -11.537  -2.713  1.00  0.00     0.135 C 
HETATM   14  O   UNL     1     -19.634 -12.627  -2.573  1.00  0.00    -0.297 OA
BRANCH  13  15
HETATM   15  C   UNL     1     -19.442 -10.252  -2.452  1.00  0.00     0.117 C 
BRANCH  15  16
HETATM   16  C   UNL     1     -18.229 -10.096  -3.332  1.00  0.00    -0.051 A 
HETATM   17  C   UNL     1     -16.939 -10.258  -2.808  1.00  0.00     0.007 A 
HETATM   18  C   UNL     1     -15.824 -10.171  -3.642  1.00  0.00     0.001 A 
HETATM   19  C   UNL     1     -15.985  -9.923  -5.004  1.00  0.00     0.000 A 
HETATM   20  C   UNL     1     -17.262  -9.747  -5.533  1.00  0.00     0.001 A 
HETATM   21  C   UNL     1     -18.378  -9.831  -4.700  1.00  0.00     0.007 A 
ENDBRANCH  15  16
ENDBRANCH  13  15
ENDBRANCH   6  13
ENDBRANCH   5   6
ENDBRANCH   4   5
ENDBRANCH   2   3
ENDBRANCH   1   2
BRANCH   1  22
HETATM   22  C   UNL     1     -22.532  -6.631  -1.382  1.00  0.00     0.000 C 
BRANCH  22  23
HETATM   23  C   UNL     1     -21.480  -6.172  -2.391  1.00  0.00     0.000 C 
BRANCH  23  24
HETATM   24  C   UNL     1     -20.816  -7.336  -3.121  1.00  0.00     0.000 C 
BRANCH  24  25
HETATM   25  C   UNL     1     -21.794  -7.890  -4.152  1.00  0.00     0.009 C 
BRANCH  25  26
HETATM   26  C   UNL     1     -21.353  -7.642  -5.588  1.00  0.00     0.103 C 
BRANCH  26  27
HETATM   27  C   UNL     1     -21.629  -6.201  -5.968  1.00  0.00     0.217 C 
HETATM   28  O   UNL     1     -22.678  -5.624  -5.699  1.00  0.00    -0.274 OA
HETATM   29  N   UNL     1     -20.586  -5.595  -6.625  1.00  0.00    -0.357 N 
HETATM   30  H   UNL     1     -19.807  -6.158  -6.942  1.00  0.00     0.162 HD
BRANCH  29  31
HETATM   31  C   UNL     1     -20.693  -4.231  -7.081  1.00  0.00     0.161 C 
BRANCH  31  32
HETATM   32  C   UNL     1     -20.992  -4.159  -8.555  1.00  0.00    -0.038 A 
HETATM   33  C   UNL     1     -19.998  -4.401  -9.511  1.00  0.00     0.012 A 
HETATM   34  C   UNL     1     -20.297  -4.342 -10.874  1.00  0.00     0.040 A 
HETATM   35  C   UNL     1     -21.593  -4.031 -11.283  1.00  0.00     0.099 A 
HETATM   36  C   UNL     1     -22.597  -3.761 -10.344  1.00  0.00     0.101 A 
HETATM   37  C   UNL     1     -22.283  -3.824  -8.984  1.00  0.00     0.048 A 
BRANCH  35  38
HETATM   38  O   UNL     1     -21.894  -3.985 -12.619  1.00  0.00    -0.358 OA
HETATM   39  H   UNL     1     -21.112  -4.250 -13.127  1.00  0.00     0.217 HD
ENDBRANCH  35  38
BRANCH  36  40
HETATM   40  O   UNL     1     -23.839  -3.453 -10.831  1.00  0.00    -0.353 OA
HETATM   41  C   UNL     1     -24.872  -3.303  -9.870  1.00  0.00     0.210 C 
ENDBRANCH  36  40
ENDBRANCH  31  32
ENDBRANCH  29  31
ENDBRANCH  26  27
ENDBRANCH  25  26
ENDBRANCH  24  25
ENDBRANCH  23  24
ENDBRANCH  22  23
ENDBRANCH   1  22
TORSDOF 22
ENDMDL
MODEL 2
REMARK VINA RESULT:      -8.2      2.162      2.996
REMARK  22 active torsions:
REMARK  status: ('A' for Active; 'I' for Inactive)
REMARK    1  A    between atoms: C_2  and  C_3 
REMARK    2  A    between atoms: C_3  and  C_4 
REMARK    3  A    between atoms: C_4  and  C_5 
REMARK    4  A    between atoms: C_5  and  C_6 
REMARK    5  A    between atoms: C_6  and  C_7 
REMARK    6  A    between atoms: C_7  and  C_8 
REMARK    7  A    between atoms: C_7  and  C_31 
REMARK    8  A    between atoms: C_8  and  C_9 
REMARK    9  A    between atoms: C_10  and  C_11 
REMARK   10  A    between atoms: C_11  and  C_12 
REMARK   11  A    between atoms: C_12  and  C_13 
REMARK   12  A    between atoms: C_13  and  C_14 
REMARK   13  A    between atoms: C_14  and  C_15 
REMARK   14  A    between atoms: C_15  and  C_16 
REMARK   15  A    between atoms: C_16  and  C_17 
REMARK   16  A    between atoms: C_17  and  C_18 
REMARK       I    between atoms: C_18  and  N_20 
REMARK   17  A    between atoms: N_20  and  C_21 
REMARK   18  A    between atoms: C_21  and  C_22 
REMARK   19  A    between atoms: C_25  and  O_26 
REMARK   20  A    between atoms: C_27  and  O_28 
REMARK   21  A    between atoms: C_31  and  C_33 
REMARK   22  A    between atoms: C_33  and  C_34 
ROOT
HETATM    1  C   UNL     1     -21.957  -6.664  -0.809  1.00  0.00     0.004 C 
ENDROOT
BRANCH   1   2
HETATM    2  C   UNL     1     -22.860  -7.834  -0.425  1.00  0.00     0.027 C 
BRANCH   2   3
HETATM    3  C   UNL     1     -22.205  -8.816   0.493  1.00  0.00    -0.031 C 
HETATM    4  C   UNL     1     -21.137  -9.533   0.118  1.00  0.00    -0.030 C 
BRANCH   4   5
HETATM    5  C   UNL     1     -20.593 -10.696   0.891  1.00  0.00     0.039 C 
BRANCH   5   6
HETATM    6  C   UNL     1     -20.817 -12.032   0.148  1.00  0.00     0.059 C 
BRANCH   6   7
HETATM    7  C   UNL     1     -21.651 -13.051   0.962  1.00  0.00     0.012 C 
BRANCH   7   8
HETATM    8  C   UNL     1     -23.163 -12.833   0.958  1.00  0.00     0.001 C 
BRANCH   8   9
HETATM    9  C   UNL     1     -23.710 -12.422  -0.407  1.00  0.00     0.000 C 
BRANCH   9  10
HETATM   10  C   UNL     1     -23.402 -13.499  -1.444  1.00  0.00    -0.000 C 
BRANCH  10  11
HETATM   11  C   UNL     1     -22.831 -12.902  -2.725  1.00  0.00    -0.005 C 
HETATM   12  C   UNL     1     -22.896 -11.384  -2.688  1.00  0.00     0.005 C 
ENDBRANCH  10  11
ENDBRANCH   9  10
ENDBRANCH   8   9
ENDBRANCH   7   8
ENDBRANCH   6   7
BRANCH   6  13
HETATM   13  C   UNL     1     -19.485 -12.685  -0.266  1.00  0.00     0.135 C 
HETATM   14  O   UNL     1     -18.764 -13.267   0.555  1.00  0.00    -0.297 OA
BRANCH  13  15
HETATM   15  C   UNL     1     -19.107 -12.691  -1.734  1.00  0.00     0.117 C 
BRANCH  15  16
HETATM   16  C   UNL     1     -18.164 -11.576  -2.107  1.00  0.00    -0.051 A 
HETATM   17  C   UNL     1     -16.784 -11.710  -1.908  1.00  0.00     0.007 A 
HETATM   18  C   UNL     1     -15.912 -10.698  -2.311  1.00  0.00     0.001 A 
HETATM   19  C   UNL     1     -16.410  -9.545  -2.917  1.00  0.00     0.000 A 
HETATM   20  C   UNL     1     -17.781  -9.396  -3.107  1.00  0.00     0.001 A 
HETATM   21  C   UNL     1     -18.655 -10.405  -2.702  1.00  0.00     0.007 A 
ENDBRANCH  15  16
ENDBRANCH  13  15
ENDBRANCH   6  13
ENDBRANCH   5   6
ENDBRANCH   4   5
ENDBRANCH   2   3
ENDBRANCH   1   2
BRANCH   1  22
HETATM   22  C   UNL     1     -21.992  -6.388  -2.318  1.00  0.00     0.000 C 
BRANCH  22  23
HETATM   23  C   UNL     1     -20.957  -7.217  -3.077  1.00  0.00     0.000 C 
BRANCH  23  24
HETATM   24  C   UNL     1     -21.592  -8.283  -3.966  1.00  0.00     0.000 C 
BRANCH  24  25
HETATM   25  C   UNL     1     -21.419  -7.871  -5.425  1.00  0.00     0.009 C 
BRANCH  25  26
HETATM   26  C   UNL     1     -20.187  -7.007  -5.660  1.00  0.00     0.103 C 
BRANCH  26  27
HETATM   27  C   UNL     1     -20.604  -5.652  -6.195  1.00  0.00     0.217 C 
HETATM   28  O   UNL     1     -21.506  -4.984  -5.701  1.00  0.00    -0.274 OA
HETATM   29  N   UNL     1     -19.862  -5.233  -7.272  1.00  0.00    -0.357 N 
HETATM   30  H   UNL     1     -19.230  -5.883  -7.720  1.00  0.00     0.162 HD
BRANCH  29  31
HETATM   31  C   UNL     1     -20.146  -3.976  -7.919  1.00  0.00     0.161 C 
BRANCH  31  32
HETATM   32  C   UNL     1     -20.990  -4.162  -9.152  1.00  0.00    -0.038 A 
HETATM   33  C   UNL     1     -20.409  -4.277 -10.421  1.00  0.00     0.012 A 
HETATM   34  C   UNL     1     -21.207  -4.463 -11.551  1.00  0.00     0.040 A 
HETATM   35  C   UNL     1     -22.594  -4.523 -11.414  1.00  0.00     0.099 A 
HETATM   36  C   UNL     1     -23.197  -4.386 -10.158  1.00  0.00     0.101 A 
HETATM   37  C   UNL     1     -22.386  -4.202  -9.035  1.00  0.00     0.048 A 
BRANCH  35  38
HETATM   38  O   UNL     1     -23.380  -4.719 -12.519  1.00  0.00    -0.358 OA
HETATM   39  H   UNL     1     -24.242  -5.057 -12.236  1.00  0.00     0.217 HD
ENDBRANCH  35  38
BRANCH  36  40
HETATM   40  O   UNL     1     -24.565  -4.447 -10.114  1.00  0.00    -0.353 OA
HETATM   41  C   UNL     1     -25.237  -3.249  -9.758  1.00  0.00     0.210 C 
ENDBRANCH  36  40
ENDBRANCH  31  32
ENDBRANCH  29  31
ENDBRANCH  26  27
ENDBRANCH  25  26
ENDBRANCH  24  25
ENDBRANCH  23  24
ENDBRANCH  22  23
ENDBRANCH   1  22
TORSDOF 22
ENDMDL
MODEL 3
REMARK VINA RESULT:      -8.0      1.585      4.166
REMARK  22 active torsions:
REMARK  status: ('A' for Active; 'I' for Inactive)
REMARK    1  A    between atoms: C_2  and  C_3 
REMARK    2  A    between atoms: C_3  and  C_4 
REMARK    3  A    between atoms: C_4  and  C_5 
REMARK    4  A    between atoms: C_5  and  C_6 
REMARK    5  A    between atoms: C_6  and  C_7 
REMARK    6  A    between atoms: C_7  and  C_8 
REMARK    7  A    between atoms: C_7  and  C_31 
REMARK    8  A    between atoms: C_8  and  C_9 
REMARK    9  A    between atoms: C_10  and  C_11 
REMARK   10  A    between atoms: C_11  and  C_12 
REMARK   11  A    between atoms: C_12  and  C_13 
REMARK   12  A    between atoms: C_13  and  C_14 
REMARK   13  A    between atoms: C_14  and  C_15 
REMARK   14  A    between atoms: C_15  and  C_16 
REMARK   15  A    between atoms: C_16  and  C_17 
REMARK   16  A    between atoms: C_17  and  C_18 
REMARK       I    between atoms: C_18  and  N_20 
REMARK   17  A    between atoms: N_20  and  C_21 
REMARK   18  A    between atoms: C_21  and  C_22 
REMARK   19  A    between atoms: C_25  and  O_26 
REMARK   20  A    between atoms: C_27  and  O_28 
REMARK   21  A    between atoms: C_31  and  C_33 
REMARK   22  A    between atoms: C_33  and  C_34 
ROOT
HETATM    1  C   UNL     1     -16.889 -10.309  -3.352  1.00  0.00     0.004 C 
ENDROOT
BRANCH   1   2
HETATM    2  C   UNL     1     -15.883 -10.740  -2.288  1.00  0.00     0.027 C 
BRANCH   2   3
HETATM    3  C   UNL     1     -16.481 -11.586  -1.209  1.00  0.00    -0.031 C 
HETATM    4  C   UNL     1     -17.300 -12.609  -1.484  1.00  0.00    -0.030 C 
BRANCH   4   5
HETATM    5  C   UNL     1     -18.118 -13.330  -0.456  1.00  0.00     0.039 C 
BRANCH   5   6
HETATM    6  C   UNL     1     -19.626 -13.282  -0.788  1.00  0.00     0.059 C 
BRANCH   6   7
HETATM    7  C   UNL     1     -19.934 -12.583  -2.134  1.00  0.00     0.012 C 
BRANCH   7   8
HETATM    8  C   UNL     1     -21.281 -12.920  -2.771  1.00  0.00     0.001 C 
BRANCH   8   9
HETATM    9  C   UNL     1     -21.703 -11.927  -3.852  1.00  0.00     0.000 C 
BRANCH   9  10
HETATM   10  C   UNL     1     -22.497 -12.642  -4.942  1.00  0.00    -0.000 C 
BRANCH  10  11
HETATM   11  C   UNL     1     -22.036 -12.232  -6.337  1.00  0.00    -0.005 C 
HETATM   12  C   UNL     1     -20.696 -11.517  -6.272  1.00  0.00     0.005 C 
ENDBRANCH  10  11
ENDBRANCH   9  10
ENDBRANCH   8   9
ENDBRANCH   7   8
ENDBRANCH   6   7
BRANCH   6  13
HETATM   13  C   UNL     1     -20.436 -12.601   0.332  1.00  0.00     0.135 C 
HETATM   14  O   UNL     1     -21.358 -13.187   0.915  1.00  0.00    -0.297 OA
BRANCH  13  15
HETATM   15  C   UNL     1     -20.021 -11.215   0.786  1.00  0.00     0.117 C 
BRANCH  15  16
HETATM   16  C   UNL     1     -21.120 -10.194   0.649  1.00  0.00    -0.051 A 
HETATM   17  C   UNL     1     -20.982  -8.915   1.204  1.00  0.00     0.007 A 
HETATM   18  C   UNL     1     -21.979  -7.956   1.020  1.00  0.00     0.001 A 
HETATM   19  C   UNL     1     -23.121  -8.265   0.282  1.00  0.00     0.000 A 
HETATM   20  C   UNL     1     -23.274  -9.537  -0.262  1.00  0.00     0.001 A 
HETATM   21  C   UNL     1     -22.280 -10.498  -0.078  1.00  0.00     0.007 A 
ENDBRANCH  15  16
ENDBRANCH  13  15
ENDBRANCH   6  13
ENDBRANCH   5   6
ENDBRANCH   4   5
ENDBRANCH   2   3
ENDBRANCH   1   2
BRANCH   1  22
HETATM   22  C   UNL     1     -17.867  -9.254  -2.817  1.00  0.00     0.000 C 
BRANCH  22  23
HETATM   23  C   UNL     1     -19.189  -9.256  -3.582  1.00  0.00     0.000 C 
BRANCH  23  24
HETATM   24  C   UNL     1     -20.287  -8.474  -2.867  1.00  0.00     0.000 C 
BRANCH  24  25
HETATM   25  C   UNL     1     -21.503  -8.385  -3.784  1.00  0.00     0.009 C 
BRANCH  25  26
HETATM   26  C   UNL     1     -21.148  -7.986  -5.209  1.00  0.00     0.103 C 
BRANCH  26  27
HETATM   27  C   UNL     1     -21.349  -6.494  -5.390  1.00  0.00     0.217 C 
HETATM   28  O   UNL     1     -21.854  -5.776  -4.533  1.00  0.00    -0.274 OA
HETATM   29  N   UNL     1     -20.893  -6.019  -6.595  1.00  0.00    -0.357 N 
HETATM   30  H   UNL     1     -20.616  -6.676  -7.313  1.00  0.00     0.162 HD
BRANCH  29  31
HETATM   31  C   UNL     1     -21.030  -4.626  -6.939  1.00  0.00     0.161 C 
BRANCH  31  32
HETATM   32  C   UNL     1     -21.204  -4.432  -8.422  1.00  0.00    -0.038 A 
HETATM   33  C   UNL     1     -20.139  -4.630  -9.310  1.00  0.00     0.012 A 
HETATM   34  C   UNL     1     -20.322  -4.459 -10.684  1.00  0.00     0.040 A 
HETATM   35  C   UNL     1     -21.572  -4.079 -11.171  1.00  0.00     0.099 A 
HETATM   36  C   UNL     1     -22.644  -3.851 -10.299  1.00  0.00     0.101 A 
HETATM   37  C   UNL     1     -22.446  -4.027  -8.927  1.00  0.00     0.048 A 
BRANCH  35  38
HETATM   38  O   UNL     1     -21.759  -3.923 -12.520  1.00  0.00    -0.358 OA
HETATM   39  H   UNL     1     -21.156  -4.517 -12.992  1.00  0.00     0.217 HD
ENDBRANCH  35  38
BRANCH  36  40
HETATM   40  O   UNL     1     -23.833  -3.470 -10.860  1.00  0.00    -0.353 OA
HETATM   41  C   UNL     1     -24.931  -3.331  -9.973  1.00  0.00     0.210 C 
ENDBRANCH  36  40
ENDBRANCH  31  32
ENDBRANCH  29  31
ENDBRANCH  26  27
ENDBRANCH  25  26
ENDBRANCH  24  25
ENDBRANCH  23  24
ENDBRANCH  22  23
ENDBRANCH   1  22
TORSDOF 22
ENDMDL
MODEL 4
REMARK VINA RESULT:      -7.9      1.411      2.016
REMARK  22 active torsions:
REMARK  status: ('A' for Active; 'I' for Inactive)
REMARK    1  A    between atoms: C_2  and  C_3 
REMARK    2  A    between atoms: C_3  and  C_4 
REMARK    3  A    between atoms: C_4  and  C_5 
REMARK    4  A    between atoms: C_5  and  C_6 
REMARK    5  A    between atoms: C_6  and  C_7 
REMARK    6  A    between atoms: C_7  and  C_8 
REMARK    7  A    between atoms: C_7  and  C_31 
REMARK    8  A    between atoms: C_8  and  C_9 
REMARK    9  A    between atoms: C_10  and  C_11 
REMARK   10  A    between atoms: C_11  and  C_12 
REMARK   11  A    between atoms: C_12  and  C_13 
REMARK   12  A    between atoms: C_13  and  C_14 
REMARK   13  A    between atoms: C_14  and  C_15 
REMARK   14  A    between atoms: C_15  and  C_16 
REMARK   15  A    between atoms: C_16  and  C_17 
REMARK   16  A    between atoms: C_17  and  C_18 
REMARK       I    between atoms: C_18  and  N_20 
REMARK   17  A    between atoms: N_20  and  C_21 
REMARK   18  A    between atoms: C_21  and  C_22 
REMARK   19  A    between atoms: C_25  and  O_26 
REMARK   20  A    between atoms: C_27  and  O_28 
REMARK   21  A    between atoms: C_31  and  C_33 
REMARK   22  A    between atoms: C_33  and  C_34 
ROOT
HETATM    1  C   UNL     1     -21.916  -7.675  -0.154  1.00  0.00     0.004 C 
ENDROOT
BRANCH   1   2
HETATM    2  C   UNL     1     -22.624  -9.020  -0.302  1.00  0.00     0.027 C 
BRANCH   2   3
HETATM    3  C   UNL     1     -21.747 -10.192   0.006  1.00  0.00    -0.031 C 
HETATM    4  C   UNL     1     -20.481 -10.262  -0.426  1.00  0.00    -0.030 C 
BRANCH   4   5
HETATM    5  C   UNL     1     -19.640 -11.501  -0.365  1.00  0.00     0.039 C 
BRANCH   5   6
HETATM    6  C   UNL     1     -18.658 -11.587  -1.555  1.00  0.00     0.059 C 
BRANCH   6   7
HETATM    7  C   UNL     1     -19.103 -12.594  -2.642  1.00  0.00     0.012 C 
BRANCH   7   8
HETATM    8  C   UNL     1     -19.696 -11.989  -3.914  1.00  0.00     0.001 C 
BRANCH   8   9
HETATM    9  C   UNL     1     -18.850 -12.248  -5.158  1.00  0.00     0.000 C 
BRANCH   9  10
HETATM   10  C   UNL     1     -19.418 -11.484  -6.350  1.00  0.00    -0.000 C 
BRANCH  10  11
HETATM   11  C   UNL     1     -20.836 -11.933  -6.684  1.00  0.00    -0.005 C 
HETATM   12  C   UNL     1     -20.823 -13.281  -7.387  1.00  0.00     0.005 C 
ENDBRANCH  10  11
ENDBRANCH   9  10
ENDBRANCH   8   9
ENDBRANCH   7   8
ENDBRANCH   6   7
BRANCH   6  13
HETATM   13  C   UNL     1     -17.232 -11.938  -1.094  1.00  0.00     0.135 C 
HETATM   14  O   UNL     1     -16.989 -12.972  -0.459  1.00  0.00    -0.297 OA
BRANCH  13  15
HETATM   15  C   UNL     1     -16.090 -11.034  -1.520  1.00  0.00     0.117 C 
BRANCH  15  16
HETATM   16  C   UNL     1     -15.935 -10.943  -3.016  1.00  0.00    -0.051 A 
HETATM   17  C   UNL     1     -16.311  -9.783  -3.705  1.00  0.00     0.007 A 
HETATM   18  C   UNL     1     -16.108  -9.684  -5.082  1.00  0.00     0.001 A 
HETATM   19  C   UNL     1     -15.528 -10.740  -5.782  1.00  0.00     0.000 A 
HETATM   20  C   UNL     1     -15.161 -11.903  -5.109  1.00  0.00     0.001 A 
HETATM   21  C   UNL     1     -15.366 -12.005  -3.733  1.00  0.00     0.007 A 
ENDBRANCH  15  16
ENDBRANCH  13  15
ENDBRANCH   6  13
ENDBRANCH   5   6
ENDBRANCH   4   5
ENDBRANCH   2   3
ENDBRANCH   1   2
BRANCH   1  22
HETATM   22  C   UNL     1     -22.052  -6.818  -1.419  1.00  0.00     0.000 C 
BRANCH  22  23
HETATM   23  C   UNL     1     -21.950  -7.654  -2.694  1.00  0.00     0.000 C 
BRANCH  23  24
HETATM   24  C   UNL     1     -20.510  -7.847  -3.159  1.00  0.00     0.000 C 
BRANCH  24  25
HETATM   25  C   UNL     1     -20.522  -8.296  -4.618  1.00  0.00     0.009 C 
BRANCH  25  26
HETATM   26  C   UNL     1     -21.472  -7.482  -5.485  1.00  0.00     0.103 C 
BRANCH  26  27
HETATM   27  C   UNL     1     -20.693  -6.436  -6.258  1.00  0.00     0.217 C 
HETATM   28  O   UNL     1     -19.608  -6.659  -6.785  1.00  0.00    -0.274 OA
HETATM   29  N   UNL     1     -21.327  -5.219  -6.330  1.00  0.00    -0.357 N 
HETATM   30  H   UNL     1     -22.148  -5.055  -5.761  1.00  0.00     0.162 HD
BRANCH  29  31
HETATM   31  C   UNL     1     -20.711  -4.105  -7.007  1.00  0.00     0.161 C 
BRANCH  31  32
HETATM   32  C   UNL     1     -21.053  -4.087  -8.473  1.00  0.00    -0.038 A 
HETATM   33  C   UNL     1     -20.109  -4.444  -9.444  1.00  0.00     0.012 A 
HETATM   34  C   UNL     1     -20.448  -4.434 -10.798  1.00  0.00     0.040 A 
HETATM   35  C   UNL     1     -21.733  -4.056 -11.185  1.00  0.00     0.099 A 
HETATM   36  C   UNL     1     -22.685  -3.671 -10.233  1.00  0.00     0.101 A 
HETATM   37  C   UNL     1     -22.332  -3.687  -8.881  1.00  0.00     0.048 A 
BRANCH  35  38
HETATM   38  O   UNL     1     -22.074  -4.057 -12.513  1.00  0.00    -0.358 OA
HETATM   39  H   UNL     1     -23.004  -3.800 -12.599  1.00  0.00     0.217 HD
ENDBRANCH  35  38
BRANCH  36  40
HETATM   40  O   UNL     1     -23.919  -3.303 -10.699  1.00  0.00    -0.353 OA
HETATM   41  C   UNL     1     -24.995  -3.406  -9.780  1.00  0.00     0.210 C 
ENDBRANCH  36  40
ENDBRANCH  31  32
ENDBRANCH  29  31
ENDBRANCH  26  27
ENDBRANCH  25  26
ENDBRANCH  24  25
ENDBRANCH  23  24
ENDBRANCH  22  23
ENDBRANCH   1  22
TORSDOF 22
ENDMDL
MODEL 5
REMARK VINA RESULT:      -7.7      2.543      7.832
REMARK  22 active torsions:
REMARK  status: ('A' for Active; 'I' for Inactive)
REMARK    1  A    between atoms: C_2  and  C_3 
REMARK    2  A    between atoms: C_3  and  C_4 
REMARK    3  A    between atoms: C_4  and  C_5 
REMARK    4  A    between atoms: C_5  and  C_6 
REMARK    5  A    between atoms: C_6  and  C_7 
REMARK    6  A    between atoms: C_7  and  C_8 
REMARK    7  A    between atoms: C_7  and  C_31 
REMARK    8  A    between atoms: C_8  and  C_9 
REMARK    9  A    between atoms: C_10  and  C_11 
REMARK   10  A    between atoms: C_11  and  C_12 
REMARK   11  A    between atoms: C_12  and  C_13 
REMARK   12  A    between atoms: C_13  and  C_14 
REMARK   13  A    between atoms: C_14  and  C_15 
REMARK   14  A    between atoms: C_15  and  C_16 
REMARK   15  A    between atoms: C_16  and  C_17 
REMARK   16  A    between atoms: C_17  and  C_18 
REMARK       I    between atoms: C_18  and  N_20 
REMARK   17  A    between atoms: N_20  and  C_21 
REMARK   18  A    between atoms: C_21  and  C_22 
REMARK   19  A    between atoms: C_25  and  O_26 
REMARK   20  A    between atoms: C_27  and  O_28 
REMARK   21  A    between atoms: C_31  and  C_33 
REMARK   22  A    between atoms: C_33  and  C_34 
ROOT
HETATM    1  C   UNL     1     -22.611  -8.686   0.294  1.00  0.00     0.004 C 
ENDROOT
BRANCH   1   2
HETATM    2  C   UNL     1     -22.879  -7.328  -0.349  1.00  0.00     0.027 C 
BRANCH   2   3
HETATM    3  C   UNL     1     -21.800  -6.890  -1.289  1.00  0.00    -0.031 C 
HETATM    4  C   UNL     1     -22.073  -6.225  -2.419  1.00  0.00    -0.030 C 
BRANCH   4   5
HETATM    5  C   UNL     1     -21.075  -5.979  -3.510  1.00  0.00     0.039 C 
BRANCH   5   6
HETATM    6  C   UNL     1     -21.463  -6.707  -4.816  1.00  0.00     0.059 C 
BRANCH   6   7
HETATM    7  C   UNL     1     -21.272  -8.242  -4.740  1.00  0.00     0.012 C 
BRANCH   7   8
HETATM    8  C   UNL     1     -20.056  -8.726  -3.952  1.00  0.00     0.001 C 
BRANCH   8   9
HETATM    9  C   UNL     1     -20.345  -9.956  -3.093  1.00  0.00     0.000 C 
BRANCH   9  10
HETATM   10  C   UNL     1     -21.678 -10.578  -3.497  1.00  0.00    -0.000 C 
BRANCH  10  11
HETATM   11  C   UNL     1     -21.516 -12.034  -3.919  1.00  0.00    -0.005 C 
HETATM   12  C   UNL     1     -22.570 -12.418  -4.945  1.00  0.00     0.005 C 
ENDBRANCH  10  11
ENDBRANCH   9  10
ENDBRANCH   8   9
ENDBRANCH   7   8
ENDBRANCH   6   7
BRANCH   6  13
HETATM   13  C   UNL     1     -20.686  -6.161  -6.028  1.00  0.00     0.135 C 
HETATM   14  O   UNL     1     -20.060  -6.909  -6.790  1.00  0.00    -0.297 OA
BRANCH  13  15
HETATM   15  C   UNL     1     -20.778  -4.679  -6.339  1.00  0.00     0.117 C 
BRANCH  15  16
HETATM   16  C   UNL     1     -21.180  -4.398  -7.763  1.00  0.00    -0.051 A 
HETATM   17  C   UNL     1     -22.526  -4.208  -8.103  1.00  0.00     0.007 A 
HETATM   18  C   UNL     1     -22.884  -3.889  -9.413  1.00  0.00     0.001 A 
HETATM   19  C   UNL     1     -21.903  -3.754 -10.394  1.00  0.00     0.000 A 
HETATM   20  C   UNL     1     -20.563  -3.953 -10.070  1.00  0.00     0.001 A 
HETATM   21  C   UNL     1     -20.203  -4.276  -8.762  1.00  0.00     0.007 A 
ENDBRANCH  15  16
ENDBRANCH  13  15
ENDBRANCH   6  13
ENDBRANCH   5   6
ENDBRANCH   4   5
ENDBRANCH   2   3
ENDBRANCH   1   2
BRANCH   1  22
HETATM   22  C   UNL     1     -22.981  -9.844  -0.643  1.00  0.00     0.000 C 
BRANCH  22  23
HETATM   23  C   UNL     1     -23.972 -10.811   0.003  1.00  0.00     0.000 C 
BRANCH  23  24
HETATM   24  C   UNL     1     -23.496 -12.260  -0.041  1.00  0.00     0.000 C 
BRANCH  24  25
HETATM   25  C   UNL     1     -22.083 -12.329   0.531  1.00  0.00     0.009 C 
BRANCH  25  26
HETATM   26  C   UNL     1     -21.076 -12.937  -0.435  1.00  0.00     0.103 C 
BRANCH  26  27
HETATM   27  C   UNL     1     -19.731 -12.259  -0.270  1.00  0.00     0.217 C 
HETATM   28  O   UNL     1     -19.527 -11.359   0.538  1.00  0.00    -0.274 OA
HETATM   29  N   UNL     1     -18.755 -12.762  -1.095  1.00  0.00    -0.357 N 
HETATM   30  H   UNL     1     -19.014 -13.403  -1.834  1.00  0.00     0.162 HD
BRANCH  29  31
HETATM   31  C   UNL     1     -17.423 -12.212  -1.084  1.00  0.00     0.161 C 
BRANCH  31  32
HETATM   32  C   UNL     1     -17.096 -11.518  -2.380  1.00  0.00    -0.038 A 
HETATM   33  C   UNL     1     -16.446 -10.277  -2.396  1.00  0.00     0.012 A 
HETATM   34  C   UNL     1     -16.139  -9.655  -3.608  1.00  0.00     0.040 A 
HETATM   35  C   UNL     1     -16.492 -10.270  -4.809  1.00  0.00     0.099 A 
HETATM   36  C   UNL     1     -17.165 -11.498  -4.815  1.00  0.00     0.101 A 
HETATM   37  C   UNL     1     -17.465 -12.110  -3.594  1.00  0.00     0.048 A 
BRANCH  35  38
HETATM   38  O   UNL     1     -16.181  -9.669  -6.000  1.00  0.00    -0.358 OA
HETATM   39  H   UNL     1     -16.341 -10.297  -6.721  1.00  0.00     0.217 HD
ENDBRANCH  35  38
BRANCH  36  40
HETATM   40  O   UNL     1     -17.485 -12.027  -6.037  1.00  0.00    -0.353 OA
HETATM   41  C   UNL     1     -18.841 -11.912  -6.437  1.00  0.00     0.210 C 
ENDBRANCH  36  40
ENDBRANCH  31  32
ENDBRANCH  29  31
ENDBRANCH  26  27
ENDBRANCH  25  26
ENDBRANCH  24  25
ENDBRANCH  23  24
ENDBRANCH  22  23
ENDBRANCH   1  22
TORSDOF 22
ENDMDL
MODEL 6
REMARK VINA RESULT:      -7.7      2.357      5.499
REMARK  22 active torsions:
REMARK  status: ('A' for Active; 'I' for Inactive)
REMARK    1  A    between atoms: C_2  and  C_3 
REMARK    2  A    between atoms: C_3  and  C_4 
REMARK    3  A    between atoms: C_4  and  C_5 
REMARK    4  A    between atoms: C_5  and  C_6 
REMARK    5  A    between atoms: C_6  and  C_7 
REMARK    6  A    between atoms: C_7  and  C_8 
REMARK    7  A    between atoms: C_7  and  C_31 
REMARK    8  A    between atoms: C_8  and  C_9 
REMARK    9  A    between atoms: C_10  and  C_11 
REMARK   10  A    between atoms: C_11  and  C_12 
REMARK   11  A    between atoms: C_12  and  C_13 
REMARK   12  A    between atoms: C_13  and  C_14 
REMARK   13  A    between atoms: C_14  and  C_15 
REMARK   14  A    between atoms: C_15  and  C_16 
REMARK   15  A    between atoms: C_16  and  C_17 
REMARK   16  A    between atoms: C_17  and  C_18 
REMARK       I    between atoms: C_18  and  N_20 
REMARK   17  A    between atoms: N_20  and  C_21 
REMARK   18  A    between atoms: C_21  and  C_22 
REMARK   19  A    between atoms: C_25  and  O_26 
REMARK   20  A    between atoms: C_27  and  O_28 
REMARK   21  A    between atoms: C_31  and  C_33 
REMARK   22  A    between atoms: C_33  and  C_34 
ROOT
HETATM    1  C   UNL     1     -15.853 -10.224  -4.774  1.00  0.00     0.004 C 
ENDROOT
BRANCH   1   2
HETATM    2  C   UNL     1     -15.957  -9.643  -3.366  1.00  0.00     0.027 C 
BRANCH   2   3
HETATM    3  C   UNL     1     -16.700 -10.523  -2.412  1.00  0.00    -0.031 C 
HETATM    4  C   UNL     1     -17.194 -11.712  -2.783  1.00  0.00    -0.030 C 
BRANCH   4   5
HETATM    5  C   UNL     1     -18.149 -12.520  -1.957  1.00  0.00     0.039 C 
BRANCH   5   6
HETATM    6  C   UNL     1     -18.848 -11.658  -0.882  1.00  0.00     0.059 C 
BRANCH   6   7
HETATM    7  C   UNL     1     -18.408 -12.005   0.561  1.00  0.00     0.012 C 
BRANCH   7   8
HETATM    8  C   UNL     1     -17.355 -13.104   0.693  1.00  0.00     0.001 C 
BRANCH   8   9
HETATM    9  C   UNL     1     -16.000 -12.587   1.172  1.00  0.00     0.000 C 
BRANCH   9  10
HETATM   10  C   UNL     1     -15.479 -13.454   2.315  1.00  0.00    -0.000 C 
BRANCH  10  11
HETATM   11  C   UNL     1     -14.455 -14.473   1.828  1.00  0.00    -0.005 C 
HETATM   12  C   UNL     1     -13.426 -13.813   0.924  1.00  0.00     0.005 C 
ENDBRANCH  10  11
ENDBRANCH   9  10
ENDBRANCH   8   9
ENDBRANCH   7   8
ENDBRANCH   6   7
BRANCH   6  13
HETATM   13  C   UNL     1     -20.381 -11.755  -0.980  1.00  0.00     0.135 C 
HETATM   14  O   UNL     1     -21.041 -12.445  -0.192  1.00  0.00    -0.297 OA
BRANCH  13  15
HETATM   15  C   UNL     1     -21.097 -10.903  -2.011  1.00  0.00     0.117 C 
BRANCH  15  16
HETATM   16  C   UNL     1     -21.662  -9.631  -1.437  1.00  0.00    -0.051 A 
HETATM   17  C   UNL     1     -22.591  -9.669  -0.389  1.00  0.00     0.007 A 
HETATM   18  C   UNL     1     -23.064  -8.485   0.177  1.00  0.00     0.001 A 
HETATM   19  C   UNL     1     -22.615  -7.253  -0.296  1.00  0.00     0.000 A 
HETATM   20  C   UNL     1     -21.701  -7.203  -1.346  1.00  0.00     0.001 A 
HETATM   21  C   UNL     1     -21.229  -8.386  -1.916  1.00  0.00     0.007 A 
ENDBRANCH  15  16
ENDBRANCH  13  15
ENDBRANCH   6  13
ENDBRANCH   5   6
ENDBRANCH   4   5
ENDBRANCH   2   3
ENDBRANCH   1   2
BRANCH   1  22
HETATM   22  C   UNL     1     -16.705  -9.438  -5.780  1.00  0.00     0.000 C 
BRANCH  22  23
HETATM   23  C   UNL     1     -18.163  -9.896  -5.778  1.00  0.00     0.000 C 
BRANCH  23  24
HETATM   24  C   UNL     1     -19.043  -9.059  -4.856  1.00  0.00     0.000 C 
BRANCH  24  25
HETATM   25  C   UNL     1     -19.689  -7.944  -5.673  1.00  0.00     0.009 C 
BRANCH  25  26
HETATM   26  C   UNL     1     -21.174  -7.774  -5.382  1.00  0.00     0.103 C 
BRANCH  26  27
HETATM   27  C   UNL     1     -21.603  -6.358  -5.712  1.00  0.00     0.217 C 
HETATM   28  O   UNL     1     -22.666  -5.873  -5.337  1.00  0.00    -0.274 OA
HETATM   29  N   UNL     1     -20.680  -5.662  -6.453  1.00  0.00    -0.357 N 
HETATM   30  H   UNL     1     -19.890  -6.154  -6.850  1.00  0.00     0.162 HD
BRANCH  29  31
HETATM   31  C   UNL     1     -20.942  -4.308  -6.875  1.00  0.00     0.161 C 
BRANCH  31  32
HETATM   32  C   UNL     1     -21.143  -4.218  -8.365  1.00  0.00    -0.038 A 
HETATM   33  C   UNL     1     -20.110  -4.533  -9.258  1.00  0.00     0.012 A 
HETATM   34  C   UNL     1     -20.319  -4.457 -10.637  1.00  0.00     0.040 A 
HETATM   35  C   UNL     1     -21.562  -4.055 -11.125  1.00  0.00     0.099 A 
HETATM   36  C   UNL     1     -22.600  -3.711 -10.250  1.00  0.00     0.101 A 
HETATM   37  C   UNL     1     -22.377  -3.793  -8.873  1.00  0.00     0.048 A 
BRANCH  35  38
HETATM   38  O   UNL     1     -21.774  -3.991 -12.477  1.00  0.00    -0.358 OA
HETATM   39  H   UNL     1     -21.760  -4.890 -12.840  1.00  0.00     0.217 HD
ENDBRANCH  35  38
BRANCH  36  40
HETATM   40  O   UNL     1     -23.784  -3.316 -10.814  1.00  0.00    -0.353 OA
HETATM   41  C   UNL     1     -24.908  -3.274  -9.949  1.00  0.00     0.210 C 
ENDBRANCH  36  40
ENDBRANCH  31  32
ENDBRANCH  29  31
ENDBRANCH  26  27
ENDBRANCH  25  26
ENDBRANCH  24  25
ENDBRANCH  23  24
ENDBRANCH  22  23
ENDBRANCH   1  22
TORSDOF 22
ENDMDL
MODEL 7
REMARK VINA RESULT:      -7.7      1.927      3.220
REMARK  22 active torsions:
REMARK  status: ('A' for Active; 'I' for Inactive)
REMARK    1  A    between atoms: C_2  and  C_3 
REMARK    2  A    between atoms: C_3  and  C_4 
REMARK    3  A    between atoms: C_4  and  C_5 
REMARK    4  A    between atoms: C_5  and  C_6 
REMARK    5  A    between atoms: C_6  and  C_7 
REMARK    6  A    between atoms: C_7  and  C_8 
REMARK    7  A    between atoms: C_7  and  C_31 
REMARK    8  A    between atoms: C_8  and  C_9 
REMARK    9  A    between atoms: C_10  and  C_11 
REMARK   10  A    between atoms: C_11  and  C_12 
REMARK   11  A    between atoms: C_12  and  C_13 
REMARK   12  A    between atoms: C_13  and  C_14 
REMARK   13  A    between atoms: C_14  and  C_15 
REMARK   14  A    between atoms: C_15  and  C_16 
REMARK   15  A    between atoms: C_16  and  C_17 
REMARK   16  A    between atoms: C_17  and  C_18 
REMARK       I    between atoms: C_18  and  N_20 
REMARK   17  A    between atoms: N_20  and  C_21 
REMARK   18  A    between atoms: C_21  and  C_22 
REMARK   19  A    between atoms: C_25  and  O_26 
REMARK   20  A    between atoms: C_27  and  O_28 
REMARK   21  A    between atoms: C_31  and  C_33 
REMARK   22  A    between atoms: C_33  and  C_34 
ROOT
HETATM    1  C   UNL     1     -22.366  -7.656   0.066  1.00  0.00     0.004 C 
ENDROOT
BRANCH   1   2
HETATM    2  C   UNL     1     -23.119  -8.984   0.103  1.00  0.00     0.027 C 
BRANCH   2   3
HETATM    3  C   UNL     1     -22.220 -10.179   0.100  1.00  0.00    -0.031 C 
HETATM    4  C   UNL     1     -20.910 -10.081   0.362  1.00  0.00    -0.030 C 
BRANCH   4   5
HETATM    5  C   UNL     1     -19.923 -11.185   0.135  1.00  0.00     0.039 C 
BRANCH   5   6
HETATM    6  C   UNL     1     -20.238 -11.979  -1.153  1.00  0.00     0.059 C 
BRANCH   6   7
HETATM    7  C   UNL     1     -20.496 -13.483  -0.895  1.00  0.00     0.012 C 
BRANCH   7   8
HETATM    8  C   UNL     1     -19.881 -14.059   0.380  1.00  0.00     0.001 C 
BRANCH   8   9
HETATM    9  C   UNL     1     -18.937 -15.230   0.120  1.00  0.00     0.000 C 
BRANCH   9  10
HETATM   10  C   UNL     1     -17.556 -14.932   0.698  1.00  0.00    -0.000 C 
BRANCH  10  11
HETATM   11  C   UNL     1     -16.899 -13.743   0.004  1.00  0.00    -0.005 C 
HETATM   12  C   UNL     1     -16.686 -12.599   0.983  1.00  0.00     0.005 C 
ENDBRANCH  10  11
ENDBRANCH   9  10
ENDBRANCH   8   9
ENDBRANCH   7   8
ENDBRANCH   6   7
BRANCH   6  13
HETATM   13  C   UNL     1     -19.121 -11.830  -2.203  1.00  0.00     0.135 C 
HETATM   14  O   UNL     1     -19.007 -12.623  -3.147  1.00  0.00    -0.297 OA
BRANCH  13  15
HETATM   15  C   UNL     1     -18.207 -10.623  -2.122  1.00  0.00     0.117 C 
BRANCH  15  16
HETATM   16  C   UNL     1     -17.402 -10.406  -3.377  1.00  0.00    -0.051 A 
HETATM   17  C   UNL     1     -16.081 -10.863  -3.469  1.00  0.00     0.007 A 
HETATM   18  C   UNL     1     -15.364 -10.711  -4.655  1.00  0.00     0.001 A 
HETATM   19  C   UNL     1     -15.957 -10.104  -5.760  1.00  0.00     0.000 A 
HETATM   20  C   UNL     1     -17.266  -9.634  -5.676  1.00  0.00     0.001 A 
HETATM   21  C   UNL     1     -17.984  -9.782  -4.490  1.00  0.00     0.007 A 
ENDBRANCH  15  16
ENDBRANCH  13  15
ENDBRANCH   6  13
ENDBRANCH   5   6
ENDBRANCH   4   5
ENDBRANCH   2   3
ENDBRANCH   1   2
BRANCH   1  22
HETATM   22  C   UNL     1     -22.353  -7.047  -1.342  1.00  0.00     0.000 C 
BRANCH  22  23
HETATM   23  C   UNL     1     -20.987  -7.183  -2.013  1.00  0.00     0.000 C 
BRANCH  23  24
HETATM   24  C   UNL     1     -20.886  -8.419  -2.903  1.00  0.00     0.000 C 
BRANCH  24  25
HETATM   25  C   UNL     1     -21.727  -8.191  -4.155  1.00  0.00     0.009 C 
BRANCH  25  26
HETATM   26  C   UNL     1     -20.918  -7.658  -5.329  1.00  0.00     0.103 C 
BRANCH  26  27
HETATM   27  C   UNL     1     -21.364  -6.248  -5.663  1.00  0.00     0.217 C 
HETATM   28  O   UNL     1     -22.365  -5.728  -5.180  1.00  0.00    -0.274 OA
HETATM   29  N   UNL     1     -20.530  -5.600  -6.541  1.00  0.00    -0.357 N 
HETATM   30  H   UNL     1     -19.803  -6.123  -7.011  1.00  0.00     0.162 HD
BRANCH  29  31
HETATM   31  C   UNL     1     -20.823  -4.259  -6.984  1.00  0.00     0.161 C 
BRANCH  31  32
HETATM   32  C   UNL     1     -21.105  -4.211  -8.462  1.00  0.00    -0.038 A 
HETATM   33  C   UNL     1     -20.131  -4.578  -9.400  1.00  0.00     0.012 A 
HETATM   34  C   UNL     1     -20.415  -4.539 -10.767  1.00  0.00     0.040 A 
HETATM   35  C   UNL     1     -21.673  -4.121 -11.199  1.00  0.00     0.099 A 
HETATM   36  C   UNL     1     -22.653  -3.726 -10.279  1.00  0.00     0.101 A 
HETATM   37  C   UNL     1     -22.355  -3.771  -8.915  1.00  0.00     0.048 A 
BRANCH  35  38
HETATM   38  O   UNL     1     -21.960  -4.095 -12.539  1.00  0.00    -0.358 OA
HETATM   39  H   UNL     1     -22.882  -3.822 -12.658  1.00  0.00     0.217 HD
ENDBRANCH  35  38
BRANCH  36  40
HETATM   40  O   UNL     1     -23.857  -3.320 -10.789  1.00  0.00    -0.353 OA
HETATM   41  C   UNL     1     -24.942  -3.270  -9.875  1.00  0.00     0.210 C 
ENDBRANCH  36  40
ENDBRANCH  31  32
ENDBRANCH  29  31
ENDBRANCH  26  27
ENDBRANCH  25  26
ENDBRANCH  24  25
ENDBRANCH  23  24
ENDBRANCH  22  23
ENDBRANCH   1  22
TORSDOF 22
ENDMDL
MODEL 8
REMARK VINA RESULT:      -7.7      1.898      3.425
REMARK  22 active torsions:
REMARK  status: ('A' for Active; 'I' for Inactive)
REMARK    1  A    between atoms: C_2  and  C_3 
REMARK    2  A    between atoms: C_3  and  C_4 
REMARK    3  A    between atoms: C_4  and  C_5 
REMARK    4  A    between atoms: C_5  and  C_6 
REMARK    5  A    between atoms: C_6  and  C_7 
REMARK    6  A    between atoms: C_7  and  C_8 
REMARK    7  A    between atoms: C_7  and  C_31 
REMARK    8  A    between atoms: C_8  and  C_9 
REMARK    9  A    between atoms: C_10  and  C_11 
REMARK   10  A    between atoms: C_11  and  C_12 
REMARK   11  A    between atoms: C_12  and  C_13 
REMARK   12  A    between atoms: C_13  and  C_14 
REMARK   13  A    between atoms: C_14  and  C_15 
REMARK   14  A    between atoms: C_15  and  C_16 
REMARK   15  A    between atoms: C_16  and  C_17 
REMARK   16  A    between atoms: C_17  and  C_18 
REMARK       I    between atoms: C_18  and  N_20 
REMARK   17  A    between atoms: N_20  and  C_21 
REMARK   18  A    between atoms: C_21  and  C_22 
REMARK   19  A    between atoms: C_25  and  O_26 
REMARK   20  A    between atoms: C_27  and  O_28 
REMARK   21  A    between atoms: C_31  and  C_33 
REMARK   22  A    between atoms: C_33  and  C_34 
ROOT
HETATM    1  C   UNL     1     -22.313  -7.664   0.364  1.00  0.00     0.004 C 
ENDROOT
BRANCH   1   2
HETATM    2  C   UNL     1     -23.087  -8.980   0.343  1.00  0.00     0.027 C 
BRANCH   2   3
HETATM    3  C   UNL     1     -22.239 -10.165   0.003  1.00  0.00    -0.031 C 
HETATM    4  C   UNL     1     -20.942 -10.225   0.332  1.00  0.00    -0.030 C 
BRANCH   4   5
HETATM    5  C   UNL     1     -19.991 -11.258  -0.190  1.00  0.00     0.039 C 
BRANCH   5   6
HETATM    6  C   UNL     1     -20.537 -11.951  -1.458  1.00  0.00     0.059 C 
BRANCH   6   7
HETATM    7  C   UNL     1     -20.741 -13.476  -1.281  1.00  0.00     0.012 C 
BRANCH   7   8
HETATM    8  C   UNL     1     -22.097 -14.025  -1.723  1.00  0.00     0.001 C 
BRANCH   8   9
HETATM    9  C   UNL     1     -22.905 -14.630  -0.577  1.00  0.00     0.000 C 
BRANCH   9  10
HETATM   10  C   UNL     1     -23.562 -13.524   0.245  1.00  0.00    -0.000 C 
BRANCH  10  11
HETATM   11  C   UNL     1     -22.979 -13.444   1.651  1.00  0.00    -0.005 C 
HETATM   12  C   UNL     1     -23.684 -14.417   2.583  1.00  0.00     0.005 C 
ENDBRANCH  10  11
ENDBRANCH   9  10
ENDBRANCH   8   9
ENDBRANCH   7   8
ENDBRANCH   6   7
BRANCH   6  13
HETATM   13  C   UNL     1     -19.633 -11.701  -2.680  1.00  0.00     0.135 C 
HETATM   14  O   UNL     1     -19.462 -12.565  -3.550  1.00  0.00    -0.297 OA
BRANCH  13  15
HETATM   15  C   UNL     1     -19.022 -10.324  -2.859  1.00  0.00     0.117 C 
BRANCH  15  16
HETATM   16  C   UNL     1     -17.803 -10.330  -3.743  1.00  0.00    -0.051 A 
HETATM   17  C   UNL     1     -17.876  -9.876  -5.066  1.00  0.00     0.007 A 
HETATM   18  C   UNL     1     -16.729  -9.827  -5.860  1.00  0.00     0.001 A 
HETATM   19  C   UNL     1     -15.500 -10.230  -5.340  1.00  0.00     0.000 A 
HETATM   20  C   UNL     1     -15.418 -10.695  -4.030  1.00  0.00     0.001 A 
HETATM   21  C   UNL     1     -16.564 -10.747  -3.235  1.00  0.00     0.007 A 
ENDBRANCH  15  16
ENDBRANCH  13  15
ENDBRANCH   6  13
ENDBRANCH   5   6
ENDBRANCH   4   5
ENDBRANCH   2   3
ENDBRANCH   1   2
BRANCH   1  22
HETATM   22  C   UNL     1     -22.384  -6.940  -0.986  1.00  0.00     0.000 C 
BRANCH  22  23
HETATM   23  C   UNL     1     -21.080  -7.062  -1.772  1.00  0.00     0.000 C 
BRANCH  23  24
HETATM   24  C   UNL     1     -21.180  -8.047  -2.934  1.00  0.00     0.000 C 
BRANCH  24  25
HETATM   25  C   UNL     1     -21.675  -7.300  -4.169  1.00  0.00     0.009 C 
BRANCH  25  26
HETATM   26  C   UNL     1     -20.693  -7.351  -5.331  1.00  0.00     0.103 C 
BRANCH  26  27
HETATM   27  C   UNL     1     -20.529  -5.966  -5.926  1.00  0.00     0.217 C 
HETATM   28  O   UNL     1     -20.839  -4.939  -5.332  1.00  0.00    -0.274 OA
HETATM   29  N   UNL     1     -19.979  -5.970  -7.185  1.00  0.00    -0.357 N 
HETATM   30  H   UNL     1     -19.875  -6.847  -7.677  1.00  0.00     0.162 HD
BRANCH  29  31
HETATM   31  C   UNL     1     -19.778  -4.737  -7.905  1.00  0.00     0.161 C 
BRANCH  31  32
HETATM   32  C   UNL     1     -20.653  -4.658  -9.129  1.00  0.00    -0.038 A 
HETATM   33  C   UNL     1     -20.101  -4.578 -10.413  1.00  0.00     0.012 A 
HETATM   34  C   UNL     1     -20.927  -4.520 -11.537  1.00  0.00     0.040 A 
HETATM   35  C   UNL     1     -22.313  -4.530 -11.376  1.00  0.00     0.099 A 
HETATM   36  C   UNL     1     -22.886  -4.585 -10.099  1.00  0.00     0.101 A 
HETATM   37  C   UNL     1     -22.046  -4.644  -8.984  1.00  0.00     0.048 A 
BRANCH  35  38
HETATM   38  O   UNL     1     -23.127  -4.486 -12.477  1.00  0.00    -0.358 OA
HETATM   39  H   UNL     1     -22.852  -3.748 -13.042  1.00  0.00     0.217 HD
ENDBRANCH  35  38
BRANCH  36  40
HETATM   40  O   UNL     1     -24.254  -4.581 -10.030  1.00  0.00    -0.353 OA
HETATM   41  C   UNL     1     -24.864  -3.338  -9.720  1.00  0.00     0.210 C 
ENDBRANCH  36  40
ENDBRANCH  31  32
ENDBRANCH  29  31
ENDBRANCH  26  27
ENDBRANCH  25  26
ENDBRANCH  24  25
ENDBRANCH  23  24
ENDBRANCH  22  23
ENDBRANCH   1  22
TORSDOF 22
ENDMDL
MODEL 9
REMARK VINA RESULT:      -7.5      1.651      2.754
REMARK  22 active torsions:
REMARK  status: ('A' for Active; 'I' for Inactive)
REMARK    1  A    between atoms: C_2  and  C_3 
REMARK    2  A    between atoms: C_3  and  C_4 
REMARK    3  A    between atoms: C_4  and  C_5 
REMARK    4  A    between atoms: C_5  and  C_6 
REMARK    5  A    between atoms: C_6  and  C_7 
REMARK    6  A    between atoms: C_7  and  C_8 
REMARK    7  A    between atoms: C_7  and  C_31 
REMARK    8  A    between atoms: C_8  and  C_9 
REMARK    9  A    between atoms: C_10  and  C_11 
REMARK   10  A    between atoms: C_11  and  C_12 
REMARK   11  A    between atoms: C_12  and  C_13 
REMARK   12  A    between atoms: C_13  and  C_14 
REMARK   13  A    between atoms: C_14  and  C_15 
REMARK   14  A    between atoms: C_15  and  C_16 
REMARK   15  A    between atoms: C_16  and  C_17 
REMARK   16  A    between atoms: C_17  and  C_18 
REMARK       I    between atoms: C_18  and  N_20 
REMARK   17  A    between atoms: N_20  and  C_21 
REMARK   18  A    between atoms: C_21  and  C_22 
REMARK   19  A    between atoms: C_25  and  O_26 
REMARK   20  A    between atoms: C_27  and  O_28 
REMARK   21  A    between atoms: C_31  and  C_33 
REMARK   22  A    between atoms: C_33  and  C_34 
ROOT
HETATM    1  C   UNL     1     -21.762  -9.787  -1.080  1.00  0.00     0.004 C 
ENDROOT
BRANCH   1   2
HETATM    2  C   UNL     1     -21.925 -10.873  -2.140  1.00  0.00     0.027 C 
BRANCH   2   3
HETATM    3  C   UNL     1     -21.603 -10.407  -3.525  1.00  0.00    -0.031 C 
HETATM    4  C   UNL     1     -21.820 -11.176  -4.599  1.00  0.00    -0.030 C 
BRANCH   4   5
HETATM    5  C   UNL     1     -21.297 -10.871  -5.970  1.00  0.00     0.039 C 
BRANCH   5   6
HETATM    6  C   UNL     1     -20.442 -12.030  -6.528  1.00  0.00     0.059 C 
BRANCH   6   7
HETATM    7  C   UNL     1     -20.768 -13.397  -5.880  1.00  0.00     0.012 C 
BRANCH   7   8
HETATM    8  C   UNL     1     -21.033 -14.550  -6.847  1.00  0.00     0.001 C 
BRANCH   8   9
HETATM    9  C   UNL     1     -22.424 -15.161  -6.691  1.00  0.00     0.000 C 
BRANCH   9  10
HETATM   10  C   UNL     1     -23.065 -14.684  -5.390  1.00  0.00    -0.000 C 
BRANCH  10  11
HETATM   11  C   UNL     1     -24.406 -15.365  -5.140  1.00  0.00    -0.005 C 
HETATM   12  C   UNL     1     -24.883 -16.090  -6.387  1.00  0.00     0.005 C 
ENDBRANCH  10  11
ENDBRANCH   9  10
ENDBRANCH   8   9
ENDBRANCH   7   8
ENDBRANCH   6   7
BRANCH   6  13
HETATM   13  C   UNL     1     -18.935 -11.749  -6.384  1.00  0.00     0.135 C 
HETATM   14  O   UNL     1     -18.099 -12.662  -6.388  1.00  0.00    -0.297 OA
BRANCH  13  15
HETATM   15  C   UNL     1     -18.468 -10.306  -6.333  1.00  0.00     0.117 C 
BRANCH  15  16
HETATM   16  C   UNL     1     -17.652  -9.991  -5.107  1.00  0.00    -0.051 A 
HETATM   17  C   UNL     1     -18.274  -9.598  -3.915  1.00  0.00     0.007 A 
HETATM   18  C   UNL     1     -17.516  -9.367  -2.767  1.00  0.00     0.001 A 
HETATM   19  C   UNL     1     -16.131  -9.527  -2.798  1.00  0.00     0.000 A 
HETATM   20  C   UNL     1     -15.501  -9.905  -3.981  1.00  0.00     0.001 A 
HETATM   21  C   UNL     1     -16.257 -10.134  -5.131  1.00  0.00     0.007 A 
ENDBRANCH  15  16
ENDBRANCH  13  15
ENDBRANCH   6  13
ENDBRANCH   5   6
ENDBRANCH   4   5
ENDBRANCH   2   3
ENDBRANCH   1   2
BRANCH   1  22
HETATM   22  C   UNL     1     -21.077  -8.536  -1.645  1.00  0.00     0.000 C 
BRANCH  22  23
HETATM   23  C   UNL     1     -21.955  -7.292  -1.512  1.00  0.00     0.000 C 
BRANCH  23  24
HETATM   24  C   UNL     1     -21.900  -6.396  -2.746  1.00  0.00     0.000 C 
BRANCH  24  25
HETATM   25  C   UNL     1     -21.141  -7.127  -3.849  1.00  0.00     0.009 C 
BRANCH  25  26
HETATM   26  C   UNL     1     -21.800  -6.996  -5.215  1.00  0.00     0.103 C 
BRANCH  26  27
HETATM   27  C   UNL     1     -20.895  -6.217  -6.149  1.00  0.00     0.217 C 
HETATM   28  O   UNL     1     -19.894  -6.698  -6.671  1.00  0.00    -0.274 OA
HETATM   29  N   UNL     1     -21.314  -4.928  -6.373  1.00  0.00    -0.357 N 
HETATM   30  H   UNL     1     -22.062  -4.546  -5.811  1.00  0.00     0.162 HD
BRANCH  29  31
HETATM   31  C   UNL     1     -20.553  -4.042  -7.218  1.00  0.00     0.161 C 
BRANCH  31  32
HETATM   32  C   UNL     1     -21.011  -4.107  -8.651  1.00  0.00    -0.038 A 
HETATM   33  C   UNL     1     -20.109  -4.358  -9.692  1.00  0.00     0.012 A 
HETATM   34  C   UNL     1     -20.555  -4.429 -11.013  1.00  0.00     0.040 A 
HETATM   35  C   UNL     1     -21.906  -4.237 -11.297  1.00  0.00     0.099 A 
HETATM   36  C   UNL     1     -22.822  -3.960 -10.274  1.00  0.00     0.101 A 
HETATM   37  C   UNL     1     -22.362  -3.894  -8.956  1.00  0.00     0.048 A 
BRANCH  35  38
HETATM   38  O   UNL     1     -22.350  -4.319 -12.591  1.00  0.00    -0.358 OA
HETATM   39  H   UNL     1     -21.676  -4.764 -13.127  1.00  0.00     0.217 HD
ENDBRANCH  35  38
BRANCH  36  40
HETATM   40  O   UNL     1     -24.128  -3.775 -10.640  1.00  0.00    -0.353 OA
HETATM   41  C   UNL     1     -24.972  -3.168  -9.675  1.00  0.00     0.210 C 
ENDBRANCH  36  40
ENDBRANCH  31  32
ENDBRANCH  29  31
ENDBRANCH  26  27
ENDBRANCH  25  26
ENDBRANCH  24  25
ENDBRANCH  23  24
ENDBRANCH  22  23
ENDBRANCH   1  22
TORSDOF 22
ENDMDL
