MODEL 1
REMARK VINA RESULT:      -8.6      0.000      0.000
REMARK  10 active torsions:
REMARK  status: ('A' for Active; 'I' for Inactive)
REMARK    1  A    between atoms: O_2  and  C_3 
REMARK    2  A    between atoms: C_5  and  C_6 
REMARK    3  A    between atoms: C_6  and  N_7 
REMARK       I    between atoms: N_7  and  C_8 
REMARK    4  A    between atoms: C_8  and  C_10 
REMARK    5  A    between atoms: C_10  and  C_11 
REMARK    6  A    between atoms: C_11  and  C_12 
REMARK    7  A    between atoms: C_12  and  C_13 
REMARK    8  A    between atoms: C_13  and  C_14 
REMARK    9  A    between atoms: C_15  and  C_16 
REMARK   10  A    between atoms: C_21  and  O_22 
ROOT
HETATM    1  N   UNL     1     -20.668  -5.301  -8.313  1.00  0.00    -0.357 N 
HETATM    2  C   UNL     1     -19.831  -5.317  -7.229  1.00  0.00     0.217 C 
HETATM    3  O   UNL     1     -18.887  -4.533  -7.076  1.00  0.00    -0.274 OA
HETATM    4  H   UNL     1     -21.426  -5.970  -8.355  1.00  0.00     0.162 HD
ENDROOT
BRANCH   1   5
HETATM    5  C   UNL     1     -20.490  -4.343  -9.385  1.00  0.00     0.161 C 
BRANCH   5   6
HETATM    6  C   UNL     1     -21.770  -3.989 -10.108  1.00  0.00    -0.038 A 
HETATM    7  C   UNL     1     -21.762  -3.238 -11.306  1.00  0.00     0.048 A 
HETATM    8  C   UNL     1     -22.961  -2.895 -11.956  1.00  0.00     0.101 A 
HETATM    9  C   UNL     1     -24.176  -3.298 -11.390  1.00  0.00     0.099 A 
HETATM   10  C   UNL     1     -24.202  -4.026 -10.202  1.00  0.00     0.040 A 
HETATM   11  C   UNL     1     -22.999  -4.362  -9.569  1.00  0.00     0.012 A 
BRANCH   8  12
HETATM   12  O   UNL     1     -23.027  -2.186 -13.129  1.00  0.00    -0.353 OA
HETATM   13  C   UNL     1     -22.858  -2.914 -14.338  1.00  0.00     0.210 C 
ENDBRANCH   8  12
BRANCH   9  14
HETATM   14  O   UNL     1     -25.348  -2.969 -12.014  1.00  0.00    -0.358 OA
HETATM   15  H   UNL     1     -25.964  -3.714 -11.943  1.00  0.00     0.217 HD
ENDBRANCH   9  14
ENDBRANCH   5   6
ENDBRANCH   1   5
BRANCH   2  16
HETATM   16  C   UNL     1     -20.173  -6.401  -6.226  1.00  0.00     0.103 C 
BRANCH  16  17
HETATM   17  C   UNL     1     -21.212  -5.923  -5.217  1.00  0.00     0.010 C 
BRANCH  17  18
HETATM   18  C   UNL     1     -21.467  -6.960  -4.122  1.00  0.00     0.004 C 
BRANCH  18  19
HETATM   19  C   UNL     1     -21.426  -6.297  -2.746  1.00  0.00     0.027 C 
BRANCH  19  20
HETATM   20  C   UNL     1     -21.607  -7.299  -1.647  1.00  0.00    -0.030 C 
HETATM   21  C   UNL     1     -22.489  -7.136  -0.647  1.00  0.00    -0.027 C 
BRANCH  21  22
HETATM   22  C   UNL     1     -22.660  -8.125   0.478  1.00  0.00    -0.001 C 
HETATM   23  C   UNL     1     -23.244  -9.443  -0.032  1.00  0.00     0.013 C 
HETATM   24  C   UNL     1     -21.326  -8.380   1.182  1.00  0.00     0.013 C 
ENDBRANCH  21  22
ENDBRANCH  19  20
ENDBRANCH  18  19
ENDBRANCH  17  18
ENDBRANCH  16  17
ENDBRANCH   2  16
TORSDOF 10
ENDMDL
MODEL 2
REMARK VINA RESULT:      -8.5      1.460      2.298
REMARK  10 active torsions:
REMARK  status: ('A' for Active; 'I' for Inactive)
REMARK    1  A    between atoms: O_2  and  C_3 
REMARK    2  A    between atoms: C_5  and  C_6 
REMARK    3  A    between atoms: C_6  and  N_7 
REMARK       I    between atoms: N_7  and  C_8 
REMARK    4  A    between atoms: C_8  and  C_10 
REMARK    5  A    between atoms: C_10  and  C_11 
REMARK    6  A    between atoms: C_11  and  C_12 
REMARK    7  A    between atoms: C_12  and  C_13 
REMARK    8  A    between atoms: C_13  and  C_14 
REMARK    9  A    between atoms: C_15  and  C_16 
REMARK   10  A    between atoms: C_21  and  O_22 
ROOT
HETATM    1  N   UNL     1     -21.234  -5.169  -6.479  1.00  0.00    -0.357 N 
HETATM    2  C   UNL     1     -20.655  -6.404  -6.348  1.00  0.00     0.217 C 
HETATM    3  O   UNL     1     -19.549  -6.699  -6.816  1.00  0.00    -0.274 OA
HETATM    4  H   UNL     1     -22.138  -5.006  -6.053  1.00  0.00     0.162 HD
ENDROOT
BRANCH   1   5
HETATM    5  C   UNL     1     -20.572  -4.102  -7.200  1.00  0.00     0.161 C 
BRANCH   5   6
HETATM    6  C   UNL     1     -20.963  -4.017  -8.659  1.00  0.00    -0.038 A 
HETATM    7  C   UNL     1     -22.272  -3.660  -9.056  1.00  0.00     0.048 A 
HETATM    8  C   UNL     1     -22.629  -3.607 -10.415  1.00  0.00     0.101 A 
HETATM    9  C   UNL     1     -21.667  -3.927 -11.381  1.00  0.00     0.099 A 
HETATM   10  C   UNL     1     -20.376  -4.294 -11.004  1.00  0.00     0.040 A 
HETATM   11  C   UNL     1     -20.036  -4.339  -9.648  1.00  0.00     0.012 A 
BRANCH   8  12
HETATM   12  O   UNL     1     -23.874  -3.252 -10.873  1.00  0.00    -0.353 OA
HETATM   13  C   UNL     1     -24.962  -3.395  -9.969  1.00  0.00     0.210 C 
ENDBRANCH   8  12
BRANCH   9  14
HETATM   14  O   UNL     1     -22.005  -3.879 -12.705  1.00  0.00    -0.358 OA
HETATM   15  H   UNL     1     -22.086  -2.952 -12.976  1.00  0.00     0.217 HD
ENDBRANCH   9  14
ENDBRANCH   5   6
ENDBRANCH   1   5
BRANCH   2  16
HETATM   16  C   UNL     1     -21.510  -7.386  -5.572  1.00  0.00     0.103 C 
BRANCH  16  17
HETATM   17  C   UNL     1     -22.185  -6.720  -4.378  1.00  0.00     0.010 C 
BRANCH  17  18
HETATM   18  C   UNL     1     -21.277  -6.695  -3.147  1.00  0.00     0.004 C 
BRANCH  18  19
HETATM   19  C   UNL     1     -21.980  -5.994  -1.986  1.00  0.00     0.027 C 
BRANCH  19  20
HETATM   20  C   UNL     1     -22.401  -6.969  -0.929  1.00  0.00    -0.030 C 
HETATM   21  C   UNL     1     -21.688  -8.064  -0.618  1.00  0.00    -0.027 C 
BRANCH  21  22
HETATM   22  C   UNL     1     -22.117  -9.065   0.424  1.00  0.00    -0.001 C 
HETATM   23  C   UNL     1     -23.331  -9.866  -0.048  1.00  0.00     0.013 C 
HETATM   24  C   UNL     1     -20.966 -10.012   0.769  1.00  0.00     0.013 C 
ENDBRANCH  21  22
ENDBRANCH  19  20
ENDBRANCH  18  19
ENDBRANCH  17  18
ENDBRANCH  16  17
ENDBRANCH   2  16
TORSDOF 10
ENDMDL
MODEL 3
REMARK VINA RESULT:      -7.8      3.457     10.258
REMARK  10 active torsions:
REMARK  status: ('A' for Active; 'I' for Inactive)
REMARK    1  A    between atoms: O_2  and  C_3 
REMARK    2  A    between atoms: C_5  and  C_6 
REMARK    3  A    between atoms: C_6  and  N_7 
REMARK       I    between atoms: N_7  and  C_8 
REMARK    4  A    between atoms: C_8  and  C_10 
REMARK    5  A    between atoms: C_10  and  C_11 
REMARK    6  A    between atoms: C_11  and  C_12 
REMARK    7  A    between atoms: C_12  and  C_13 
REMARK    8  A    between atoms: C_13  and  C_14 
REMARK    9  A    between atoms: C_15  and  C_16 
REMARK   10  A    between atoms: C_21  and  O_22 
ROOT
HETATM    1  N   UNL     1     -21.301  -6.226  -3.723  1.00  0.00    -0.357 N 
HETATM    2  C   UNL     1     -22.001  -6.243  -4.900  1.00  0.00     0.217 C 
HETATM    3  O   UNL     1     -23.234  -6.185  -4.969  1.00  0.00    -0.274 OA
HETATM    4  H   UNL     1     -20.290  -6.264  -3.755  1.00  0.00     0.162 HD
ENDROOT
BRANCH   1   5
HETATM    5  C   UNL     1     -21.981  -6.146  -2.447  1.00  0.00     0.161 C 
BRANCH   5   6
HETATM    6  C   UNL     1     -21.695  -7.311  -1.526  1.00  0.00    -0.038 A 
HETATM    7  C   UNL     1     -20.807  -8.348  -1.896  1.00  0.00     0.048 A 
HETATM    8  C   UNL     1     -20.568  -9.438  -1.041  1.00  0.00     0.101 A 
HETATM    9  C   UNL     1     -21.235  -9.494   0.188  1.00  0.00     0.099 A 
HETATM   10  C   UNL     1     -22.124  -8.487   0.561  1.00  0.00     0.040 A 
HETATM   11  C   UNL     1     -22.349  -7.407  -0.300  1.00  0.00     0.012 A 
BRANCH   8  12
HETATM   12  O   UNL     1     -19.707 -10.468  -1.328  1.00  0.00    -0.353 OA
HETATM   13  C   UNL     1     -18.827 -10.291  -2.430  1.00  0.00     0.210 C 
ENDBRANCH   8  12
BRANCH   9  14
HETATM   14  O   UNL     1     -21.010 -10.551   1.026  1.00  0.00    -0.358 OA
HETATM   15  H   UNL     1     -20.056 -10.715   1.076  1.00  0.00     0.217 HD
ENDBRANCH   9  14
ENDBRANCH   5   6
ENDBRANCH   1   5
BRANCH   2  16
HETATM   16  C   UNL     1     -21.111  -6.346  -6.124  1.00  0.00     0.103 C 
BRANCH  16  17
HETATM   17  C   UNL     1     -20.116  -5.192  -6.191  1.00  0.00     0.010 C 
BRANCH  17  18
HETATM   18  C   UNL     1     -20.591  -4.079  -7.127  1.00  0.00     0.004 C 
BRANCH  18  19
HETATM   19  C   UNL     1     -19.675  -3.986  -8.346  1.00  0.00     0.027 C 
BRANCH  19  20
HETATM   20  C   UNL     1     -20.371  -4.445  -9.591  1.00  0.00    -0.030 C 
HETATM   21  C   UNL     1     -21.472  -3.850 -10.076  1.00  0.00    -0.027 C 
BRANCH  21  22
HETATM   22  C   UNL     1     -22.195  -4.320 -11.313  1.00  0.00    -0.001 C 
HETATM   23  C   UNL     1     -23.572  -4.886 -10.963  1.00  0.00     0.013 C 
HETATM   24  C   UNL     1     -22.337  -3.180 -12.322  1.00  0.00     0.013 C 
ENDBRANCH  21  22
ENDBRANCH  19  20
ENDBRANCH  18  19
ENDBRANCH  17  18
ENDBRANCH  16  17
ENDBRANCH   2  16
TORSDOF 10
ENDMDL
MODEL 4
REMARK VINA RESULT:      -7.1      2.624      4.899
REMARK  10 active torsions:
REMARK  status: ('A' for Active; 'I' for Inactive)
REMARK    1  A    between atoms: O_2  and  C_3 
REMARK    2  A    between atoms: C_5  and  C_6 
REMARK    3  A    between atoms: C_6  and  N_7 
REMARK       I    between atoms: N_7  and  C_8 
REMARK    4  A    between atoms: C_8  and  C_10 
REMARK    5  A    between atoms: C_10  and  C_11 
REMARK    6  A    between atoms: C_11  and  C_12 
REMARK    7  A    between atoms: C_12  and  C_13 
REMARK    8  A    between atoms: C_13  and  C_14 
REMARK    9  A    between atoms: C_15  and  C_16 
REMARK   10  A    between atoms: C_21  and  O_22 
ROOT
HETATM    1  N   UNL     1     -21.563  -6.689  -3.615  1.00  0.00    -0.357 N 
HETATM    2  C   UNL     1     -21.216  -7.892  -3.060  1.00  0.00     0.217 C 
HETATM    3  O   UNL     1     -21.564  -8.987  -3.518  1.00  0.00    -0.274 OA
HETATM    4  H   UNL     1     -21.224  -5.837  -3.185  1.00  0.00     0.162 HD
ENDROOT
BRANCH   1   5
HETATM    5  C   UNL     1     -22.391  -6.619  -4.802  1.00  0.00     0.161 C 
BRANCH   5   6
HETATM    6  C   UNL     1     -21.749  -5.875  -5.952  1.00  0.00    -0.038 A 
HETATM    7  C   UNL     1     -22.492  -4.992  -6.769  1.00  0.00     0.048 A 
HETATM    8  C   UNL     1     -21.889  -4.324  -7.850  1.00  0.00     0.101 A 
HETATM    9  C   UNL     1     -20.535  -4.557  -8.119  1.00  0.00     0.099 A 
HETATM   10  C   UNL     1     -19.794  -5.436  -7.332  1.00  0.00     0.040 A 
HETATM   11  C   UNL     1     -20.408  -6.090  -6.258  1.00  0.00     0.012 A 
BRANCH   8  12
HETATM   12  O   UNL     1     -22.543  -3.441  -8.672  1.00  0.00    -0.353 OA
HETATM   13  C   UNL     1     -23.505  -3.980  -9.570  1.00  0.00     0.210 C 
ENDBRANCH   8  12
BRANCH   9  14
HETATM   14  O   UNL     1     -19.941  -3.913  -9.169  1.00  0.00    -0.358 OA
HETATM   15  H   UNL     1     -19.960  -2.957  -9.005  1.00  0.00     0.217 HD
ENDBRANCH   9  14
ENDBRANCH   5   6
ENDBRANCH   1   5
BRANCH   2  16
HETATM   16  C   UNL     1     -20.359  -7.753  -1.817  1.00  0.00     0.103 C 
BRANCH  16  17
HETATM   17  C   UNL     1     -21.079  -8.278  -0.580  1.00  0.00     0.010 C 
BRANCH  17  18
HETATM   18  C   UNL     1     -22.441  -7.610  -0.382  1.00  0.00     0.004 C 
BRANCH  18  19
HETATM   19  C   UNL     1     -23.396  -8.561   0.339  1.00  0.00     0.027 C 
BRANCH  19  20
HETATM   20  C   UNL     1     -22.933  -9.983   0.243  1.00  0.00    -0.030 C 
HETATM   21  C   UNL     1     -23.738 -10.991  -0.128  1.00  0.00    -0.027 C 
BRANCH  21  22
HETATM   22  C   UNL     1     -23.289 -12.428  -0.202  1.00  0.00    -0.001 C 
HETATM   23  C   UNL     1     -23.287 -13.075   1.184  1.00  0.00     0.013 C 
HETATM   24  C   UNL     1     -24.184 -13.226  -1.151  1.00  0.00     0.013 C 
ENDBRANCH  21  22
ENDBRANCH  19  20
ENDBRANCH  18  19
ENDBRANCH  17  18
ENDBRANCH  16  17
ENDBRANCH   2  16
TORSDOF 10
ENDMDL
MODEL 5
REMARK VINA RESULT:      -7.0     12.810     16.433
REMARK  10 active torsions:
REMARK  status: ('A' for Active; 'I' for Inactive)
REMARK    1  A    between atoms: O_2  and  C_3 
REMARK    2  A    between atoms: C_5  and  C_6 
REMARK    3  A    between atoms: C_6  and  N_7 
REMARK       I    between atoms: N_7  and  C_8 
REMARK    4  A    between atoms: C_8  and  C_10 
REMARK    5  A    between atoms: C_10  and  C_11 
REMARK    6  A    between atoms: C_11  and  C_12 
REMARK    7  A    between atoms: C_12  and  C_13 
REMARK    8  A    between atoms: C_13  and  C_14 
REMARK    9  A    between atoms: C_15  and  C_16 
REMARK   10  A    between atoms: C_21  and  O_22 
ROOT
HETATM    1  N   UNL     1     -35.183  -0.621 -11.510  1.00  0.00    -0.357 N 
HETATM    2  C   UNL     1     -35.838  -0.350 -12.682  1.00  0.00     0.217 C 
HETATM    3  O   UNL     1     -36.771  -1.032 -13.122  1.00  0.00    -0.274 OA
HETATM    4  H   UNL     1     -34.438  -0.003 -11.213  1.00  0.00     0.162 HD
ENDROOT
BRANCH   1   5
HETATM    5  C   UNL     1     -35.546  -1.760 -10.692  1.00  0.00     0.161 C 
BRANCH   5   6
HETATM    6  C   UNL     1     -34.704  -2.990 -10.949  1.00  0.00    -0.038 A 
HETATM    7  C   UNL     1     -35.241  -4.293 -10.833  1.00  0.00     0.048 A 
HETATM    8  C   UNL     1     -34.442  -5.429 -11.052  1.00  0.00     0.101 A 
HETATM    9  C   UNL     1     -33.091  -5.254 -11.376  1.00  0.00     0.099 A 
HETATM   10  C   UNL     1     -32.544  -3.976 -11.480  1.00  0.00     0.040 A 
HETATM   11  C   UNL     1     -33.354  -2.856 -11.262  1.00  0.00     0.012 A 
BRANCH   8  12
HETATM   12  O   UNL     1     -34.900  -6.721 -10.974  1.00  0.00    -0.353 OA
HETATM   13  C   UNL     1     -34.947  -7.316  -9.684  1.00  0.00     0.210 C 
ENDBRANCH   8  12
BRANCH   9  14
HETATM   14  O   UNL     1     -32.306  -6.353 -11.589  1.00  0.00    -0.358 OA
HETATM   15  H   UNL     1     -31.394  -6.142 -11.338  1.00  0.00     0.217 HD
ENDBRANCH   9  14
ENDBRANCH   5   6
ENDBRANCH   1   5
BRANCH   2  16
HETATM   16  C   UNL     1     -35.302   0.875 -13.398  1.00  0.00     0.103 C 
BRANCH  16  17
HETATM   17  C   UNL     1     -34.930   0.561 -14.842  1.00  0.00     0.010 C 
BRANCH  17  18
HETATM   18  C   UNL     1     -36.165   0.408 -15.732  1.00  0.00     0.004 C 
BRANCH  18  19
HETATM   19  C   UNL     1     -35.893  -0.604 -16.845  1.00  0.00     0.027 C 
BRANCH  19  20
HETATM   20  C   UNL     1     -35.480  -1.933 -16.290  1.00  0.00    -0.030 C 
HETATM   21  C   UNL     1     -34.439  -2.634 -16.767  1.00  0.00    -0.027 C 
BRANCH  21  22
HETATM   22  C   UNL     1     -34.032  -3.984 -16.234  1.00  0.00    -0.001 C 
HETATM   23  C   UNL     1     -32.608  -4.339 -16.664  1.00  0.00     0.013 C 
HETATM   24  C   UNL     1     -34.145  -4.020 -14.710  1.00  0.00     0.013 C 
ENDBRANCH  21  22
ENDBRANCH  19  20
ENDBRANCH  18  19
ENDBRANCH  17  18
ENDBRANCH  16  17
ENDBRANCH   2  16
TORSDOF 10
ENDMDL
MODEL 6
REMARK VINA RESULT:      -7.0      4.198     10.303
REMARK  10 active torsions:
REMARK  status: ('A' for Active; 'I' for Inactive)
REMARK    1  A    between atoms: O_2  and  C_3 
REMARK    2  A    between atoms: C_5  and  C_6 
REMARK    3  A    between atoms: C_6  and  N_7 
REMARK       I    between atoms: N_7  and  C_8 
REMARK    4  A    between atoms: C_8  and  C_10 
REMARK    5  A    between atoms: C_10  and  C_11 
REMARK    6  A    between atoms: C_11  and  C_12 
REMARK    7  A    between atoms: C_12  and  C_13 
REMARK    8  A    between atoms: C_13  and  C_14 
REMARK    9  A    between atoms: C_15  and  C_16 
REMARK   10  A    between atoms: C_21  and  O_22 
ROOT
HETATM    1  N   UNL     1     -21.110  -7.803  -2.915  1.00  0.00    -0.357 N 
HETATM    2  C   UNL     1     -21.727  -6.670  -3.373  1.00  0.00     0.217 C 
HETATM    3  O   UNL     1     -22.435  -5.940  -2.669  1.00  0.00    -0.274 OA
HETATM    4  H   UNL     1     -20.535  -8.339  -3.554  1.00  0.00     0.162 HD
ENDROOT
BRANCH   1   5
HETATM    5  C   UNL     1     -21.258  -8.237  -1.541  1.00  0.00     0.161 C 
BRANCH   5   6
HETATM    6  C   UNL     1     -22.030  -9.529  -1.387  1.00  0.00    -0.038 A 
HETATM    7  C   UNL     1     -21.807 -10.632  -2.242  1.00  0.00     0.048 A 
HETATM    8  C   UNL     1     -22.548 -11.819  -2.103  1.00  0.00     0.101 A 
HETATM    9  C   UNL     1     -23.528 -11.892  -1.107  1.00  0.00     0.099 A 
HETATM   10  C   UNL     1     -23.769 -10.808  -0.265  1.00  0.00     0.040 A 
HETATM   11  C   UNL     1     -23.021  -9.635  -0.415  1.00  0.00     0.012 A 
BRANCH   8  12
HETATM   12  O   UNL     1     -22.372 -12.934  -2.884  1.00  0.00    -0.353 OA
HETATM   13  C   UNL     1     -22.502 -12.768  -4.290  1.00  0.00     0.210 C 
ENDBRANCH   8  12
BRANCH   9  14
HETATM   14  O   UNL     1     -24.254 -13.042  -0.964  1.00  0.00    -0.358 OA
HETATM   15  H   UNL     1     -24.661 -13.266  -1.815  1.00  0.00     0.217 HD
ENDBRANCH   9  14
ENDBRANCH   5   6
ENDBRANCH   1   5
BRANCH   2  16
HETATM   16  C   UNL     1     -21.461  -6.394  -4.840  1.00  0.00     0.103 C 
BRANCH  16  17
HETATM   17  C   UNL     1     -20.515  -5.214  -5.025  1.00  0.00     0.010 C 
BRANCH  17  18
HETATM   18  C   UNL     1     -20.516  -4.699  -6.466  1.00  0.00     0.004 C 
BRANCH  18  19
HETATM   19  C   UNL     1     -21.939  -4.362  -6.907  1.00  0.00     0.027 C 
BRANCH  19  20
HETATM   20  C   UNL     1     -21.965  -3.788  -8.291  1.00  0.00    -0.030 C 
HETATM   21  C   UNL     1     -22.432  -4.462  -9.354  1.00  0.00    -0.027 C 
BRANCH  21  22
HETATM   22  C   UNL     1     -22.437  -3.904 -10.754  1.00  0.00    -0.001 C 
HETATM   23  C   UNL     1     -21.043  -3.973 -11.379  1.00  0.00     0.013 C 
HETATM   24  C   UNL     1     -23.441  -4.653 -11.631  1.00  0.00     0.013 C 
ENDBRANCH  21  22
ENDBRANCH  19  20
ENDBRANCH  18  19
ENDBRANCH  17  18
ENDBRANCH  16  17
ENDBRANCH   2  16
TORSDOF 10
ENDMDL
MODEL 7
REMARK VINA RESULT:      -6.8      3.247     10.524
REMARK  10 active torsions:
REMARK  status: ('A' for Active; 'I' for Inactive)
REMARK    1  A    between atoms: O_2  and  C_3 
REMARK    2  A    between atoms: C_5  and  C_6 
REMARK    3  A    between atoms: C_6  and  N_7 
REMARK       I    between atoms: N_7  and  C_8 
REMARK    4  A    between atoms: C_8  and  C_10 
REMARK    5  A    between atoms: C_10  and  C_11 
REMARK    6  A    between atoms: C_11  and  C_12 
REMARK    7  A    between atoms: C_12  and  C_13 
REMARK    8  A    between atoms: C_13  and  C_14 
REMARK    9  A    between atoms: C_15  and  C_16 
REMARK   10  A    between atoms: C_21  and  O_22 
ROOT
HETATM    1  N   UNL     1     -20.686  -6.274  -4.874  1.00  0.00    -0.357 N 
HETATM    2  C   UNL     1     -21.137  -5.714  -6.039  1.00  0.00     0.217 C 
HETATM    3  O   UNL     1     -22.253  -5.197  -6.168  1.00  0.00    -0.274 OA
HETATM    4  H   UNL     1     -19.753  -6.665  -4.848  1.00  0.00     0.162 HD
ENDROOT
BRANCH   1   5
HETATM    5  C   UNL     1     -21.515  -6.305  -3.686  1.00  0.00     0.161 C 
BRANCH   5   6
HETATM    6  C   UNL     1     -21.203  -7.454  -2.753  1.00  0.00    -0.038 A 
HETATM    7  C   UNL     1     -21.794  -7.550  -1.472  1.00  0.00     0.048 A 
HETATM    8  C   UNL     1     -21.477  -8.611  -0.604  1.00  0.00     0.101 A 
HETATM    9  C   UNL     1     -20.551  -9.573  -1.022  1.00  0.00     0.099 A 
HETATM   10  C   UNL     1     -19.949  -9.484  -2.276  1.00  0.00     0.040 A 
HETATM   11  C   UNL     1     -20.277  -8.425  -3.129  1.00  0.00     0.012 A 
BRANCH   8  12
HETATM   12  O   UNL     1     -22.026  -8.777   0.643  1.00  0.00    -0.353 OA
HETATM   13  C   UNL     1     -23.228  -8.072   0.922  1.00  0.00     0.210 C 
ENDBRANCH   8  12
BRANCH   9  14
HETATM   14  O   UNL     1     -20.236 -10.608  -0.185  1.00  0.00    -0.358 OA
HETATM   15  H   UNL     1     -19.272 -10.683  -0.125  1.00  0.00     0.217 HD
ENDBRANCH   9  14
ENDBRANCH   5   6
ENDBRANCH   1   5
BRANCH   2  16
HETATM   16  C   UNL     1     -20.129  -5.793  -7.170  1.00  0.00     0.103 C 
BRANCH  16  17
HETATM   17  C   UNL     1     -19.753  -4.407  -7.682  1.00  0.00     0.010 C 
BRANCH  17  18
HETATM   18  C   UNL     1     -20.012  -4.261  -9.183  1.00  0.00     0.004 C 
BRANCH  18  19
HETATM   19  C   UNL     1     -21.510  -4.351  -9.473  1.00  0.00     0.027 C 
BRANCH  19  20
HETATM   20  C   UNL     1     -21.861  -3.677 -10.764  1.00  0.00    -0.030 C 
HETATM   21  C   UNL     1     -23.109  -3.287 -11.069  1.00  0.00    -0.027 C 
BRANCH  21  22
HETATM   22  C   UNL     1     -23.479  -2.633 -12.377  1.00  0.00    -0.001 C 
HETATM   23  C   UNL     1     -22.526  -3.060 -13.494  1.00  0.00     0.013 C 
HETATM   24  C   UNL     1     -24.920  -2.969 -12.761  1.00  0.00     0.013 C 
ENDBRANCH  21  22
ENDBRANCH  19  20
ENDBRANCH  18  19
ENDBRANCH  17  18
ENDBRANCH  16  17
ENDBRANCH   2  16
TORSDOF 10
ENDMDL
MODEL 8
REMARK VINA RESULT:      -6.7      4.348     11.243
REMARK  10 active torsions:
REMARK  status: ('A' for Active; 'I' for Inactive)
REMARK    1  A    between atoms: O_2  and  C_3 
REMARK    2  A    between atoms: C_5  and  C_6 
REMARK    3  A    between atoms: C_6  and  N_7 
REMARK       I    between atoms: N_7  and  C_8 
REMARK    4  A    between atoms: C_8  and  C_10 
REMARK    5  A    between atoms: C_10  and  C_11 
REMARK    6  A    between atoms: C_11  and  C_12 
REMARK    7  A    between atoms: C_12  and  C_13 
REMARK    8  A    between atoms: C_13  and  C_14 
REMARK    9  A    between atoms: C_15  and  C_16 
REMARK   10  A    between atoms: C_21  and  O_22 
ROOT
HETATM    1  N   UNL     1     -21.592  -8.010  -2.359  1.00  0.00    -0.357 N 
HETATM    2  C   UNL     1     -21.550  -6.797  -2.994  1.00  0.00     0.217 C 
HETATM    3  O   UNL     1     -21.842  -5.725  -2.451  1.00  0.00    -0.274 OA
HETATM    4  H   UNL     1     -21.323  -8.840  -2.872  1.00  0.00     0.162 HD
ENDROOT
BRANCH   1   5
HETATM    5  C   UNL     1     -22.002  -8.118  -0.974  1.00  0.00     0.161 C 
BRANCH   5   6
HETATM    6  C   UNL     1     -22.143  -9.544  -0.488  1.00  0.00    -0.038 A 
HETATM    7  C   UNL     1     -21.015 -10.361  -0.248  1.00  0.00     0.048 A 
HETATM    8  C   UNL     1     -21.161 -11.692   0.181  1.00  0.00     0.101 A 
HETATM    9  C   UNL     1     -22.449 -12.209   0.357  1.00  0.00     0.099 A 
HETATM   10  C   UNL     1     -23.572 -11.420   0.111  1.00  0.00     0.040 A 
HETATM   11  C   UNL     1     -23.410 -10.097  -0.313  1.00  0.00     0.012 A 
BRANCH   8  12
HETATM   12  O   UNL     1     -20.111 -12.535   0.450  1.00  0.00    -0.353 OA
HETATM   13  C   UNL     1     -18.830 -12.150  -0.030  1.00  0.00     0.210 C 
ENDBRANCH   8  12
BRANCH   9  14
HETATM   14  O   UNL     1     -22.601 -13.503   0.773  1.00  0.00    -0.358 OA
HETATM   15  H   UNL     1     -21.920 -14.051   0.355  1.00  0.00     0.217 HD
ENDBRANCH   9  14
ENDBRANCH   5   6
ENDBRANCH   1   5
BRANCH   2  16
HETATM   16  C   UNL     1     -21.110  -6.895  -4.442  1.00  0.00     0.103 C 
BRANCH  16  17
HETATM   17  C   UNL     1     -20.872  -5.517  -5.049  1.00  0.00     0.010 C 
BRANCH  17  18
HETATM   18  C   UNL     1     -21.711  -5.294  -6.309  1.00  0.00     0.004 C 
BRANCH  18  19
HETATM   19  C   UNL     1     -20.811  -4.909  -7.482  1.00  0.00     0.027 C 
BRANCH  19  20
HETATM   20  C   UNL     1     -21.584  -4.826  -8.764  1.00  0.00    -0.030 C 
HETATM   21  C   UNL     1     -21.063  -4.339  -9.901  1.00  0.00    -0.027 C 
BRANCH  21  22
HETATM   22  C   UNL     1     -21.840  -4.226 -11.188  1.00  0.00    -0.001 C 
HETATM   23  C   UNL     1     -23.277  -4.716 -11.008  1.00  0.00     0.013 C 
HETATM   24  C   UNL     1     -21.838  -2.783 -11.695  1.00  0.00     0.013 C 
ENDBRANCH  21  22
ENDBRANCH  19  20
ENDBRANCH  18  19
ENDBRANCH  17  18
ENDBRANCH  16  17
ENDBRANCH   2  16
TORSDOF 10
ENDMDL
MODEL 9
REMARK VINA RESULT:      -6.7      2.348      3.489
REMARK  10 active torsions:
REMARK  status: ('A' for Active; 'I' for Inactive)
REMARK    1  A    between atoms: O_2  and  C_3 
REMARK    2  A    between atoms: C_5  and  C_6 
REMARK    3  A    between atoms: C_6  and  N_7 
REMARK       I    between atoms: N_7  and  C_8 
REMARK    4  A    between atoms: C_8  and  C_10 
REMARK    5  A    between atoms: C_10  and  C_11 
REMARK    6  A    between atoms: C_11  and  C_12 
REMARK    7  A    between atoms: C_12  and  C_13 
REMARK    8  A    between atoms: C_13  and  C_14 
REMARK    9  A    between atoms: C_15  and  C_16 
REMARK   10  A    between atoms: C_21  and  O_22 
ROOT
HETATM    1  N   UNL     1     -21.576  -6.276  -6.125  1.00  0.00    -0.357 N 
HETATM    2  C   UNL     1     -21.698  -6.696  -4.827  1.00  0.00     0.217 C 
HETATM    3  O   UNL     1     -21.958  -5.942  -3.882  1.00  0.00    -0.274 OA
HETATM    4  H   UNL     1     -21.374  -6.961  -6.843  1.00  0.00     0.162 HD
ENDROOT
BRANCH   1   5
HETATM    5  C   UNL     1     -21.739  -4.882  -6.482  1.00  0.00     0.161 C 
BRANCH   5   6
HETATM    6  C   UNL     1     -21.494  -4.593  -7.947  1.00  0.00    -0.038 A 
HETATM    7  C   UNL     1     -22.510  -4.070  -8.779  1.00  0.00     0.048 A 
HETATM    8  C   UNL     1     -22.276  -3.829 -10.145  1.00  0.00     0.101 A 
HETATM    9  C   UNL     1     -21.017  -4.126 -10.679  1.00  0.00     0.099 A 
HETATM   10  C   UNL     1     -20.010  -4.656  -9.874  1.00  0.00     0.040 A 
HETATM   11  C   UNL     1     -20.257  -4.888  -8.517  1.00  0.00     0.012 A 
BRANCH   8  12
HETATM   12  O   UNL     1     -23.208  -3.306 -11.006  1.00  0.00    -0.353 OA
HETATM   13  C   UNL     1     -24.565  -3.319 -10.580  1.00  0.00     0.210 C 
ENDBRANCH   8  12
BRANCH   9  14
HETATM   14  O   UNL     1     -20.780  -3.895 -12.006  1.00  0.00    -0.358 OA
HETATM   15  H   UNL     1     -19.843  -3.678 -12.126  1.00  0.00     0.217 HD
ENDBRANCH   9  14
ENDBRANCH   5   6
ENDBRANCH   1   5
BRANCH   2  16
HETATM   16  C   UNL     1     -21.479  -8.187  -4.657  1.00  0.00     0.103 C 
BRANCH  16  17
HETATM   17  C   UNL     1     -20.596  -8.489  -3.451  1.00  0.00     0.010 C 
BRANCH  17  18
HETATM   18  C   UNL     1     -20.325  -9.987  -3.300  1.00  0.00     0.004 C 
BRANCH  18  19
HETATM   19  C   UNL     1     -19.779 -10.287  -1.906  1.00  0.00     0.027 C 
BRANCH  19  20
HETATM   20  C   UNL     1     -20.813 -10.937  -1.039  1.00  0.00    -0.030 C 
HETATM   21  C   UNL     1     -22.087 -11.112  -1.426  1.00  0.00    -0.027 C 
BRANCH  21  22
HETATM   22  C   UNL     1     -23.142 -11.740  -0.551  1.00  0.00    -0.001 C 
HETATM   23  C   UNL     1     -22.512 -12.449   0.649  1.00  0.00     0.013 C 
HETATM   24  C   UNL     1     -24.143 -10.688  -0.071  1.00  0.00     0.013 C 
ENDBRANCH  21  22
ENDBRANCH  19  20
ENDBRANCH  18  19
ENDBRANCH  17  18
ENDBRANCH  16  17
ENDBRANCH   2  16
TORSDOF 10
ENDMDL
