REMARK  17 active torsions:
REMARK  status: ('A' for Active; 'I' for Inactive)
REMARK    1  A    between atoms: C_2  and  C_3 
REMARK    2  A    between atoms: C_3  and  C_4 
REMARK    3  A    between atoms: C_4  and  C_5 
REMARK    4  A    between atoms: C_5  and  C_6 
REMARK    5  A    between atoms: C_7  and  C_8 
REMARK    6  A    between atoms: C_8  and  C_9 
REMARK    7  A    between atoms: C_10  and  C_11 
REMARK    8  A    between atoms: C_11  and  C_12 
REMARK    9  A    between atoms: C_13  and  C_14 
REMARK   10  A    between atoms: C_14  and  C_15 
REMARK   11  A    between atoms: C_16  and  C_17 
REMARK   12  A    between atoms: C_17  and  C_18 
REMARK   13  A    between atoms: C_18  and  C_19 
REMARK   14  A    between atoms: C_19  and  C_20 
REMARK       I    between atoms: C_20  and  N_22 
REMARK   15  A    between atoms: N_22  and  C_23 
REMARK   16  A    between atoms: C_23  and  C_24 
REMARK   17  A    between atoms: C_24  and  O_25 
ROOT
HETATM    1  C   UNL     1      14.834   7.736  -2.918  1.00  0.00     0.053 C 
ENDROOT
BRANCH   1   2
HETATM    2  C   UNL     1      13.339   7.700  -2.895  1.00  0.00    -0.027 C 
HETATM    3  C   UNL     1      12.635   6.631  -2.491  1.00  0.00    -0.027 C 
BRANCH   3   4
HETATM    4  C   UNL     1      11.141   6.591  -2.488  1.00  0.00     0.053 C 
BRANCH   4   5
HETATM    5  C   UNL     1      10.600   6.345  -1.114  1.00  0.00    -0.027 C 
HETATM    6  C   UNL     1       9.826   5.295  -0.803  1.00  0.00    -0.027 C 
BRANCH   6   7
HETATM    7  C   UNL     1       9.283   5.051   0.571  1.00  0.00     0.053 C 
BRANCH   7   8
HETATM    8  C   UNL     1       7.788   5.013   0.565  1.00  0.00    -0.027 C 
HETATM    9  C   UNL     1       7.072   3.952   0.965  1.00  0.00    -0.030 C 
BRANCH   9  10
HETATM   10  C   UNL     1       5.576   3.931   0.978  1.00  0.00     0.027 C 
BRANCH  10  11
HETATM   11  C   UNL     1       5.041   3.691   2.390  1.00  0.00     0.004 C 
BRANCH  11  12
HETATM   12  C   UNL     1       3.513   3.671   2.393  1.00  0.00    -0.000 C 
BRANCH  12  13
HETATM   13  C   UNL     1       2.967   3.432   3.797  1.00  0.00    -0.005 C 
HETATM   14  C   UNL     1       1.448   3.411   3.797  1.00  0.00     0.005 C 
ENDBRANCH  12  13
ENDBRANCH  11  12
ENDBRANCH  10  11
ENDBRANCH   9  10
ENDBRANCH   7   8
ENDBRANCH   6   7
ENDBRANCH   4   5
ENDBRANCH   3   4
ENDBRANCH   1   2
BRANCH   1  15
HETATM   15  C   UNL     1      15.359   8.820  -2.030  1.00  0.00    -0.027 C 
HETATM   16  C   UNL     1      16.159   8.583  -0.981  1.00  0.00    -0.030 C 
BRANCH  16  17
HETATM   17  C   UNL     1      16.719   9.668  -0.112  1.00  0.00     0.027 C 
BRANCH  17  18
HETATM   18  C   UNL     1      18.244   9.683  -0.133  1.00  0.00     0.013 C 
BRANCH  18  19
HETATM   19  C   UNL     1      18.826   9.930  -1.530  1.00  0.00     0.103 C 
BRANCH  19  20
HETATM   20  C   UNL     1      20.344   9.929  -1.478  1.00  0.00     0.217 C 
HETATM   21  O   UNL     1      20.977   9.741  -0.448  1.00  0.00    -0.274 OA
HETATM   22  N   UNL     1      20.948  10.151  -2.690  1.00  0.00    -0.359 N 
HETATM   23  H   UNL     1      20.390  10.254  -3.528  1.00  0.00     0.162 HD
BRANCH  22  24
HETATM   24  C   UNL     1      22.400  10.222  -2.783  1.00  0.00     0.148 C 
BRANCH  24  25
HETATM   25  C   UNL     1      23.032   8.856  -3.039  1.00  0.00     0.183 C 
BRANCH  25  26
HETATM   26  O   UNL     1      22.585   8.330  -4.289  1.00  0.00    -0.399 OA
HETATM   27  H   UNL     1      21.625   8.199  -4.199  1.00  0.00     0.209 HD
ENDBRANCH  25  26
ENDBRANCH  24  25
ENDBRANCH  22  24
ENDBRANCH  19  20
ENDBRANCH  18  19
ENDBRANCH  17  18
ENDBRANCH  16  17
ENDBRANCH   1  15
TORSDOF 17
