MODEL 1
REMARK VINA RESULT:      -8.1      0.000      0.000
REMARK  17 active torsions:
REMARK  status: ('A' for Active; 'I' for Inactive)
REMARK    1  A    between atoms: C_2  and  C_3 
REMARK    2  A    between atoms: C_3  and  C_4 
REMARK    3  A    between atoms: C_4  and  C_5 
REMARK    4  A    between atoms: C_5  and  C_6 
REMARK    5  A    between atoms: C_7  and  C_8 
REMARK    6  A    between atoms: C_8  and  C_9 
REMARK    7  A    between atoms: C_10  and  C_11 
REMARK    8  A    between atoms: C_11  and  C_12 
REMARK    9  A    between atoms: C_13  and  C_14 
REMARK   10  A    between atoms: C_14  and  C_15 
REMARK   11  A    between atoms: C_16  and  C_17 
REMARK   12  A    between atoms: C_17  and  C_18 
REMARK   13  A    between atoms: C_18  and  C_19 
REMARK   14  A    between atoms: C_19  and  C_20 
REMARK       I    between atoms: C_20  and  N_22 
REMARK   15  A    between atoms: N_22  and  C_23 
REMARK   16  A    between atoms: C_23  and  C_24 
REMARK   17  A    between atoms: C_24  and  O_25 
ROOT
HETATM    1  C   UNL     1     -19.584  -4.054  -7.552  1.00  0.00     0.053 C 
ENDROOT
BRANCH   1   2
HETATM    2  C   UNL     1     -19.965  -5.183  -6.647  1.00  0.00    -0.027 C 
HETATM    3  C   UNL     1     -20.886  -6.105  -6.967  1.00  0.00    -0.027 C 
BRANCH   3   4
HETATM    4  C   UNL     1     -21.278  -7.220  -6.053  1.00  0.00     0.053 C 
BRANCH   4   5
HETATM    5  C   UNL     1     -21.903  -6.704  -4.794  1.00  0.00    -0.027 C 
HETATM    6  C   UNL     1     -21.343  -6.840  -3.583  1.00  0.00    -0.027 C 
BRANCH   6   7
HETATM    7  C   UNL     1     -21.970  -6.327  -2.324  1.00  0.00     0.053 C 
BRANCH   7   8
HETATM    8  C   UNL     1     -21.903  -7.345  -1.230  1.00  0.00    -0.027 C 
HETATM    9  C   UNL     1     -22.489  -7.187  -0.034  1.00  0.00    -0.030 C 
BRANCH   9  10
HETATM   10  C   UNL     1     -22.437  -8.221   1.046  1.00  0.00     0.027 C 
BRANCH  10  11
HETATM   11  C   UNL     1     -22.451  -9.632   0.459  1.00  0.00     0.004 C 
BRANCH  11  12
HETATM   12  C   UNL     1     -23.876 -10.055   0.102  1.00  0.00    -0.000 C 
BRANCH  12  13
HETATM   13  C   UNL     1     -23.894 -11.424  -0.569  1.00  0.00    -0.005 C 
HETATM   14  C   UNL     1     -23.179 -12.460   0.281  1.00  0.00     0.005 C 
ENDBRANCH  12  13
ENDBRANCH  11  12
ENDBRANCH  10  11
ENDBRANCH   9  10
ENDBRANCH   7   8
ENDBRANCH   6   7
ENDBRANCH   4   5
ENDBRANCH   3   4
ENDBRANCH   1   2
BRANCH   1  15
HETATM   15  C   UNL     1     -20.429  -4.048  -8.786  1.00  0.00    -0.027 C 
HETATM   16  C   UNL     1     -19.946  -4.327 -10.005  1.00  0.00    -0.030 C 
BRANCH  16  17
HETATM   17  C   UNL     1     -20.796  -4.360 -11.239  1.00  0.00     0.027 C 
BRANCH  17  18
HETATM   18  C   UNL     1     -21.575  -3.063 -11.428  1.00  0.00     0.013 C 
BRANCH  18  19
HETATM   19  C   UNL     1     -23.095  -3.262 -11.399  1.00  0.00     0.103 C 
BRANCH  19  20
HETATM   20  C   UNL     1     -23.702  -2.894 -12.742  1.00  0.00     0.217 C 
HETATM   21  O   UNL     1     -24.906  -2.914 -12.959  1.00  0.00    -0.274 OA
HETATM   22  N   UNL     1     -22.783  -2.528 -13.693  1.00  0.00    -0.359 N 
HETATM   23  H   UNL     1     -21.799  -2.478 -13.460  1.00  0.00     0.162 HD
BRANCH  22  24
HETATM   24  C   UNL     1     -23.218  -2.193 -15.042  1.00  0.00     0.148 C 
BRANCH  24  25
HETATM   25  C   UNL     1     -23.596  -0.720 -15.180  1.00  0.00     0.183 C 
BRANCH  25  26
HETATM   26  O   UNL     1     -24.949  -0.516 -14.773  1.00  0.00    -0.399 OA
HETATM   27  H   UNL     1     -25.356  -1.399 -14.736  1.00  0.00     0.209 HD
ENDBRANCH  25  26
ENDBRANCH  24  25
ENDBRANCH  22  24
ENDBRANCH  19  20
ENDBRANCH  18  19
ENDBRANCH  17  18
ENDBRANCH  16  17
ENDBRANCH   1  15
TORSDOF 17
ENDMDL
MODEL 2
REMARK VINA RESULT:      -8.0      1.482      2.952
REMARK  17 active torsions:
REMARK  status: ('A' for Active; 'I' for Inactive)
REMARK    1  A    between atoms: C_2  and  C_3 
REMARK    2  A    between atoms: C_3  and  C_4 
REMARK    3  A    between atoms: C_4  and  C_5 
REMARK    4  A    between atoms: C_5  and  C_6 
REMARK    5  A    between atoms: C_7  and  C_8 
REMARK    6  A    between atoms: C_8  and  C_9 
REMARK    7  A    between atoms: C_10  and  C_11 
REMARK    8  A    between atoms: C_11  and  C_12 
REMARK    9  A    between atoms: C_13  and  C_14 
REMARK   10  A    between atoms: C_14  and  C_15 
REMARK   11  A    between atoms: C_16  and  C_17 
REMARK   12  A    between atoms: C_17  and  C_18 
REMARK   13  A    between atoms: C_18  and  C_19 
REMARK   14  A    between atoms: C_19  and  C_20 
REMARK       I    between atoms: C_20  and  N_22 
REMARK   15  A    between atoms: N_22  and  C_23 
REMARK   16  A    between atoms: C_23  and  C_24 
REMARK   17  A    between atoms: C_24  and  O_25 
ROOT
HETATM    1  C   UNL     1     -20.785  -6.630  -5.994  1.00  0.00     0.053 C 
ENDROOT
BRANCH   1   2
HETATM    2  C   UNL     1     -20.893  -6.202  -4.565  1.00  0.00    -0.027 C 
HETATM    3  C   UNL     1     -21.951  -6.488  -3.789  1.00  0.00    -0.027 C 
BRANCH   3   4
HETATM    4  C   UNL     1     -22.065  -6.042  -2.368  1.00  0.00     0.053 C 
BRANCH   4   5
HETATM    5  C   UNL     1     -21.723  -7.146  -1.416  1.00  0.00    -0.027 C 
HETATM    6  C   UNL     1     -22.421  -7.399  -0.299  1.00  0.00    -0.027 C 
BRANCH   6   7
HETATM    7  C   UNL     1     -22.077  -8.502   0.654  1.00  0.00     0.053 C 
BRANCH   7   8
HETATM    8  C   UNL     1     -22.299  -9.844   0.035  1.00  0.00    -0.027 C 
HETATM    9  C   UNL     1     -23.475 -10.239  -0.477  1.00  0.00    -0.030 C 
BRANCH   9  10
HETATM   10  C   UNL     1     -23.683 -11.575  -1.117  1.00  0.00     0.027 C 
BRANCH  10  11
HETATM   11  C   UNL     1     -22.586 -11.873  -2.140  1.00  0.00     0.004 C 
BRANCH  11  12
HETATM   12  C   UNL     1     -22.938 -11.271  -3.500  1.00  0.00    -0.000 C 
BRANCH  12  13
HETATM   13  C   UNL     1     -21.967 -10.157  -3.878  1.00  0.00    -0.005 C 
HETATM   14  C   UNL     1     -20.645 -10.311  -3.146  1.00  0.00     0.005 C 
ENDBRANCH  12  13
ENDBRANCH  11  12
ENDBRANCH  10  11
ENDBRANCH   9  10
ENDBRANCH   7   8
ENDBRANCH   6   7
ENDBRANCH   4   5
ENDBRANCH   3   4
ENDBRANCH   1   2
BRANCH   1  15
HETATM   15  C   UNL     1     -21.492  -5.669  -6.897  1.00  0.00    -0.027 C 
HETATM   16  C   UNL     1     -20.926  -5.142  -7.992  1.00  0.00    -0.030 C 
BRANCH  16  17
HETATM   17  C   UNL     1     -21.643  -4.210  -8.921  1.00  0.00     0.027 C 
BRANCH  17  18
HETATM   18  C   UNL     1     -21.347  -4.526 -10.384  1.00  0.00     0.013 C 
BRANCH  18  19
HETATM   19  C   UNL     1     -21.189  -3.272 -11.252  1.00  0.00     0.103 C 
BRANCH  19  20
HETATM   20  C   UNL     1     -22.472  -2.993 -12.016  1.00  0.00     0.217 C 
HETATM   21  O   UNL     1     -23.543  -2.778 -11.466  1.00  0.00    -0.274 OA
HETATM   22  N   UNL     1     -22.326  -2.996 -13.380  1.00  0.00    -0.359 N 
HETATM   23  H   UNL     1     -21.413  -3.130 -13.796  1.00  0.00     0.162 HD
BRANCH  22  24
HETATM   24  C   UNL     1     -23.482  -2.787 -14.241  1.00  0.00     0.148 C 
BRANCH  24  25
HETATM   25  C   UNL     1     -23.506  -1.387 -14.850  1.00  0.00     0.183 C 
BRANCH  25  26
HETATM   26  O   UNL     1     -24.779  -0.776 -14.637  1.00  0.00    -0.399 OA
HETATM   27  H   UNL     1     -25.246  -1.342 -13.998  1.00  0.00     0.209 HD
ENDBRANCH  25  26
ENDBRANCH  24  25
ENDBRANCH  22  24
ENDBRANCH  19  20
ENDBRANCH  18  19
ENDBRANCH  17  18
ENDBRANCH  16  17
ENDBRANCH   1  15
TORSDOF 17
ENDMDL
MODEL 3
REMARK VINA RESULT:      -7.6      2.212      3.747
REMARK  17 active torsions:
REMARK  status: ('A' for Active; 'I' for Inactive)
REMARK    1  A    between atoms: C_2  and  C_3 
REMARK    2  A    between atoms: C_3  and  C_4 
REMARK    3  A    between atoms: C_4  and  C_5 
REMARK    4  A    between atoms: C_5  and  C_6 
REMARK    5  A    between atoms: C_7  and  C_8 
REMARK    6  A    between atoms: C_8  and  C_9 
REMARK    7  A    between atoms: C_10  and  C_11 
REMARK    8  A    between atoms: C_11  and  C_12 
REMARK    9  A    between atoms: C_13  and  C_14 
REMARK   10  A    between atoms: C_14  and  C_15 
REMARK   11  A    between atoms: C_16  and  C_17 
REMARK   12  A    between atoms: C_17  and  C_18 
REMARK   13  A    between atoms: C_18  and  C_19 
REMARK   14  A    between atoms: C_19  and  C_20 
REMARK       I    between atoms: C_20  and  N_22 
REMARK   15  A    between atoms: N_22  and  C_23 
REMARK   16  A    between atoms: C_23  and  C_24 
REMARK   17  A    between atoms: C_24  and  O_25 
ROOT
HETATM    1  C   UNL     1     -20.536  -6.885  -5.738  1.00  0.00     0.053 C 
ENDROOT
BRANCH   1   2
HETATM    2  C   UNL     1     -21.476  -6.740  -4.584  1.00  0.00    -0.027 C 
HETATM    3  C   UNL     1     -21.121  -6.191  -3.411  1.00  0.00    -0.027 C 
BRANCH   3   4
HETATM    4  C   UNL     1     -22.057  -6.064  -2.253  1.00  0.00     0.053 C 
BRANCH   4   5
HETATM    5  C   UNL     1     -22.065  -7.305  -1.415  1.00  0.00    -0.027 C 
HETATM    6  C   UNL     1     -22.654  -7.379  -0.212  1.00  0.00    -0.027 C 
BRANCH   6   7
HETATM    7  C   UNL     1     -22.660  -8.619   0.627  1.00  0.00     0.053 C 
BRANCH   7   8
HETATM    8  C   UNL     1     -21.356  -9.346   0.529  1.00  0.00    -0.027 C 
HETATM    9  C   UNL     1     -21.135 -10.361  -0.318  1.00  0.00    -0.030 C 
BRANCH   9  10
HETATM   10  C   UNL     1     -19.821 -11.068  -0.426  1.00  0.00     0.027 C 
BRANCH  10  11
HETATM   11  C   UNL     1     -19.378 -11.187  -1.884  1.00  0.00     0.004 C 
BRANCH  11  12
HETATM   12  C   UNL     1     -19.997 -10.075  -2.730  1.00  0.00    -0.000 C 
BRANCH  12  13
HETATM   13  C   UNL     1     -18.921  -9.247  -3.426  1.00  0.00    -0.005 C 
HETATM   14  C   UNL     1     -17.549  -9.526  -2.837  1.00  0.00     0.005 C 
ENDBRANCH  12  13
ENDBRANCH  11  12
ENDBRANCH  10  11
ENDBRANCH   9  10
ENDBRANCH   7   8
ENDBRANCH   6   7
ENDBRANCH   4   5
ENDBRANCH   3   4
ENDBRANCH   1   2
BRANCH   1  15
HETATM   15  C   UNL     1     -21.018  -6.111  -6.924  1.00  0.00    -0.027 C 
HETATM   16  C   UNL     1     -20.642  -4.849  -7.176  1.00  0.00    -0.030 C 
BRANCH  16  17
HETATM   17  C   UNL     1     -21.091  -4.082  -8.383  1.00  0.00     0.027 C 
BRANCH  17  18
HETATM   18  C   UNL     1     -22.344  -4.687  -9.007  1.00  0.00     0.013 C 
BRANCH  18  19
HETATM   19  C   UNL     1     -23.619  -3.897  -8.689  1.00  0.00     0.103 C 
BRANCH  19  20
HETATM   20  C   UNL     1     -24.351  -3.537  -9.970  1.00  0.00     0.217 C 
HETATM   21  O   UNL     1     -25.497  -3.109  -9.987  1.00  0.00    -0.274 OA
HETATM   22  N   UNL     1     -23.613  -3.727 -11.112  1.00  0.00    -0.359 N 
HETATM   23  H   UNL     1     -22.652  -4.037 -11.053  1.00  0.00     0.162 HD
BRANCH  22  24
HETATM   24  C   UNL     1     -24.203  -3.466 -12.418  1.00  0.00     0.148 C 
BRANCH  24  25
HETATM   25  C   UNL     1     -23.183  -2.926 -13.417  1.00  0.00     0.183 C 
BRANCH  25  26
HETATM   26  O   UNL     1     -23.508  -3.361 -14.739  1.00  0.00    -0.399 OA
HETATM   27  H   UNL     1     -24.199  -2.756 -15.060  1.00  0.00     0.209 HD
ENDBRANCH  25  26
ENDBRANCH  24  25
ENDBRANCH  22  24
ENDBRANCH  19  20
ENDBRANCH  18  19
ENDBRANCH  17  18
ENDBRANCH  16  17
ENDBRANCH   1  15
TORSDOF 17
ENDMDL
MODEL 4
REMARK VINA RESULT:      -7.5      1.248      2.058
REMARK  17 active torsions:
REMARK  status: ('A' for Active; 'I' for Inactive)
REMARK    1  A    between atoms: C_2  and  C_3 
REMARK    2  A    between atoms: C_3  and  C_4 
REMARK    3  A    between atoms: C_4  and  C_5 
REMARK    4  A    between atoms: C_5  and  C_6 
REMARK    5  A    between atoms: C_7  and  C_8 
REMARK    6  A    between atoms: C_8  and  C_9 
REMARK    7  A    between atoms: C_10  and  C_11 
REMARK    8  A    between atoms: C_11  and  C_12 
REMARK    9  A    between atoms: C_13  and  C_14 
REMARK   10  A    between atoms: C_14  and  C_15 
REMARK   11  A    between atoms: C_16  and  C_17 
REMARK   12  A    between atoms: C_17  and  C_18 
REMARK   13  A    between atoms: C_18  and  C_19 
REMARK   14  A    between atoms: C_19  and  C_20 
REMARK       I    between atoms: C_20  and  N_22 
REMARK   15  A    between atoms: N_22  and  C_23 
REMARK   16  A    between atoms: C_23  and  C_24 
REMARK   17  A    between atoms: C_24  and  O_25 
ROOT
HETATM    1  C   UNL     1     -19.619  -4.757  -7.673  1.00  0.00     0.053 C 
ENDROOT
BRANCH   1   2
HETATM    2  C   UNL     1     -20.390  -5.002  -6.415  1.00  0.00    -0.027 C 
HETATM    3  C   UNL     1     -21.189  -6.066  -6.238  1.00  0.00    -0.027 C 
BRANCH   3   4
HETATM    4  C   UNL     1     -21.973  -6.299  -4.988  1.00  0.00     0.053 C 
BRANCH   4   5
HETATM    5  C   UNL     1     -21.155  -6.997  -3.946  1.00  0.00    -0.027 C 
HETATM    6  C   UNL     1     -20.992  -8.327  -3.906  1.00  0.00    -0.027 C 
BRANCH   6   7
HETATM    7  C   UNL     1     -20.175  -9.025  -2.862  1.00  0.00     0.053 C 
BRANCH   7   8
HETATM    8  C   UNL     1     -20.911 -10.194  -2.289  1.00  0.00    -0.027 C 
HETATM    9  C   UNL     1     -22.138 -10.563  -2.684  1.00  0.00    -0.030 C 
BRANCH   9  10
HETATM   10  C   UNL     1     -22.858 -11.749  -2.122  1.00  0.00     0.027 C 
BRANCH  10  11
HETATM   11  C   UNL     1     -23.925 -11.319  -1.116  1.00  0.00     0.004 C 
BRANCH  11  12
HETATM   12  C   UNL     1     -23.283 -10.670   0.110  1.00  0.00    -0.000 C 
BRANCH  12  13
HETATM   13  C   UNL     1     -23.686  -9.204   0.233  1.00  0.00    -0.005 C 
HETATM   14  C   UNL     1     -22.489  -8.335   0.579  1.00  0.00     0.005 C 
ENDBRANCH  12  13
ENDBRANCH  11  12
ENDBRANCH  10  11
ENDBRANCH   9  10
ENDBRANCH   7   8
ENDBRANCH   6   7
ENDBRANCH   4   5
ENDBRANCH   3   4
ENDBRANCH   1   2
BRANCH   1  15
HETATM   15  C   UNL     1     -20.533  -4.394  -8.801  1.00  0.00    -0.027 C 
HETATM   16  C   UNL     1     -20.093  -4.085 -10.029  1.00  0.00    -0.030 C 
BRANCH  16  17
HETATM   17  C   UNL     1     -21.005  -3.760 -11.172  1.00  0.00     0.027 C 
BRANCH  17  18
HETATM   18  C   UNL     1     -22.418  -4.285 -10.939  1.00  0.00     0.013 C 
BRANCH  18  19
HETATM   19  C   UNL     1     -23.479  -3.178 -10.926  1.00  0.00     0.103 C 
BRANCH  19  20
HETATM   20  C   UNL     1     -24.013  -2.940 -12.328  1.00  0.00     0.217 C 
HETATM   21  O   UNL     1     -25.205  -2.964 -12.602  1.00  0.00    -0.274 OA
HETATM   22  N   UNL     1     -23.041  -2.688 -13.264  1.00  0.00    -0.359 N 
HETATM   23  H   UNL     1     -22.069  -2.628 -12.988  1.00  0.00     0.162 HD
BRANCH  22  24
HETATM   24  C   UNL     1     -23.404  -2.485 -14.660  1.00  0.00     0.148 C 
BRANCH  24  25
HETATM   25  C   UNL     1     -23.619  -1.011 -14.995  1.00  0.00     0.183 C 
BRANCH  25  26
HETATM   26  O   UNL     1     -24.946  -0.614 -14.649  1.00  0.00    -0.399 OA
HETATM   27  H   UNL     1     -24.975   0.353 -14.753  1.00  0.00     0.209 HD
ENDBRANCH  25  26
ENDBRANCH  24  25
ENDBRANCH  22  24
ENDBRANCH  19  20
ENDBRANCH  18  19
ENDBRANCH  17  18
ENDBRANCH  16  17
ENDBRANCH   1  15
TORSDOF 17
ENDMDL
MODEL 5
REMARK VINA RESULT:      -7.4      2.315      5.418
REMARK  17 active torsions:
REMARK  status: ('A' for Active; 'I' for Inactive)
REMARK    1  A    between atoms: C_2  and  C_3 
REMARK    2  A    between atoms: C_3  and  C_4 
REMARK    3  A    between atoms: C_4  and  C_5 
REMARK    4  A    between atoms: C_5  and  C_6 
REMARK    5  A    between atoms: C_7  and  C_8 
REMARK    6  A    between atoms: C_8  and  C_9 
REMARK    7  A    between atoms: C_10  and  C_11 
REMARK    8  A    between atoms: C_11  and  C_12 
REMARK    9  A    between atoms: C_13  and  C_14 
REMARK   10  A    between atoms: C_14  and  C_15 
REMARK   11  A    between atoms: C_16  and  C_17 
REMARK   12  A    between atoms: C_17  and  C_18 
REMARK   13  A    between atoms: C_18  and  C_19 
REMARK   14  A    between atoms: C_19  and  C_20 
REMARK       I    between atoms: C_20  and  N_22 
REMARK   15  A    between atoms: N_22  and  C_23 
REMARK   16  A    between atoms: C_23  and  C_24 
REMARK   17  A    between atoms: C_24  and  O_25 
ROOT
HETATM    1  C   UNL     1     -21.631  -6.111  -2.545  1.00  0.00     0.053 C 
ENDROOT
BRANCH   1   2
HETATM    2  C   UNL     1     -22.301  -7.124  -1.672  1.00  0.00    -0.027 C 
HETATM    3  C   UNL     1     -22.299  -7.056  -0.332  1.00  0.00    -0.027 C 
BRANCH   3   4
HETATM    4  C   UNL     1     -22.952  -8.080   0.539  1.00  0.00     0.053 C 
BRANCH   4   5
HETATM    5  C   UNL     1     -22.933  -9.435  -0.097  1.00  0.00    -0.027 C 
HETATM    6  C   UNL     1     -23.953 -10.302  -0.018  1.00  0.00    -0.027 C 
BRANCH   6   7
HETATM    7  C   UNL     1     -23.931 -11.659  -0.652  1.00  0.00     0.053 C 
BRANCH   7   8
HETATM    8  C   UNL     1     -22.880 -11.746  -1.712  1.00  0.00    -0.027 C 
HETATM    9  C   UNL     1     -23.017 -11.218  -2.937  1.00  0.00    -0.030 C 
BRANCH   9  10
HETATM   10  C   UNL     1     -21.951 -11.290  -3.984  1.00  0.00     0.027 C 
BRANCH  10  11
HETATM   11  C   UNL     1     -21.198  -9.964  -4.094  1.00  0.00     0.004 C 
BRANCH  11  12
HETATM   12  C   UNL     1     -20.158  -9.839  -2.982  1.00  0.00    -0.000 C 
BRANCH  12  13
HETATM   13  C   UNL     1     -18.834  -9.307  -3.521  1.00  0.00    -0.005 C 
HETATM   14  C   UNL     1     -18.900  -9.098  -5.025  1.00  0.00     0.005 C 
ENDBRANCH  12  13
ENDBRANCH  11  12
ENDBRANCH  10  11
ENDBRANCH   9  10
ENDBRANCH   7   8
ENDBRANCH   6   7
ENDBRANCH   4   5
ENDBRANCH   3   4
ENDBRANCH   1   2
BRANCH   1  15
HETATM   15  C   UNL     1     -21.462  -6.630  -3.939  1.00  0.00    -0.027 C 
HETATM   16  C   UNL     1     -21.194  -5.839  -4.987  1.00  0.00    -0.030 C 
BRANCH  16  17
HETATM   17  C   UNL     1     -20.985  -6.358  -6.377  1.00  0.00     0.027 C 
BRANCH  17  18
HETATM   18  C   UNL     1     -20.584  -5.249  -7.344  1.00  0.00     0.013 C 
BRANCH  18  19
HETATM   19  C   UNL     1     -21.526  -4.040  -7.301  1.00  0.00     0.103 C 
BRANCH  19  20
HETATM   20  C   UNL     1     -22.459  -4.055  -8.499  1.00  0.00     0.217 C 
HETATM   21  O   UNL     1     -23.678  -4.018  -8.398  1.00  0.00    -0.274 OA
HETATM   22  N   UNL     1     -21.817  -4.105  -9.711  1.00  0.00    -0.359 N 
HETATM   23  H   UNL     1     -20.806  -4.085  -9.755  1.00  0.00     0.162 HD
BRANCH  22  24
HETATM   24  C   UNL     1     -22.586  -4.170 -10.946  1.00  0.00     0.148 C 
BRANCH  24  25
HETATM   25  C   UNL     1     -22.352  -2.953 -11.839  1.00  0.00     0.183 C 
BRANCH  25  26
HETATM   26  O   UNL     1     -21.952  -3.368 -13.146  1.00  0.00    -0.399 OA
HETATM   27  H   UNL     1     -20.979  -3.373 -13.141  1.00  0.00     0.209 HD
ENDBRANCH  25  26
ENDBRANCH  24  25
ENDBRANCH  22  24
ENDBRANCH  19  20
ENDBRANCH  18  19
ENDBRANCH  17  18
ENDBRANCH  16  17
ENDBRANCH   1  15
TORSDOF 17
ENDMDL
MODEL 6
REMARK VINA RESULT:      -7.3      1.768      3.355
REMARK  17 active torsions:
REMARK  status: ('A' for Active; 'I' for Inactive)
REMARK    1  A    between atoms: C_2  and  C_3 
REMARK    2  A    between atoms: C_3  and  C_4 
REMARK    3  A    between atoms: C_4  and  C_5 
REMARK    4  A    between atoms: C_5  and  C_6 
REMARK    5  A    between atoms: C_7  and  C_8 
REMARK    6  A    between atoms: C_8  and  C_9 
REMARK    7  A    between atoms: C_10  and  C_11 
REMARK    8  A    between atoms: C_11  and  C_12 
REMARK    9  A    between atoms: C_13  and  C_14 
REMARK   10  A    between atoms: C_14  and  C_15 
REMARK   11  A    between atoms: C_16  and  C_17 
REMARK   12  A    between atoms: C_17  and  C_18 
REMARK   13  A    between atoms: C_18  and  C_19 
REMARK   14  A    between atoms: C_19  and  C_20 
REMARK       I    between atoms: C_20  and  N_22 
REMARK   15  A    between atoms: N_22  and  C_23 
REMARK   16  A    between atoms: C_23  and  C_24 
REMARK   17  A    between atoms: C_24  and  O_25 
ROOT
HETATM    1  C   UNL     1     -20.943  -6.610  -5.745  1.00  0.00     0.053 C 
ENDROOT
BRANCH   1   2
HETATM    2  C   UNL     1     -21.059  -6.238  -4.301  1.00  0.00    -0.027 C 
HETATM    3  C   UNL     1     -22.061  -6.655  -3.512  1.00  0.00    -0.027 C 
BRANCH   3   4
HETATM    4  C   UNL     1     -22.186  -6.265  -2.075  1.00  0.00     0.053 C 
BRANCH   4   5
HETATM    5  C   UNL     1     -21.785  -7.384  -1.164  1.00  0.00    -0.027 C 
HETATM    6  C   UNL     1     -22.128  -7.439   0.131  1.00  0.00    -0.027 C 
BRANCH   6   7
HETATM    7  C   UNL     1     -21.724  -8.557   1.042  1.00  0.00     0.053 C 
BRANCH   7   8
HETATM    8  C   UNL     1     -21.786  -9.877   0.342  1.00  0.00    -0.027 C 
HETATM    9  C   UNL     1     -20.986 -10.911   0.639  1.00  0.00    -0.030 C 
BRANCH   9  10
HETATM   10  C   UNL     1     -21.070 -12.236  -0.051  1.00  0.00     0.027 C 
BRANCH  10  11
HETATM   11  C   UNL     1     -21.193 -13.377   0.960  1.00  0.00     0.004 C 
BRANCH  11  12
HETATM   12  C   UNL     1     -22.631 -13.502   1.461  1.00  0.00    -0.000 C 
BRANCH  12  13
HETATM   13  C   UNL     1     -22.741 -14.546   2.568  1.00  0.00    -0.005 C 
HETATM   14  C   UNL     1     -24.140 -14.572   3.158  1.00  0.00     0.005 C 
ENDBRANCH  12  13
ENDBRANCH  11  12
ENDBRANCH  10  11
ENDBRANCH   9  10
ENDBRANCH   7   8
ENDBRANCH   6   7
ENDBRANCH   4   5
ENDBRANCH   3   4
ENDBRANCH   1   2
BRANCH   1  15
HETATM   15  C   UNL     1     -20.612  -5.416  -6.583  1.00  0.00    -0.027 C 
HETATM   16  C   UNL     1     -20.929  -5.323  -7.882  1.00  0.00    -0.030 C 
BRANCH  16  17
HETATM   17  C   UNL     1     -20.635  -4.113  -8.716  1.00  0.00     0.027 C 
BRANCH  17  18
HETATM   18  C   UNL     1     -21.662  -3.927  -9.829  1.00  0.00     0.013 C 
BRANCH  18  19
HETATM   19  C   UNL     1     -23.109  -3.923  -9.321  1.00  0.00     0.103 C 
BRANCH  19  20
HETATM   20  C   UNL     1     -24.046  -3.413 -10.402  1.00  0.00     0.217 C 
HETATM   21  O   UNL     1     -25.226  -3.159 -10.198  1.00  0.00    -0.274 OA
HETATM   22  N   UNL     1     -23.456  -3.256 -11.631  1.00  0.00    -0.359 N 
HETATM   23  H   UNL     1     -22.466  -3.432 -11.748  1.00  0.00     0.162 HD
BRANCH  22  24
HETATM   24  C   UNL     1     -24.246  -2.818 -12.773  1.00  0.00     0.148 C 
BRANCH  24  25
HETATM   25  C   UNL     1     -23.451  -2.855 -14.076  1.00  0.00     0.183 C 
BRANCH  25  26
HETATM   26  O   UNL     1     -22.108  -3.270 -13.826  1.00  0.00    -0.399 OA
HETATM   27  H   UNL     1     -22.067  -4.211 -14.069  1.00  0.00     0.209 HD
ENDBRANCH  25  26
ENDBRANCH  24  25
ENDBRANCH  22  24
ENDBRANCH  19  20
ENDBRANCH  18  19
ENDBRANCH  17  18
ENDBRANCH  16  17
ENDBRANCH   1  15
TORSDOF 17
ENDMDL
MODEL 7
REMARK VINA RESULT:      -7.0      1.375      2.244
REMARK  17 active torsions:
REMARK  status: ('A' for Active; 'I' for Inactive)
REMARK    1  A    between atoms: C_2  and  C_3 
REMARK    2  A    between atoms: C_3  and  C_4 
REMARK    3  A    between atoms: C_4  and  C_5 
REMARK    4  A    between atoms: C_5  and  C_6 
REMARK    5  A    between atoms: C_7  and  C_8 
REMARK    6  A    between atoms: C_8  and  C_9 
REMARK    7  A    between atoms: C_10  and  C_11 
REMARK    8  A    between atoms: C_11  and  C_12 
REMARK    9  A    between atoms: C_13  and  C_14 
REMARK   10  A    between atoms: C_14  and  C_15 
REMARK   11  A    between atoms: C_16  and  C_17 
REMARK   12  A    between atoms: C_17  and  C_18 
REMARK   13  A    between atoms: C_18  and  C_19 
REMARK   14  A    between atoms: C_19  and  C_20 
REMARK       I    between atoms: C_20  and  N_22 
REMARK   15  A    between atoms: N_22  and  C_23 
REMARK   16  A    between atoms: C_23  and  C_24 
REMARK   17  A    between atoms: C_24  and  O_25 
ROOT
HETATM    1  C   UNL     1     -20.872  -6.098  -7.194  1.00  0.00     0.053 C 
ENDROOT
BRANCH   1   2
HETATM    2  C   UNL     1     -21.551  -5.997  -5.866  1.00  0.00    -0.027 C 
HETATM    3  C   UNL     1     -20.906  -6.142  -4.697  1.00  0.00    -0.027 C 
BRANCH   3   4
HETATM    4  C   UNL     1     -21.591  -6.061  -3.371  1.00  0.00     0.053 C 
BRANCH   4   5
HETATM    5  C   UNL     1     -21.588  -7.383  -2.669  1.00  0.00    -0.027 C 
HETATM    6  C   UNL     1     -20.527  -7.862  -2.004  1.00  0.00    -0.027 C 
BRANCH   6   7
HETATM    7  C   UNL     1     -20.523  -9.186  -1.304  1.00  0.00     0.053 C 
BRANCH   7   8
HETATM    8  C   UNL     1     -21.841  -9.879  -1.447  1.00  0.00    -0.027 C 
HETATM    9  C   UNL     1     -22.628 -10.195  -0.408  1.00  0.00    -0.030 C 
BRANCH   9  10
HETATM   10  C   UNL     1     -23.956 -10.867  -0.561  1.00  0.00     0.027 C 
BRANCH  10  11
HETATM   11  C   UNL     1     -23.841 -12.374  -0.327  1.00  0.00     0.004 C 
BRANCH  11  12
HETATM   12  C   UNL     1     -23.172 -12.662   1.016  1.00  0.00    -0.000 C 
BRANCH  12  13
HETATM   13  C   UNL     1     -23.041 -14.163   1.256  1.00  0.00    -0.005 C 
HETATM   14  C   UNL     1     -23.545 -14.542   2.638  1.00  0.00     0.005 C 
ENDBRANCH  12  13
ENDBRANCH  11  12
ENDBRANCH  10  11
ENDBRANCH   9  10
ENDBRANCH   7   8
ENDBRANCH   6   7
ENDBRANCH   4   5
ENDBRANCH   3   4
ENDBRANCH   1   2
BRANCH   1  15
HETATM   15  C   UNL     1     -21.246  -4.949  -8.077  1.00  0.00    -0.027 C 
HETATM   16  C   UNL     1     -20.643  -4.699  -9.248  1.00  0.00    -0.030 C 
BRANCH  16  17
HETATM   17  C   UNL     1     -21.040  -3.573 -10.154  1.00  0.00     0.027 C 
BRANCH  17  18
HETATM   18  C   UNL     1     -21.589  -4.079 -11.484  1.00  0.00     0.013 C 
BRANCH  18  19
HETATM   19  C   UNL     1     -23.121  -4.088 -11.540  1.00  0.00     0.103 C 
BRANCH  19  20
HETATM   20  C   UNL     1     -23.604  -3.514 -12.861  1.00  0.00     0.217 C 
HETATM   21  O   UNL     1     -24.788  -3.397 -13.145  1.00  0.00    -0.274 OA
HETATM   22  N   UNL     1     -22.596  -3.130 -13.709  1.00  0.00    -0.359 N 
HETATM   23  H   UNL     1     -21.629  -3.198 -13.418  1.00  0.00     0.162 HD
BRANCH  22  24
HETATM   24  C   UNL     1     -22.911  -2.603 -15.030  1.00  0.00     0.148 C 
BRANCH  24  25
HETATM   25  C   UNL     1     -23.321  -1.133 -14.986  1.00  0.00     0.183 C 
BRANCH  25  26
HETATM   26  O   UNL     1     -22.957  -0.480 -16.203  1.00  0.00    -0.399 OA
HETATM   27  H   UNL     1     -23.394  -0.976 -16.917  1.00  0.00     0.209 HD
ENDBRANCH  25  26
ENDBRANCH  24  25
ENDBRANCH  22  24
ENDBRANCH  19  20
ENDBRANCH  18  19
ENDBRANCH  17  18
ENDBRANCH  16  17
ENDBRANCH   1  15
TORSDOF 17
ENDMDL
MODEL 8
REMARK VINA RESULT:      -7.0      1.673      2.048
REMARK  17 active torsions:
REMARK  status: ('A' for Active; 'I' for Inactive)
REMARK    1  A    between atoms: C_2  and  C_3 
REMARK    2  A    between atoms: C_3  and  C_4 
REMARK    3  A    between atoms: C_4  and  C_5 
REMARK    4  A    between atoms: C_5  and  C_6 
REMARK    5  A    between atoms: C_7  and  C_8 
REMARK    6  A    between atoms: C_8  and  C_9 
REMARK    7  A    between atoms: C_10  and  C_11 
REMARK    8  A    between atoms: C_11  and  C_12 
REMARK    9  A    between atoms: C_13  and  C_14 
REMARK   10  A    between atoms: C_14  and  C_15 
REMARK   11  A    between atoms: C_16  and  C_17 
REMARK   12  A    between atoms: C_17  and  C_18 
REMARK   13  A    between atoms: C_18  and  C_19 
REMARK   14  A    between atoms: C_19  and  C_20 
REMARK       I    between atoms: C_20  and  N_22 
REMARK   15  A    between atoms: N_22  and  C_23 
REMARK   16  A    between atoms: C_23  and  C_24 
REMARK   17  A    between atoms: C_24  and  O_25 
ROOT
HETATM    1  C   UNL     1     -20.172  -4.557  -6.334  1.00  0.00     0.053 C 
ENDROOT
BRANCH   1   2
HETATM    2  C   UNL     1     -20.293  -6.047  -6.370  1.00  0.00    -0.027 C 
HETATM    3  C   UNL     1     -21.202  -6.729  -5.656  1.00  0.00    -0.027 C 
BRANCH   3   4
HETATM    4  C   UNL     1     -21.307  -8.220  -5.679  1.00  0.00     0.053 C 
BRANCH   4   5
HETATM    5  C   UNL     1     -20.885  -8.822  -4.375  1.00  0.00    -0.027 C 
HETATM    6  C   UNL     1     -19.761  -8.473  -3.731  1.00  0.00    -0.027 C 
BRANCH   6   7
HETATM    7  C   UNL     1     -19.338  -9.077  -2.428  1.00  0.00     0.053 C 
BRANCH   7   8
HETATM    8  C   UNL     1     -20.470  -9.109  -1.452  1.00  0.00    -0.027 C 
HETATM    9  C   UNL     1     -21.062  -8.008  -0.968  1.00  0.00    -0.030 C 
BRANCH   9  10
HETATM   10  C   UNL     1     -22.210  -8.050  -0.009  1.00  0.00     0.027 C 
BRANCH  10  11
HETATM   11  C   UNL     1     -22.416  -9.461   0.543  1.00  0.00     0.004 C 
BRANCH  11  12
HETATM   12  C   UNL     1     -23.746 -10.040   0.065  1.00  0.00    -0.000 C 
BRANCH  12  13
HETATM   13  C   UNL     1     -23.548 -11.389  -0.619  1.00  0.00    -0.005 C 
HETATM   14  C   UNL     1     -23.278 -11.215  -2.104  1.00  0.00     0.005 C 
ENDBRANCH  12  13
ENDBRANCH  11  12
ENDBRANCH  10  11
ENDBRANCH   9  10
ENDBRANCH   7   8
ENDBRANCH   6   7
ENDBRANCH   4   5
ENDBRANCH   3   4
ENDBRANCH   1   2
BRANCH   1  15
HETATM   15  C   UNL     1     -20.934  -3.928  -7.458  1.00  0.00    -0.027 C 
HETATM   16  C   UNL     1     -22.191  -4.271  -7.772  1.00  0.00    -0.030 C 
BRANCH  16  17
HETATM   17  C   UNL     1     -22.971  -3.617  -8.872  1.00  0.00     0.027 C 
BRANCH  17  18
HETATM   18  C   UNL     1     -23.167  -4.551 -10.062  1.00  0.00     0.013 C 
BRANCH  18  19
HETATM   19  C   UNL     1     -21.968  -4.569 -11.018  1.00  0.00     0.103 C 
BRANCH  19  20
HETATM   20  C   UNL     1     -22.062  -3.419 -12.006  1.00  0.00     0.217 C 
HETATM   21  O   UNL     1     -21.565  -2.320 -11.802  1.00  0.00    -0.274 OA
HETATM   22  N   UNL     1     -22.750  -3.720 -13.155  1.00  0.00    -0.359 N 
HETATM   23  H   UNL     1     -23.105  -4.656 -13.308  1.00  0.00     0.162 HD
BRANCH  22  24
HETATM   24  C   UNL     1     -22.959  -2.700 -14.173  1.00  0.00     0.148 C 
BRANCH  24  25
HETATM   25  C   UNL     1     -24.230  -1.890 -13.930  1.00  0.00     0.183 C 
BRANCH  25  26
HETATM   26  O   UNL     1     -24.440  -0.965 -14.997  1.00  0.00    -0.399 OA
HETATM   27  H   UNL     1     -23.737  -1.139 -15.647  1.00  0.00     0.209 HD
ENDBRANCH  25  26
ENDBRANCH  24  25
ENDBRANCH  22  24
ENDBRANCH  19  20
ENDBRANCH  18  19
ENDBRANCH  17  18
ENDBRANCH  16  17
ENDBRANCH   1  15
TORSDOF 17
ENDMDL
MODEL 9
REMARK VINA RESULT:      -7.0      3.777      7.578
REMARK  17 active torsions:
REMARK  status: ('A' for Active; 'I' for Inactive)
REMARK    1  A    between atoms: C_2  and  C_3 
REMARK    2  A    between atoms: C_3  and  C_4 
REMARK    3  A    between atoms: C_4  and  C_5 
REMARK    4  A    between atoms: C_5  and  C_6 
REMARK    5  A    between atoms: C_7  and  C_8 
REMARK    6  A    between atoms: C_8  and  C_9 
REMARK    7  A    between atoms: C_10  and  C_11 
REMARK    8  A    between atoms: C_11  and  C_12 
REMARK    9  A    between atoms: C_13  and  C_14 
REMARK   10  A    between atoms: C_14  and  C_15 
REMARK   11  A    between atoms: C_16  and  C_17 
REMARK   12  A    between atoms: C_17  and  C_18 
REMARK   13  A    between atoms: C_18  and  C_19 
REMARK   14  A    between atoms: C_19  and  C_20 
REMARK       I    between atoms: C_20  and  N_22 
REMARK   15  A    between atoms: N_22  and  C_23 
REMARK   16  A    between atoms: C_23  and  C_24 
REMARK   17  A    between atoms: C_24  and  O_25 
ROOT
HETATM    1  C   UNL     1     -23.152  -8.055   0.352  1.00  0.00     0.053 C 
ENDROOT
BRANCH   1   2
HETATM    2  C   UNL     1     -22.911  -9.489   0.005  1.00  0.00    -0.027 C 
HETATM    3  C   UNL     1     -23.900 -10.362  -0.243  1.00  0.00    -0.027 C 
BRANCH   3   4
HETATM    4  C   UNL     1     -23.656 -11.800  -0.570  1.00  0.00     0.053 C 
BRANCH   4   5
HETATM    5  C   UNL     1     -22.787 -11.950  -1.780  1.00  0.00    -0.027 C 
HETATM    6  C   UNL     1     -22.874 -11.152  -2.854  1.00  0.00    -0.027 C 
BRANCH   6   7
HETATM    7  C   UNL     1     -22.006 -11.304  -4.065  1.00  0.00     0.053 C 
BRANCH   7   8
HETATM    8  C   UNL     1     -20.601 -10.875  -3.783  1.00  0.00    -0.027 C 
HETATM    9  C   UNL     1     -20.284  -9.704  -3.212  1.00  0.00    -0.030 C 
BRANCH   9  10
HETATM   10  C   UNL     1     -18.877  -9.293  -2.912  1.00  0.00     0.027 C 
BRANCH  10  11
HETATM   11  C   UNL     1     -17.954  -9.588  -4.094  1.00  0.00     0.004 C 
BRANCH  11  12
HETATM   12  C   UNL     1     -16.513  -9.776  -3.621  1.00  0.00    -0.000 C 
BRANCH  12  13
HETATM   13  C   UNL     1     -15.540  -9.761  -4.795  1.00  0.00    -0.005 C 
HETATM   14  C   UNL     1     -16.038 -10.640  -5.930  1.00  0.00     0.005 C 
ENDBRANCH  12  13
ENDBRANCH  11  12
ENDBRANCH  10  11
ENDBRANCH   9  10
ENDBRANCH   7   8
ENDBRANCH   6   7
ENDBRANCH   4   5
ENDBRANCH   3   4
ENDBRANCH   1   2
BRANCH   1  15
HETATM   15  C   UNL     1     -22.269  -7.152  -0.450  1.00  0.00    -0.027 C 
HETATM   16  C   UNL     1     -22.306  -7.092  -1.789  1.00  0.00    -0.030 C 
BRANCH  16  17
HETATM   17  C   UNL     1     -21.452  -6.162  -2.595  1.00  0.00     0.027 C 
BRANCH  17  18
HETATM   18  C   UNL     1     -21.599  -6.409  -4.093  1.00  0.00     0.013 C 
BRANCH  18  19
HETATM   19  C   UNL     1     -20.803  -5.417  -4.949  1.00  0.00     0.103 C 
BRANCH  19  20
HETATM   20  C   UNL     1     -21.076  -5.654  -6.425  1.00  0.00     0.217 C 
HETATM   21  O   UNL     1     -20.951  -6.748  -6.960  1.00  0.00    -0.274 OA
HETATM   22  N   UNL     1     -21.483  -4.536  -7.108  1.00  0.00    -0.359 N 
HETATM   23  H   UNL     1     -21.622  -3.661  -6.619  1.00  0.00     0.162 HD
BRANCH  22  24
HETATM   24  C   UNL     1     -21.738  -4.605  -8.541  1.00  0.00     0.148 C 
BRANCH  24  25
HETATM   25  C   UNL     1     -23.160  -4.180  -8.898  1.00  0.00     0.183 C 
BRANCH  25  26
HETATM   26  O   UNL     1     -23.967  -4.114  -7.722  1.00  0.00    -0.399 OA
HETATM   27  H   UNL     1     -23.592  -4.761  -7.100  1.00  0.00     0.209 HD
ENDBRANCH  25  26
ENDBRANCH  24  25
ENDBRANCH  22  24
ENDBRANCH  19  20
ENDBRANCH  18  19
ENDBRANCH  17  18
ENDBRANCH  16  17
ENDBRANCH   1  15
TORSDOF 17
ENDMDL
