REMARK  0 active torsions:
REMARK  status: ('A' for Active; 'I' for Inactive)
ROOT
HETATM    1  C   UNL     1       1.050  -0.030  -0.012  1.00  0.00     0.024 C 
HETATM    2  C   UNL     1       2.559   0.005   0.046  1.00  0.00     0.024 C 
HETATM    3  C   UNL     1       3.217   1.206  -0.673  1.00  0.00     0.018 C 
HETATM    4  C   UNL     1       4.655   1.201  -0.107  1.00  0.00     0.007 C 
HETATM    5  C   UNL     1       4.658  -0.025   0.841  1.00  0.00     0.001 C 
HETATM    6  C   UNL     1       4.671  -1.291  -0.054  1.00  0.00     0.084 C 
HETATM    7  C   UNL     1       3.254  -1.207  -0.583  1.00  0.00     0.136 C 
HETATM    8  O   UNL     1       2.766  -1.971  -1.403  1.00  0.00    -0.297 OA
HETATM    9  C   UNL     1       3.227   0.002   1.448  1.00  0.00    -0.029 C 
HETATM   10  C   UNL     1       2.884  -1.220   2.324  1.00  0.00     0.016 C 
HETATM   11  C   UNL     1       2.929   1.249   2.303  1.00  0.00     0.016 C 
ENDROOT
TORSDOF 0
