MODEL 1
REMARK VINA RESULT:      -5.7      0.000      0.000
REMARK  0 active torsions:
REMARK  status: ('A' for Active; 'I' for Inactive)
ROOT
HETATM    1  C   UNL     1     -20.134  -8.184  -1.505  1.00  0.00     0.024 C 
HETATM    2  C   UNL     1     -21.421  -8.731  -0.936  1.00  0.00     0.024 C 
HETATM    3  C   UNL     1     -22.197  -9.691  -1.868  1.00  0.00     0.018 C 
HETATM    4  C   UNL     1     -23.188 -10.382  -0.905  1.00  0.00     0.007 C 
HETATM    5  C   UNL     1     -22.885  -9.708   0.458  1.00  0.00     0.001 C 
HETATM    6  C   UNL     1     -23.464  -8.271   0.393  1.00  0.00     0.084 C 
HETATM    7  C   UNL     1     -22.465  -7.670  -0.574  1.00  0.00     0.136 C 
HETATM    8  O   UNL     1     -22.513  -6.529  -1.011  1.00  0.00    -0.297 OA
HETATM    9  C   UNL     1     -21.344  -9.504   0.409  1.00  0.00    -0.029 C 
HETATM   10  C   UNL     1     -20.772  -8.692   1.588  1.00  0.00     0.016 C 
HETATM   11  C   UNL     1     -20.537 -10.815   0.349  1.00  0.00     0.016 C 
ENDROOT
TORSDOF 0
ENDMDL
MODEL 2
REMARK VINA RESULT:      -5.3      1.939      3.233
REMARK  0 active torsions:
REMARK  status: ('A' for Active; 'I' for Inactive)
ROOT
HETATM    1  C   UNL     1     -19.886 -11.100  -0.320  1.00  0.00     0.024 C 
HETATM    2  C   UNL     1     -21.050 -10.173  -0.058  1.00  0.00     0.024 C 
HETATM    3  C   UNL     1     -20.899  -9.263   1.183  1.00  0.00     0.018 C 
HETATM    4  C   UNL     1     -21.987  -8.189   0.957  1.00  0.00     0.007 C 
HETATM    5  C   UNL     1     -22.654  -8.635  -0.369  1.00  0.00     0.001 C 
HETATM    6  C   UNL     1     -23.513  -9.885  -0.047  1.00  0.00     0.084 C 
HETATM    7  C   UNL     1     -22.390 -10.876   0.180  1.00  0.00     0.136 C 
HETATM    8  O   UNL     1     -22.541 -12.038   0.528  1.00  0.00    -0.297 OA
HETATM    9  C   UNL     1     -21.457  -9.191  -1.190  1.00  0.00    -0.029 C 
HETATM   10  C   UNL     1     -21.855  -9.866  -2.519  1.00  0.00     0.016 C 
HETATM   11  C   UNL     1     -20.389  -8.137  -1.540  1.00  0.00     0.016 C 
ENDROOT
TORSDOF 0
ENDMDL
MODEL 3
REMARK VINA RESULT:      -5.2      1.583      2.776
REMARK  0 active torsions:
REMARK  status: ('A' for Active; 'I' for Inactive)
ROOT
HETATM    1  C   UNL     1     -20.139 -10.978  -0.191  1.00  0.00     0.024 C 
HETATM    2  C   UNL     1     -20.929  -9.700  -0.348  1.00  0.00     0.024 C 
HETATM    3  C   UNL     1     -20.262  -8.619  -1.230  1.00  0.00     0.018 C 
HETATM    4  C   UNL     1     -21.431  -7.655  -1.536  1.00  0.00     0.007 C 
HETATM    5  C   UNL     1     -22.618  -8.281  -0.762  1.00  0.00     0.001 C 
HETATM    6  C   UNL     1     -22.374  -8.006   0.744  1.00  0.00     0.084 C 
HETATM    7  C   UNL     1     -21.216  -8.959   0.962  1.00  0.00     0.136 C 
HETATM    8  O   UNL     1     -20.600  -9.084   2.010  1.00  0.00    -0.297 OA
HETATM    9  C   UNL     1     -22.369  -9.808  -0.919  1.00  0.00    -0.029 C 
HETATM   10  C   UNL     1     -23.325 -10.697  -0.097  1.00  0.00     0.016 C 
HETATM   11  C   UNL     1     -22.446 -10.312  -2.373  1.00  0.00     0.016 C 
ENDROOT
TORSDOF 0
ENDMDL
MODEL 4
REMARK VINA RESULT:      -5.2      1.466      2.703
REMARK  0 active torsions:
REMARK  status: ('A' for Active; 'I' for Inactive)
ROOT
HETATM    1  C   UNL     1     -22.223  -7.570  -0.748  1.00  0.00     0.024 C 
HETATM    2  C   UNL     1     -22.100  -9.032  -0.388  1.00  0.00     0.024 C 
HETATM    3  C   UNL     1     -23.433  -9.739  -0.047  1.00  0.00     0.018 C 
HETATM    4  C   UNL     1     -23.061 -11.236  -0.135  1.00  0.00     0.007 C 
HETATM    5  C   UNL     1     -21.550 -11.206  -0.479  1.00  0.00     0.001 C 
HETATM    6  C   UNL     1     -20.800 -10.773   0.807  1.00  0.00     0.084 C 
HETATM    7  C   UNL     1     -21.225  -9.320   0.837  1.00  0.00     0.136 C 
HETATM    8  O   UNL     1     -20.936  -8.523   1.718  1.00  0.00    -0.297 OA
HETATM    9  C   UNL     1     -21.434  -9.977  -1.424  1.00  0.00    -0.029 C 
HETATM   10  C   UNL     1     -19.987  -9.601  -1.805  1.00  0.00     0.016 C 
HETATM   11  C   UNL     1     -22.209 -10.125  -2.748  1.00  0.00     0.016 C 
ENDROOT
TORSDOF 0
ENDMDL
MODEL 5
REMARK VINA RESULT:      -5.0     18.670     19.862
REMARK  0 active torsions:
REMARK  status: ('A' for Active; 'I' for Inactive)
ROOT
HETATM    1  C   UNL     1     -15.914  10.945   3.943  1.00  0.00     0.024 C 
HETATM    2  C   UNL     1     -15.268  10.006   2.952  1.00  0.00     0.024 C 
HETATM    3  C   UNL     1     -14.350  10.682   1.907  1.00  0.00     0.018 C 
HETATM    4  C   UNL     1     -13.542   9.493   1.338  1.00  0.00     0.007 C 
HETATM    5  C   UNL     1     -14.121   8.274   2.100  1.00  0.00     0.001 C 
HETATM    6  C   UNL     1     -15.531   8.002   1.516  1.00  0.00     0.084 C 
HETATM    7  C   UNL     1     -16.250   9.204   2.093  1.00  0.00     0.136 C 
HETATM    8  O   UNL     1     -17.418   9.493   1.875  1.00  0.00    -0.297 OA
HETATM    9  C   UNL     1     -14.397   8.850   3.517  1.00  0.00    -0.029 C 
HETATM   10  C   UNL     1     -15.141   7.885   4.463  1.00  0.00     0.016 C 
HETATM   11  C   UNL     1     -13.132   9.308   4.268  1.00  0.00     0.016 C 
ENDROOT
TORSDOF 0
ENDMDL
MODEL 6
REMARK VINA RESULT:      -5.0     18.956     20.176
REMARK  0 active torsions:
REMARK  status: ('A' for Active; 'I' for Inactive)
ROOT
HETATM    1  C   UNL     1     -14.923   8.058   4.431  1.00  0.00     0.024 C 
HETATM    2  C   UNL     1     -14.791   9.140   3.385  1.00  0.00     0.024 C 
HETATM    3  C   UNL     1     -13.344   9.442   2.930  1.00  0.00     0.018 C 
HETATM    4  C   UNL     1     -13.552  10.240   1.623  1.00  0.00     0.007 C 
HETATM    5  C   UNL     1     -15.095  10.332   1.507  1.00  0.00     0.001 C 
HETATM    6  C   UNL     1     -15.571  11.350   2.575  1.00  0.00     0.084 C 
HETATM    7  C   UNL     1     -15.319  10.514   3.812  1.00  0.00     0.136 C 
HETATM    8  O   UNL     1     -15.486  10.895   4.961  1.00  0.00    -0.297 OA
HETATM    9  C   UNL     1     -15.567   8.954   2.053  1.00  0.00    -0.029 C 
HETATM   10  C   UNL     1     -17.095   8.821   2.209  1.00  0.00     0.016 C 
HETATM   11  C   UNL     1     -15.108   7.751   1.206  1.00  0.00     0.016 C 
ENDROOT
TORSDOF 0
ENDMDL
MODEL 7
REMARK VINA RESULT:      -5.0     15.707     17.212
REMARK  0 active torsions:
REMARK  status: ('A' for Active; 'I' for Inactive)
ROOT
HETATM    1  C   UNL     1     -24.096   9.055  -4.102  1.00  0.00     0.024 C 
HETATM    2  C   UNL     1     -24.135   8.362  -2.760  1.00  0.00     0.024 C 
HETATM    3  C   UNL     1     -24.159   9.305  -1.534  1.00  0.00     0.018 C 
HETATM    4  C   UNL     1     -24.607   8.369  -0.388  1.00  0.00     0.007 C 
HETATM    5  C   UNL     1     -24.749   6.994  -1.090  1.00  0.00     0.001 C 
HETATM    6  C   UNL     1     -23.315   6.478  -1.372  1.00  0.00     0.084 C 
HETATM    7  C   UNL     1     -22.941   7.445  -2.476  1.00  0.00     0.136 C 
HETATM    8  O   UNL     1     -21.848   7.496  -3.022  1.00  0.00    -0.297 OA
HETATM    9  C   UNL     1     -25.303   7.375  -2.491  1.00  0.00    -0.029 C 
HETATM   10  C   UNL     1     -25.394   6.197  -3.482  1.00  0.00     0.016 C 
HETATM   11  C   UNL     1     -26.699   8.028  -2.461  1.00  0.00     0.016 C 
ENDROOT
TORSDOF 0
ENDMDL
MODEL 8
REMARK VINA RESULT:      -4.9      2.052      3.368
REMARK  0 active torsions:
REMARK  status: ('A' for Active; 'I' for Inactive)
ROOT
HETATM    1  C   UNL     1     -23.830 -10.253   0.031  1.00  0.00     0.024 C 
HETATM    2  C   UNL     1     -22.479 -10.135  -0.633  1.00  0.00     0.024 C 
HETATM    3  C   UNL     1     -22.495 -10.225  -2.177  1.00  0.00     0.018 C 
HETATM    4  C   UNL     1     -21.106  -9.673  -2.569  1.00  0.00     0.007 C 
HETATM    5  C   UNL     1     -20.447  -9.367  -1.200  1.00  0.00     0.001 C 
HETATM    6  C   UNL     1     -20.072 -10.730  -0.562  1.00  0.00     0.084 C 
HETATM    7  C   UNL     1     -21.468 -11.213  -0.227  1.00  0.00     0.136 C 
HETATM    8  O   UNL     1     -21.734 -12.303   0.259  1.00  0.00    -0.297 OA
HETATM    9  C   UNL     1     -21.642  -8.859  -0.345  1.00  0.00    -0.029 C 
HETATM   10  C   UNL     1     -21.308  -8.628   1.142  1.00  0.00     0.016 C 
HETATM   11  C   UNL     1     -22.272  -7.550  -0.859  1.00  0.00     0.016 C 
ENDROOT
TORSDOF 0
ENDMDL
MODEL 9
REMARK VINA RESULT:      -4.8     15.672     17.136
REMARK  0 active torsions:
REMARK  status: ('A' for Active; 'I' for Inactive)
ROOT
HETATM    1  C   UNL     1     -25.405   8.239  -4.138  1.00  0.00     0.024 C 
HETATM    2  C   UNL     1     -24.895   7.704  -2.821  1.00  0.00     0.024 C 
HETATM    3  C   UNL     1     -24.714   6.169  -2.760  1.00  0.00     0.018 C 
HETATM    4  C   UNL     1     -23.825   5.976  -1.511  1.00  0.00     0.007 C 
HETATM    5  C   UNL     1     -23.633   7.421  -0.986  1.00  0.00     0.001 C 
HETATM    6  C   UNL     1     -24.978   7.854  -0.347  1.00  0.00     0.084 C 
HETATM    7  C   UNL     1     -25.792   8.002  -1.616  1.00  0.00     0.136 C 
HETATM    8  O   UNL     1     -26.981   8.284  -1.656  1.00  0.00    -0.297 OA
HETATM    9  C   UNL     1     -23.542   8.257  -2.294  1.00  0.00    -0.029 C 
HETATM   10  C   UNL     1     -23.510   9.783  -2.074  1.00  0.00     0.016 C 
HETATM   11  C   UNL     1     -22.324   7.918  -3.175  1.00  0.00     0.016 C 
ENDROOT
TORSDOF 0
ENDMDL
