REMARK  17 active torsions:
REMARK  status: ('A' for Active; 'I' for Inactive)
REMARK    1  A    between atoms: C_2  and  C_3 
REMARK    2  A    between atoms: C_3  and  C_4 
REMARK    3  A    between atoms: C_4  and  C_5 
REMARK    4  A    between atoms: C_5  and  C_6 
REMARK    5  A    between atoms: C_7  and  C_8 
REMARK    6  A    between atoms: C_8  and  C_9 
REMARK    7  A    between atoms: C_10  and  C_11 
REMARK    8  A    between atoms: C_11  and  C_12 
REMARK    9  A    between atoms: C_13  and  C_14 
REMARK   10  A    between atoms: C_14  and  C_15 
REMARK   11  A    between atoms: C_16  and  C_17 
REMARK   12  A    between atoms: C_17  and  C_18 
REMARK   13  A    between atoms: C_18  and  C_19 
REMARK   14  A    between atoms: C_19  and  C_20 
REMARK       I    between atoms: C_20  and  N_22 
REMARK   15  A    between atoms: N_22  and  C_23 
REMARK   16  A    between atoms: C_23  and  C_24 
REMARK   17  A    between atoms: C_24  and  O_25 
ROOT
HETATM    1  C   UNL     1      14.897  -4.187   7.295  1.00  0.00     0.053 C 
ENDROOT
BRANCH   1   2
HETATM    2  C   UNL     1      13.401  -4.174   7.256  1.00  0.00    -0.027 C 
HETATM    3  C   UNL     1      12.687  -3.600   6.275  1.00  0.00    -0.027 C 
BRANCH   3   4
HETATM    4  C   UNL     1      11.191  -3.574   6.249  1.00  0.00     0.053 C 
BRANCH   4   5
HETATM    5  C   UNL     1      10.656  -4.247   5.022  1.00  0.00    -0.027 C 
HETATM    6  C   UNL     1       9.890  -3.631   4.109  1.00  0.00    -0.027 C 
BRANCH   6   7
HETATM    7  C   UNL     1       9.351  -4.304   2.886  1.00  0.00     0.053 C 
BRANCH   7   8
HETATM    8  C   UNL     1       7.855  -4.272   2.870  1.00  0.00    -0.027 C 
HETATM    9  C   UNL     1       7.133  -3.692   1.899  1.00  0.00    -0.030 C 
BRANCH   9  10
HETATM   10  C   UNL     1       5.635  -3.687   1.877  1.00  0.00     0.027 C 
BRANCH  10  11
HETATM   11  C   UNL     1       5.107  -4.391   0.628  1.00  0.00     0.004 C 
BRANCH  11  12
HETATM   12  C   UNL     1       3.580  -4.387   0.611  1.00  0.00    -0.000 C 
BRANCH  12  13
HETATM   13  C   UNL     1       3.037  -5.087  -0.632  1.00  0.00    -0.005 C 
HETATM   14  C   UNL     1       1.518  -5.078  -0.643  1.00  0.00     0.005 C 
ENDBRANCH  12  13
ENDBRANCH  11  12
ENDBRANCH  10  11
ENDBRANCH   9  10
ENDBRANCH   7   8
ENDBRANCH   6   7
ENDBRANCH   4   5
ENDBRANCH   3   4
ENDBRANCH   1   2
BRANCH   1  15
HETATM   15  C   UNL     1      15.419  -5.590   7.282  1.00  0.00    -0.027 C 
HETATM   16  C   UNL     1      16.211  -6.076   6.315  1.00  0.00    -0.030 C 
BRANCH  16  17
HETATM   17  C   UNL     1      16.770  -7.467   6.325  1.00  0.00     0.027 C 
BRANCH  17  18
HETATM   18  C   UNL     1      18.297  -7.468   6.345  1.00  0.00     0.013 C 
BRANCH  18  19
HETATM   19  C   UNL     1      18.897  -6.786   7.580  1.00  0.00     0.103 C 
BRANCH  19  20
HETATM   20  C   UNL     1      20.410  -6.825   7.529  1.00  0.00     0.217 C 
HETATM   21  O   UNL     1      21.044  -7.315   6.600  1.00  0.00    -0.274 OA
HETATM   22  N   UNL     1      21.024  -6.243   8.614  1.00  0.00    -0.359 N 
HETATM   23  H   UNL     1      20.465  -5.822   9.345  1.00  0.00     0.162 HD
BRANCH  22  24
HETATM   24  C   UNL     1      22.474  -6.246   8.737  1.00  0.00     0.148 C 
BRANCH  24  25
HETATM   25  C   UNL     1      23.113  -5.031   8.063  1.00  0.00     0.183 C 
BRANCH  25  26
HETATM   26  O   UNL     1      22.681  -3.832   8.705  1.00  0.00    -0.399 OA
HETATM   27  H   UNL     1      21.724  -3.771   8.542  1.00  0.00     0.209 HD
ENDBRANCH  25  26
ENDBRANCH  24  25
ENDBRANCH  22  24
ENDBRANCH  19  20
ENDBRANCH  18  19
ENDBRANCH  17  18
ENDBRANCH  16  17
ENDBRANCH   1  15
TORSDOF 17
