MODEL 1
REMARK VINA RESULT:      -6.9      0.000      0.000
REMARK  17 active torsions:
REMARK  status: ('A' for Active; 'I' for Inactive)
REMARK    1  A    between atoms: C_2  and  C_3 
REMARK    2  A    between atoms: C_3  and  C_4 
REMARK    3  A    between atoms: C_4  and  C_5 
REMARK    4  A    between atoms: C_5  and  C_6 
REMARK    5  A    between atoms: C_7  and  C_8 
REMARK    6  A    between atoms: C_8  and  C_9 
REMARK    7  A    between atoms: C_10  and  C_11 
REMARK    8  A    between atoms: C_11  and  C_12 
REMARK    9  A    between atoms: C_13  and  C_14 
REMARK   10  A    between atoms: C_14  and  C_15 
REMARK   11  A    between atoms: C_16  and  C_17 
REMARK   12  A    between atoms: C_17  and  C_18 
REMARK   13  A    between atoms: C_18  and  C_19 
REMARK   14  A    between atoms: C_19  and  C_20 
REMARK       I    between atoms: C_20  and  N_22 
REMARK   15  A    between atoms: N_22  and  C_23 
REMARK   16  A    between atoms: C_23  and  C_24 
REMARK   17  A    between atoms: C_24  and  O_25 
ROOT
HETATM    1  C   UNL     1     -22.196  -5.987  -2.119  1.00  0.00     0.053 C 
ENDROOT
BRANCH   1   2
HETATM    2  C   UNL     1     -22.226  -6.894  -0.929  1.00  0.00    -0.027 C 
HETATM    3  C   UNL     1     -21.332  -7.872  -0.716  1.00  0.00    -0.027 C 
BRANCH   3   4
HETATM    4  C   UNL     1     -21.376  -8.789   0.466  1.00  0.00     0.053 C 
BRANCH   4   5
HETATM    5  C   UNL     1     -22.018 -10.096   0.117  1.00  0.00    -0.027 C 
HETATM    6  C   UNL     1     -23.307 -10.223  -0.231  1.00  0.00    -0.027 C 
BRANCH   6   7
HETATM    7  C   UNL     1     -23.950 -11.530  -0.574  1.00  0.00     0.053 C 
BRANCH   7   8
HETATM    8  C   UNL     1     -23.329 -12.130  -1.797  1.00  0.00    -0.027 C 
HETATM    9  C   UNL     1     -23.093 -11.444  -2.925  1.00  0.00    -0.030 C 
BRANCH   9  10
HETATM   10  C   UNL     1     -22.447 -12.045  -4.136  1.00  0.00     0.027 C 
BRANCH  10  11
HETATM   11  C   UNL     1     -21.507 -11.044  -4.805  1.00  0.00     0.004 C 
BRANCH  11  12
HETATM   12  C   UNL     1     -20.909 -10.092  -3.771  1.00  0.00    -0.000 C 
BRANCH  12  13
HETATM   13  C   UNL     1     -19.415  -9.883  -4.007  1.00  0.00    -0.005 C 
HETATM   14  C   UNL     1     -18.709  -9.496  -2.720  1.00  0.00     0.005 C 
ENDBRANCH  12  13
ENDBRANCH  11  12
ENDBRANCH  10  11
ENDBRANCH   9  10
ENDBRANCH   7   8
ENDBRANCH   6   7
ENDBRANCH   4   5
ENDBRANCH   3   4
ENDBRANCH   1   2
BRANCH   1  15
HETATM   15  C   UNL     1     -21.435  -6.611  -3.247  1.00  0.00    -0.027 C 
HETATM   16  C   UNL     1     -21.674  -6.342  -4.539  1.00  0.00    -0.030 C 
BRANCH  16  17
HETATM   17  C   UNL     1     -20.882  -6.932  -5.667  1.00  0.00     0.027 C 
BRANCH  17  18
HETATM   18  C   UNL     1     -20.146  -5.861  -6.469  1.00  0.00     0.013 C 
BRANCH  18  19
HETATM   19  C   UNL     1     -20.947  -4.566  -6.646  1.00  0.00     0.103 C 
BRANCH  19  20
HETATM   20  C   UNL     1     -21.345  -4.378  -8.095  1.00  0.00     0.217 C 
HETATM   21  O   UNL     1     -20.676  -4.785  -9.039  1.00  0.00    -0.274 OA
HETATM   22  N   UNL     1     -22.541  -3.720  -8.269  1.00  0.00    -0.359 N 
HETATM   23  H   UNL     1     -23.078  -3.428  -7.462  1.00  0.00     0.162 HD
BRANCH  22  24
HETATM   24  C   UNL     1     -23.035  -3.417  -9.603  1.00  0.00     0.148 C 
BRANCH  24  25
HETATM   25  C   UNL     1     -24.428  -3.998  -9.848  1.00  0.00     0.183 C 
BRANCH  25  26
HETATM   26  O   UNL     1     -25.132  -3.197 -10.797  1.00  0.00    -0.399 OA
HETATM   27  H   UNL     1     -24.747  -3.409 -11.664  1.00  0.00     0.209 HD
ENDBRANCH  25  26
ENDBRANCH  24  25
ENDBRANCH  22  24
ENDBRANCH  19  20
ENDBRANCH  18  19
ENDBRANCH  17  18
ENDBRANCH  16  17
ENDBRANCH   1  15
TORSDOF 17
ENDMDL
MODEL 2
REMARK VINA RESULT:      -6.8     12.878     16.726
REMARK  17 active torsions:
REMARK  status: ('A' for Active; 'I' for Inactive)
REMARK    1  A    between atoms: C_2  and  C_3 
REMARK    2  A    between atoms: C_3  and  C_4 
REMARK    3  A    between atoms: C_4  and  C_5 
REMARK    4  A    between atoms: C_5  and  C_6 
REMARK    5  A    between atoms: C_7  and  C_8 
REMARK    6  A    between atoms: C_8  and  C_9 
REMARK    7  A    between atoms: C_10  and  C_11 
REMARK    8  A    between atoms: C_11  and  C_12 
REMARK    9  A    between atoms: C_13  and  C_14 
REMARK   10  A    between atoms: C_14  and  C_15 
REMARK   11  A    between atoms: C_16  and  C_17 
REMARK   12  A    between atoms: C_17  and  C_18 
REMARK   13  A    between atoms: C_18  and  C_19 
REMARK   14  A    between atoms: C_19  and  C_20 
REMARK       I    between atoms: C_20  and  N_22 
REMARK   15  A    between atoms: N_22  and  C_23 
REMARK   16  A    between atoms: C_23  and  C_24 
REMARK   17  A    between atoms: C_24  and  O_25 
ROOT
HETATM    1  C   UNL     1     -33.482  -4.390 -16.427  1.00  0.00     0.053 C 
ENDROOT
BRANCH   1   2
HETATM    2  C   UNL     1     -34.356  -3.233 -16.056  1.00  0.00    -0.027 C 
HETATM    3  C   UNL     1     -34.771  -2.304 -16.931  1.00  0.00    -0.027 C 
BRANCH   3   4
HETATM    4  C   UNL     1     -35.630  -1.138 -16.553  1.00  0.00     0.053 C 
BRANCH   4   5
HETATM    5  C   UNL     1     -35.467  -0.789 -15.105  1.00  0.00    -0.027 C 
HETATM    6  C   UNL     1     -35.326   0.466 -14.653  1.00  0.00    -0.027 C 
BRANCH   6   7
HETATM    7  C   UNL     1     -35.158   0.815 -13.208  1.00  0.00     0.053 C 
BRANCH   7   8
HETATM    8  C   UNL     1     -34.699  -0.371 -12.418  1.00  0.00    -0.027 C 
HETATM    9  C   UNL     1     -35.501  -1.087 -11.616  1.00  0.00    -0.030 C 
BRANCH   9  10
HETATM   10  C   UNL     1     -35.039  -2.289 -10.849  1.00  0.00     0.027 C 
BRANCH  10  11
HETATM   11  C   UNL     1     -33.513  -2.337 -10.780  1.00  0.00     0.004 C 
BRANCH  11  12
HETATM   12  C   UNL     1     -32.978  -3.562 -11.517  1.00  0.00    -0.000 C 
BRANCH  12  13
HETATM   13  C   UNL     1     -34.081  -4.589 -11.760  1.00  0.00    -0.005 C 
HETATM   14  C   UNL     1     -33.899  -5.806 -10.869  1.00  0.00     0.005 C 
ENDBRANCH  12  13
ENDBRANCH  11  12
ENDBRANCH  10  11
ENDBRANCH   9  10
ENDBRANCH   7   8
ENDBRANCH   6   7
ENDBRANCH   4   5
ENDBRANCH   3   4
ENDBRANCH   1   2
BRANCH   1  15
HETATM   15  C   UNL     1     -32.335  -3.942 -17.277  1.00  0.00    -0.027 C 
HETATM   16  C   UNL     1     -31.070  -4.347 -17.087  1.00  0.00    -0.030 C 
BRANCH  16  17
HETATM   17  C   UNL     1     -29.928  -3.932 -17.966  1.00  0.00     0.027 C 
BRANCH  17  18
HETATM   18  C   UNL     1     -29.085  -5.127 -18.406  1.00  0.00     0.013 C 
BRANCH  18  19
HETATM   19  C   UNL     1     -28.792  -6.123 -17.278  1.00  0.00     0.103 C 
BRANCH  19  20
HETATM   20  C   UNL     1     -27.410  -5.889 -16.705  1.00  0.00     0.217 C 
HETATM   21  O   UNL     1     -26.937  -4.773 -16.513  1.00  0.00    -0.274 OA
HETATM   22  N   UNL     1     -26.727  -7.042 -16.396  1.00  0.00    -0.359 N 
HETATM   23  H   UNL     1     -27.165  -7.943 -16.540  1.00  0.00     0.162 HD
BRANCH  22  24
HETATM   24  C   UNL     1     -25.366  -6.985 -15.883  1.00  0.00     0.148 C 
BRANCH  24  25
HETATM   25  C   UNL     1     -24.336  -7.400 -16.934  1.00  0.00     0.183 C 
BRANCH  25  26
HETATM   26  O   UNL     1     -24.745  -6.950 -18.225  1.00  0.00    -0.399 OA
HETATM   27  H   UNL     1     -25.045  -6.033 -18.106  1.00  0.00     0.209 HD
ENDBRANCH  25  26
ENDBRANCH  24  25
ENDBRANCH  22  24
ENDBRANCH  19  20
ENDBRANCH  18  19
ENDBRANCH  17  18
ENDBRANCH  16  17
ENDBRANCH   1  15
TORSDOF 17
ENDMDL
MODEL 3
REMARK VINA RESULT:      -6.6      2.283      4.483
REMARK  17 active torsions:
REMARK  status: ('A' for Active; 'I' for Inactive)
REMARK    1  A    between atoms: C_2  and  C_3 
REMARK    2  A    between atoms: C_3  and  C_4 
REMARK    3  A    between atoms: C_4  and  C_5 
REMARK    4  A    between atoms: C_5  and  C_6 
REMARK    5  A    between atoms: C_7  and  C_8 
REMARK    6  A    between atoms: C_8  and  C_9 
REMARK    7  A    between atoms: C_10  and  C_11 
REMARK    8  A    between atoms: C_11  and  C_12 
REMARK    9  A    between atoms: C_13  and  C_14 
REMARK   10  A    between atoms: C_14  and  C_15 
REMARK   11  A    between atoms: C_16  and  C_17 
REMARK   12  A    between atoms: C_17  and  C_18 
REMARK   13  A    between atoms: C_18  and  C_19 
REMARK   14  A    between atoms: C_19  and  C_20 
REMARK       I    between atoms: C_20  and  N_22 
REMARK   15  A    between atoms: N_22  and  C_23 
REMARK   16  A    between atoms: C_23  and  C_24 
REMARK   17  A    between atoms: C_24  and  O_25 
ROOT
HETATM    1  C   UNL     1     -21.435  -6.576  -5.699  1.00  0.00     0.053 C 
ENDROOT
BRANCH   1   2
HETATM    2  C   UNL     1     -21.227  -6.087  -4.300  1.00  0.00    -0.027 C 
HETATM    3  C   UNL     1     -22.020  -6.420  -3.270  1.00  0.00    -0.027 C 
BRANCH   3   4
HETATM    4  C   UNL     1     -21.819  -5.914  -1.876  1.00  0.00     0.053 C 
BRANCH   4   5
HETATM    5  C   UNL     1     -22.408  -6.851  -0.866  1.00  0.00    -0.027 C 
HETATM    6  C   UNL     1     -22.256  -8.183  -0.909  1.00  0.00    -0.027 C 
BRANCH   6   7
HETATM    7  C   UNL     1     -22.848  -9.120   0.096  1.00  0.00     0.053 C 
BRANCH   7   8
HETATM    8  C   UNL     1     -22.385 -10.524  -0.139  1.00  0.00    -0.027 C 
HETATM    9  C   UNL     1     -23.184 -11.597  -0.044  1.00  0.00    -0.030 C 
BRANCH   9  10
HETATM   10  C   UNL     1     -22.719 -12.997  -0.307  1.00  0.00     0.027 C 
BRANCH  10  11
HETATM   11  C   UNL     1     -22.354 -13.702   0.998  1.00  0.00     0.004 C 
BRANCH  11  12
HETATM   12  C   UNL     1     -23.515 -13.642   1.988  1.00  0.00    -0.000 C 
BRANCH  12  13
HETATM   13  C   UNL     1     -23.353 -14.676   3.099  1.00  0.00    -0.005 C 
HETATM   14  C   UNL     1     -24.610 -15.515   3.251  1.00  0.00     0.005 C 
ENDBRANCH  12  13
ENDBRANCH  11  12
ENDBRANCH  10  11
ENDBRANCH   9  10
ENDBRANCH   7   8
ENDBRANCH   6   7
ENDBRANCH   4   5
ENDBRANCH   3   4
ENDBRANCH   1   2
BRANCH   1  15
HETATM   15  C   UNL     1     -20.669  -5.740  -6.677  1.00  0.00    -0.027 C 
HETATM   16  C   UNL     1     -21.249  -4.898  -7.544  1.00  0.00    -0.030 C 
BRANCH  16  17
HETATM   17  C   UNL     1     -20.480  -4.028  -8.492  1.00  0.00     0.027 C 
BRANCH  17  18
HETATM   18  C   UNL     1     -19.960  -4.814  -9.694  1.00  0.00     0.013 C 
BRANCH  18  19
HETATM   19  C   UNL     1     -20.233  -4.134 -11.040  1.00  0.00     0.103 C 
BRANCH  19  20
HETATM   20  C   UNL     1     -21.683  -3.708 -11.138  1.00  0.00     0.217 C 
HETATM   21  O   UNL     1     -22.037  -2.576 -11.451  1.00  0.00    -0.274 OA
HETATM   22  N   UNL     1     -22.583  -4.711 -10.861  1.00  0.00    -0.359 N 
HETATM   23  H   UNL     1     -22.251  -5.640 -10.636  1.00  0.00     0.162 HD
BRANCH  22  24
HETATM   24  C   UNL     1     -24.014  -4.447 -10.863  1.00  0.00     0.148 C 
BRANCH  24  25
HETATM   25  C   UNL     1     -24.497  -3.874  -9.529  1.00  0.00     0.183 C 
BRANCH  25  26
HETATM   26  O   UNL     1     -25.767  -3.245  -9.698  1.00  0.00    -0.399 OA
HETATM   27  H   UNL     1     -26.086  -3.042  -8.802  1.00  0.00     0.209 HD
ENDBRANCH  25  26
ENDBRANCH  24  25
ENDBRANCH  22  24
ENDBRANCH  19  20
ENDBRANCH  18  19
ENDBRANCH  17  18
ENDBRANCH  16  17
ENDBRANCH   1  15
TORSDOF 17
ENDMDL
MODEL 4
REMARK VINA RESULT:      -6.6      1.169      2.268
REMARK  17 active torsions:
REMARK  status: ('A' for Active; 'I' for Inactive)
REMARK    1  A    between atoms: C_2  and  C_3 
REMARK    2  A    between atoms: C_3  and  C_4 
REMARK    3  A    between atoms: C_4  and  C_5 
REMARK    4  A    between atoms: C_5  and  C_6 
REMARK    5  A    between atoms: C_7  and  C_8 
REMARK    6  A    between atoms: C_8  and  C_9 
REMARK    7  A    between atoms: C_10  and  C_11 
REMARK    8  A    between atoms: C_11  and  C_12 
REMARK    9  A    between atoms: C_13  and  C_14 
REMARK   10  A    between atoms: C_14  and  C_15 
REMARK   11  A    between atoms: C_16  and  C_17 
REMARK   12  A    between atoms: C_17  and  C_18 
REMARK   13  A    between atoms: C_18  and  C_19 
REMARK   14  A    between atoms: C_19  and  C_20 
REMARK       I    between atoms: C_20  and  N_22 
REMARK   15  A    between atoms: N_22  and  C_23 
REMARK   16  A    between atoms: C_23  and  C_24 
REMARK   17  A    between atoms: C_24  and  O_25 
ROOT
HETATM    1  C   UNL     1     -21.754  -6.005  -2.480  1.00  0.00     0.053 C 
ENDROOT
BRANCH   1   2
HETATM    2  C   UNL     1     -22.244  -7.159  -1.663  1.00  0.00    -0.027 C 
HETATM    3  C   UNL     1     -22.494  -7.085  -0.346  1.00  0.00    -0.027 C 
BRANCH   3   4
HETATM    4  C   UNL     1     -22.966  -8.246   0.471  1.00  0.00     0.053 C 
BRANCH   4   5
HETATM    5  C   UNL     1     -22.261  -9.509   0.081  1.00  0.00    -0.027 C 
HETATM    6  C   UNL     1     -20.930  -9.666   0.139  1.00  0.00    -0.027 C 
BRANCH   6   7
HETATM    7  C   UNL     1     -20.223 -10.926  -0.254  1.00  0.00     0.053 C 
BRANCH   7   8
HETATM    8  C   UNL     1     -19.489 -10.749  -1.546  1.00  0.00    -0.027 C 
HETATM    9  C   UNL     1     -19.524  -9.622  -2.274  1.00  0.00    -0.030 C 
BRANCH   9  10
HETATM   10  C   UNL     1     -18.765  -9.444  -3.554  1.00  0.00     0.027 C 
BRANCH  10  11
HETATM   11  C   UNL     1     -19.651  -9.756  -4.759  1.00  0.00     0.004 C 
BRANCH  11  12
HETATM   12  C   UNL     1     -21.128  -9.654  -4.385  1.00  0.00    -0.000 C 
BRANCH  12  13
HETATM   13  C   UNL     1     -21.803 -11.023  -4.417  1.00  0.00    -0.005 C 
HETATM   14  C   UNL     1     -22.823 -11.154  -3.298  1.00  0.00     0.005 C 
ENDBRANCH  12  13
ENDBRANCH  11  12
ENDBRANCH  10  11
ENDBRANCH   9  10
ENDBRANCH   7   8
ENDBRANCH   6   7
ENDBRANCH   4   5
ENDBRANCH   3   4
ENDBRANCH   1   2
BRANCH   1  15
HETATM   15  C   UNL     1     -21.776  -6.337  -3.940  1.00  0.00    -0.027 C 
HETATM   16  C   UNL     1     -20.822  -5.954  -4.800  1.00  0.00    -0.030 C 
BRANCH  16  17
HETATM   17  C   UNL     1     -20.821  -6.325  -6.253  1.00  0.00     0.027 C 
BRANCH  17  18
HETATM   18  C   UNL     1     -19.642  -5.704  -7.000  1.00  0.00     0.013 C 
BRANCH  18  19
HETATM   19  C   UNL     1     -20.042  -4.991  -8.297  1.00  0.00     0.103 C 
BRANCH  19  20
HETATM   20  C   UNL     1     -21.318  -4.200  -8.099  1.00  0.00     0.217 C 
HETATM   21  O   UNL     1     -21.439  -3.304  -7.270  1.00  0.00    -0.274 OA
HETATM   22  N   UNL     1     -22.339  -4.559  -8.949  1.00  0.00    -0.359 N 
HETATM   23  H   UNL     1     -22.189  -5.283  -9.640  1.00  0.00     0.162 HD
BRANCH  22  24
HETATM   24  C   UNL     1     -23.646  -3.927  -8.849  1.00  0.00     0.148 C 
BRANCH  24  25
HETATM   25  C   UNL     1     -24.568  -4.323 -10.003  1.00  0.00     0.183 C 
BRANCH  25  26
HETATM   26  O   UNL     1     -24.953  -3.164 -10.742  1.00  0.00    -0.399 OA
HETATM   27  H   UNL     1     -24.279  -3.052 -11.435  1.00  0.00     0.209 HD
ENDBRANCH  25  26
ENDBRANCH  24  25
ENDBRANCH  22  24
ENDBRANCH  19  20
ENDBRANCH  18  19
ENDBRANCH  17  18
ENDBRANCH  16  17
ENDBRANCH   1  15
TORSDOF 17
ENDMDL
MODEL 5
REMARK VINA RESULT:      -6.6     14.089     17.310
REMARK  17 active torsions:
REMARK  status: ('A' for Active; 'I' for Inactive)
REMARK    1  A    between atoms: C_2  and  C_3 
REMARK    2  A    between atoms: C_3  and  C_4 
REMARK    3  A    between atoms: C_4  and  C_5 
REMARK    4  A    between atoms: C_5  and  C_6 
REMARK    5  A    between atoms: C_7  and  C_8 
REMARK    6  A    between atoms: C_8  and  C_9 
REMARK    7  A    between atoms: C_10  and  C_11 
REMARK    8  A    between atoms: C_11  and  C_12 
REMARK    9  A    between atoms: C_13  and  C_14 
REMARK   10  A    between atoms: C_14  and  C_15 
REMARK   11  A    between atoms: C_16  and  C_17 
REMARK   12  A    between atoms: C_17  and  C_18 
REMARK   13  A    between atoms: C_18  and  C_19 
REMARK   14  A    between atoms: C_19  and  C_20 
REMARK       I    between atoms: C_20  and  N_22 
REMARK   15  A    between atoms: N_22  and  C_23 
REMARK   16  A    between atoms: C_23  and  C_24 
REMARK   17  A    between atoms: C_24  and  O_25 
ROOT
HETATM    1  C   UNL     1     -35.197   0.897 -13.576  1.00  0.00     0.053 C 
ENDROOT
BRANCH   1   2
HETATM    2  C   UNL     1     -35.078   0.256 -14.924  1.00  0.00    -0.027 C 
HETATM    3  C   UNL     1     -36.032  -0.516 -15.467  1.00  0.00    -0.027 C 
BRANCH   3   4
HETATM    4  C   UNL     1     -35.903  -1.170 -16.807  1.00  0.00     0.053 C 
BRANCH   4   5
HETATM    5  C   UNL     1     -34.787  -2.170 -16.819  1.00  0.00    -0.027 C 
HETATM    6  C   UNL     1     -34.740  -3.242 -16.014  1.00  0.00    -0.027 C 
BRANCH   6   7
HETATM    7  C   UNL     1     -33.624  -4.239 -16.022  1.00  0.00     0.053 C 
BRANCH   7   8
HETATM    8  C   UNL     1     -32.559  -3.846 -16.997  1.00  0.00    -0.027 C 
HETATM    9  C   UNL     1     -31.301  -4.310 -16.953  1.00  0.00    -0.030 C 
BRANCH   9  10
HETATM   10  C   UNL     1     -30.247  -3.931 -17.948  1.00  0.00     0.027 C 
BRANCH  10  11
HETATM   11  C   UNL     1     -29.200  -5.035 -18.078  1.00  0.00     0.004 C 
BRANCH  11  12
HETATM   12  C   UNL     1     -29.264  -5.984 -16.883  1.00  0.00    -0.000 C 
BRANCH  12  13
HETATM   13  C   UNL     1     -29.341  -7.440 -17.333  1.00  0.00    -0.005 C 
HETATM   14  C   UNL     1     -30.461  -7.641 -18.339  1.00  0.00     0.005 C 
ENDBRANCH  12  13
ENDBRANCH  11  12
ENDBRANCH  10  11
ENDBRANCH   9  10
ENDBRANCH   7   8
ENDBRANCH   6   7
ENDBRANCH   4   5
ENDBRANCH   3   4
ENDBRANCH   1   2
BRANCH   1  15
HETATM   15  C   UNL     1     -35.413  -0.134 -12.512  1.00  0.00    -0.027 C 
HETATM   16  C   UNL     1     -34.500  -1.060 -12.183  1.00  0.00    -0.030 C 
BRANCH  16  17
HETATM   17  C   UNL     1     -34.699  -2.064 -11.087  1.00  0.00     0.027 C 
BRANCH  17  18
HETATM   18  C   UNL     1     -33.483  -2.971 -10.918  1.00  0.00     0.013 C 
BRANCH  18  19
HETATM   19  C   UNL     1     -33.366  -4.053 -11.998  1.00  0.00     0.103 C 
BRANCH  19  20
HETATM   20  C   UNL     1     -34.270  -5.225 -11.680  1.00  0.00     0.217 C 
HETATM   21  O   UNL     1     -35.153  -5.624 -12.433  1.00  0.00    -0.274 OA
HETATM   22  N   UNL     1     -34.008  -5.825 -10.470  1.00  0.00    -0.359 N 
HETATM   23  H   UNL     1     -33.250  -5.485  -9.892  1.00  0.00     0.162 HD
BRANCH  22  24
HETATM   24  C   UNL     1     -34.824  -6.934  -9.998  1.00  0.00     0.148 C 
BRANCH  24  25
HETATM   25  C   UNL     1     -34.166  -8.289 -10.263  1.00  0.00     0.183 C 
BRANCH  25  26
HETATM   26  O   UNL     1     -34.144  -9.064  -9.066  1.00  0.00    -0.399 OA
HETATM   27  H   UNL     1     -35.074  -9.198  -8.816  1.00  0.00     0.209 HD
ENDBRANCH  25  26
ENDBRANCH  24  25
ENDBRANCH  22  24
ENDBRANCH  19  20
ENDBRANCH  18  19
ENDBRANCH  17  18
ENDBRANCH  16  17
ENDBRANCH   1  15
TORSDOF 17
ENDMDL
MODEL 6
REMARK VINA RESULT:      -6.5      3.794      8.757
REMARK  17 active torsions:
REMARK  status: ('A' for Active; 'I' for Inactive)
REMARK    1  A    between atoms: C_2  and  C_3 
REMARK    2  A    between atoms: C_3  and  C_4 
REMARK    3  A    between atoms: C_4  and  C_5 
REMARK    4  A    between atoms: C_5  and  C_6 
REMARK    5  A    between atoms: C_7  and  C_8 
REMARK    6  A    between atoms: C_8  and  C_9 
REMARK    7  A    between atoms: C_10  and  C_11 
REMARK    8  A    between atoms: C_11  and  C_12 
REMARK    9  A    between atoms: C_13  and  C_14 
REMARK   10  A    between atoms: C_14  and  C_15 
REMARK   11  A    between atoms: C_16  and  C_17 
REMARK   12  A    between atoms: C_17  and  C_18 
REMARK   13  A    between atoms: C_18  and  C_19 
REMARK   14  A    between atoms: C_19  and  C_20 
REMARK       I    between atoms: C_20  and  N_22 
REMARK   15  A    between atoms: N_22  and  C_23 
REMARK   16  A    between atoms: C_23  and  C_24 
REMARK   17  A    between atoms: C_24  and  O_25 
ROOT
HETATM    1  C   UNL     1     -21.906  -5.975  -2.136  1.00  0.00     0.053 C 
ENDROOT
BRANCH   1   2
HETATM    2  C   UNL     1     -21.592  -6.175  -3.585  1.00  0.00    -0.027 C 
HETATM    3  C   UNL     1     -21.671  -7.362  -4.207  1.00  0.00    -0.027 C 
BRANCH   3   4
HETATM    4  C   UNL     1     -21.339  -7.561  -5.652  1.00  0.00     0.053 C 
BRANCH   4   5
HETATM    5  C   UNL     1     -21.059  -6.255  -6.332  1.00  0.00    -0.027 C 
HETATM    6  C   UNL     1     -19.862  -5.919  -6.835  1.00  0.00    -0.027 C 
BRANCH   6   7
HETATM    7  C   UNL     1     -19.580  -4.613  -7.508  1.00  0.00     0.053 C 
BRANCH   7   8
HETATM    8  C   UNL     1     -20.433  -4.442  -8.726  1.00  0.00    -0.027 C 
HETATM    9  C   UNL     1     -19.964  -4.523  -9.981  1.00  0.00    -0.030 C 
BRANCH   9  10
HETATM   10  C   UNL     1     -20.829  -4.376 -11.195  1.00  0.00     0.027 C 
BRANCH  10  11
HETATM   11  C   UNL     1     -22.173  -3.744 -10.833  1.00  0.00     0.004 C 
BRANCH  11  12
HETATM   12  C   UNL     1     -23.319  -4.713 -11.117  1.00  0.00    -0.000 C 
BRANCH  12  13
HETATM   13  C   UNL     1     -24.344  -4.706  -9.986  1.00  0.00    -0.005 C 
HETATM   14  C   UNL     1     -24.578  -3.296  -9.471  1.00  0.00     0.005 C 
ENDBRANCH  12  13
ENDBRANCH  11  12
ENDBRANCH  10  11
ENDBRANCH   9  10
ENDBRANCH   7   8
ENDBRANCH   6   7
ENDBRANCH   4   5
ENDBRANCH   3   4
ENDBRANCH   1   2
BRANCH   1  15
HETATM   15  C   UNL     1     -21.890  -7.279  -1.401  1.00  0.00    -0.027 C 
HETATM   16  C   UNL     1     -22.569  -7.498  -0.265  1.00  0.00    -0.030 C 
BRANCH  16  17
HETATM   17  C   UNL     1     -22.588  -8.817   0.446  1.00  0.00     0.027 C 
BRANCH  17  18
HETATM   18  C   UNL     1     -21.195  -9.234   0.913  1.00  0.00     0.013 C 
BRANCH  18  19
HETATM   19  C   UNL     1     -20.896 -10.723   0.707  1.00  0.00     0.103 C 
BRANCH  19  20
HETATM   20  C   UNL     1     -20.770 -11.043  -0.768  1.00  0.00     0.217 C 
HETATM   21  O   UNL     1     -20.117 -10.365  -1.555  1.00  0.00    -0.274 OA
HETATM   22  N   UNL     1     -21.441 -12.180  -1.156  1.00  0.00    -0.359 N 
HETATM   23  H   UNL     1     -21.943 -12.729  -0.470  1.00  0.00     0.162 HD
BRANCH  22  24
HETATM   24  C   UNL     1     -21.459 -12.592  -2.551  1.00  0.00     0.148 C 
BRANCH  24  25
HETATM   25  C   UNL     1     -22.488 -11.813  -3.371  1.00  0.00     0.183 C 
BRANCH  25  26
HETATM   26  O   UNL     1     -21.831 -10.847  -4.190  1.00  0.00    -0.399 OA
HETATM   27  H   UNL     1     -22.392 -10.737  -4.977  1.00  0.00     0.209 HD
ENDBRANCH  25  26
ENDBRANCH  24  25
ENDBRANCH  22  24
ENDBRANCH  19  20
ENDBRANCH  18  19
ENDBRANCH  17  18
ENDBRANCH  16  17
ENDBRANCH   1  15
TORSDOF 17
ENDMDL
MODEL 7
REMARK VINA RESULT:      -6.5      1.449      3.651
REMARK  17 active torsions:
REMARK  status: ('A' for Active; 'I' for Inactive)
REMARK    1  A    between atoms: C_2  and  C_3 
REMARK    2  A    between atoms: C_3  and  C_4 
REMARK    3  A    between atoms: C_4  and  C_5 
REMARK    4  A    between atoms: C_5  and  C_6 
REMARK    5  A    between atoms: C_7  and  C_8 
REMARK    6  A    between atoms: C_8  and  C_9 
REMARK    7  A    between atoms: C_10  and  C_11 
REMARK    8  A    between atoms: C_11  and  C_12 
REMARK    9  A    between atoms: C_13  and  C_14 
REMARK   10  A    between atoms: C_14  and  C_15 
REMARK   11  A    between atoms: C_16  and  C_17 
REMARK   12  A    between atoms: C_17  and  C_18 
REMARK   13  A    between atoms: C_18  and  C_19 
REMARK   14  A    between atoms: C_19  and  C_20 
REMARK       I    between atoms: C_20  and  N_22 
REMARK   15  A    between atoms: N_22  and  C_23 
REMARK   16  A    between atoms: C_23  and  C_24 
REMARK   17  A    between atoms: C_24  and  O_25 
ROOT
HETATM    1  C   UNL     1     -21.501  -6.278  -5.408  1.00  0.00     0.053 C 
ENDROOT
BRANCH   1   2
HETATM    2  C   UNL     1     -20.519  -7.353  -5.065  1.00  0.00    -0.027 C 
HETATM    3  C   UNL     1     -20.871  -8.557  -4.587  1.00  0.00    -0.027 C 
BRANCH   3   4
HETATM    4  C   UNL     1     -19.884  -9.624  -4.228  1.00  0.00     0.053 C 
BRANCH   4   5
HETATM    5  C   UNL     1     -20.571 -10.844  -3.695  1.00  0.00    -0.027 C 
HETATM    6  C   UNL     1     -21.789 -11.245  -4.090  1.00  0.00    -0.027 C 
BRANCH   6   7
HETATM    7  C   UNL     1     -22.478 -12.461  -3.554  1.00  0.00     0.053 C 
BRANCH   7   8
HETATM    8  C   UNL     1     -22.882 -12.264  -2.127  1.00  0.00    -0.027 C 
HETATM    9  C   UNL     1     -23.436 -11.135  -1.659  1.00  0.00    -0.030 C 
BRANCH   9  10
HETATM   10  C   UNL     1     -23.861 -10.955  -0.234  1.00  0.00     0.027 C 
BRANCH  10  11
HETATM   11  C   UNL     1     -23.520  -9.551   0.263  1.00  0.00     0.004 C 
BRANCH  11  12
HETATM   12  C   UNL     1     -22.560  -8.857  -0.700  1.00  0.00    -0.000 C 
BRANCH  12  13
HETATM   13  C   UNL     1     -22.514  -7.352  -0.449  1.00  0.00    -0.005 C 
HETATM   14  C   UNL     1     -22.079  -6.604  -1.697  1.00  0.00     0.005 C 
ENDBRANCH  12  13
ENDBRANCH  11  12
ENDBRANCH  10  11
ENDBRANCH   9  10
ENDBRANCH   7   8
ENDBRANCH   6   7
ENDBRANCH   4   5
ENDBRANCH   3   4
ENDBRANCH   1   2
BRANCH   1  15
HETATM   15  C   UNL     1     -21.159  -5.641  -6.719  1.00  0.00    -0.027 C 
HETATM   16  C   UNL     1     -20.360  -4.570  -6.836  1.00  0.00    -0.030 C 
BRANCH  16  17
HETATM   17  C   UNL     1     -19.982  -3.960  -8.152  1.00  0.00     0.027 C 
BRANCH  17  18
HETATM   18  C   UNL     1     -20.113  -4.957  -9.301  1.00  0.00     0.013 C 
BRANCH  18  19
HETATM   19  C   UNL     1     -20.309  -4.295 -10.671  1.00  0.00     0.103 C 
BRANCH  19  20
HETATM   20  C   UNL     1     -21.770  -4.312 -11.067  1.00  0.00     0.217 C 
HETATM   21  O   UNL     1     -22.172  -4.000 -12.184  1.00  0.00    -0.274 OA
HETATM   22  N   UNL     1     -22.619  -4.729 -10.068  1.00  0.00    -0.359 N 
HETATM   23  H   UNL     1     -22.244  -5.007  -9.170  1.00  0.00     0.162 HD
BRANCH  22  24
HETATM   24  C   UNL     1     -24.059  -4.751 -10.277  1.00  0.00     0.148 C 
BRANCH  24  25
HETATM   25  C   UNL     1     -24.660  -3.345 -10.302  1.00  0.00     0.183 C 
BRANCH  25  26
HETATM   26  O   UNL     1     -24.909  -2.897  -8.970  1.00  0.00    -0.399 OA
HETATM   27  H   UNL     1     -25.860  -2.698  -8.927  1.00  0.00     0.209 HD
ENDBRANCH  25  26
ENDBRANCH  24  25
ENDBRANCH  22  24
ENDBRANCH  19  20
ENDBRANCH  18  19
ENDBRANCH  17  18
ENDBRANCH  16  17
ENDBRANCH   1  15
TORSDOF 17
ENDMDL
MODEL 8
REMARK VINA RESULT:      -6.5      1.698      2.186
REMARK  17 active torsions:
REMARK  status: ('A' for Active; 'I' for Inactive)
REMARK    1  A    between atoms: C_2  and  C_3 
REMARK    2  A    between atoms: C_3  and  C_4 
REMARK    3  A    between atoms: C_4  and  C_5 
REMARK    4  A    between atoms: C_5  and  C_6 
REMARK    5  A    between atoms: C_7  and  C_8 
REMARK    6  A    between atoms: C_8  and  C_9 
REMARK    7  A    between atoms: C_10  and  C_11 
REMARK    8  A    between atoms: C_11  and  C_12 
REMARK    9  A    between atoms: C_13  and  C_14 
REMARK   10  A    between atoms: C_14  and  C_15 
REMARK   11  A    between atoms: C_16  and  C_17 
REMARK   12  A    between atoms: C_17  and  C_18 
REMARK   13  A    between atoms: C_18  and  C_19 
REMARK   14  A    between atoms: C_19  and  C_20 
REMARK       I    between atoms: C_20  and  N_22 
REMARK   15  A    between atoms: N_22  and  C_23 
REMARK   16  A    between atoms: C_23  and  C_24 
REMARK   17  A    between atoms: C_24  and  O_25 
ROOT
HETATM    1  C   UNL     1     -21.600  -5.945  -2.520  1.00  0.00     0.053 C 
ENDROOT
BRANCH   1   2
HETATM    2  C   UNL     1     -22.358  -6.972  -1.738  1.00  0.00    -0.027 C 
HETATM    3  C   UNL     1     -22.391  -7.011  -0.397  1.00  0.00    -0.027 C 
BRANCH   3   4
HETATM    4  C   UNL     1     -23.136  -8.050   0.381  1.00  0.00     0.053 C 
BRANCH   4   5
HETATM    5  C   UNL     1     -22.694  -9.432   0.006  1.00  0.00    -0.027 C 
HETATM    6  C   UNL     1     -21.583 -10.013   0.483  1.00  0.00    -0.027 C 
BRANCH   6   7
HETATM    7  C   UNL     1     -21.138 -11.391   0.105  1.00  0.00     0.053 C 
BRANCH   7   8
HETATM    8  C   UNL     1     -20.164 -11.349  -1.030  1.00  0.00    -0.027 C 
HETATM    9  C   UNL     1     -19.686 -10.212  -1.560  1.00  0.00    -0.030 C 
BRANCH   9  10
HETATM   10  C   UNL     1     -18.690 -10.179  -2.679  1.00  0.00     0.027 C 
BRANCH  10  11
HETATM   11  C   UNL     1     -19.128  -9.199  -3.767  1.00  0.00     0.004 C 
BRANCH  11  12
HETATM   12  C   UNL     1     -18.389  -9.479  -5.074  1.00  0.00    -0.000 C 
BRANCH  12  13
HETATM   13  C   UNL     1     -16.942  -9.891  -4.817  1.00  0.00    -0.005 C 
HETATM   14  C   UNL     1     -16.122  -9.828  -6.094  1.00  0.00     0.005 C 
ENDBRANCH  12  13
ENDBRANCH  11  12
ENDBRANCH  10  11
ENDBRANCH   9  10
ENDBRANCH   7   8
ENDBRANCH   6   7
ENDBRANCH   4   5
ENDBRANCH   3   4
ENDBRANCH   1   2
BRANCH   1  15
HETATM   15  C   UNL     1     -21.444  -6.369  -3.947  1.00  0.00    -0.027 C 
HETATM   16  C   UNL     1     -20.766  -5.658  -4.861  1.00  0.00    -0.030 C 
BRANCH  16  17
HETATM   17  C   UNL     1     -20.572  -6.104  -6.278  1.00  0.00     0.027 C 
BRANCH  17  18
HETATM   18  C   UNL     1     -19.854  -5.048  -7.116  1.00  0.00     0.013 C 
BRANCH  18  19
HETATM   19  C   UNL     1     -20.720  -3.825  -7.438  1.00  0.00     0.103 C 
BRANCH  19  20
HETATM   20  C   UNL     1     -21.663  -4.126  -8.584  1.00  0.00     0.217 C 
HETATM   21  O   UNL     1     -21.288  -4.333  -9.734  1.00  0.00    -0.274 OA
HETATM   22  N   UNL     1     -22.990  -4.166  -8.224  1.00  0.00    -0.359 N 
HETATM   23  H   UNL     1     -23.256  -4.019  -7.258  1.00  0.00     0.162 HD
BRANCH  22  24
HETATM   24  C   UNL     1     -24.025  -4.393  -9.222  1.00  0.00     0.148 C 
BRANCH  24  25
HETATM   25  C   UNL     1     -24.702  -3.092  -9.658  1.00  0.00     0.183 C 
BRANCH  25  26
HETATM   26  O   UNL     1     -25.223  -3.231 -10.979  1.00  0.00    -0.399 OA
HETATM   27  H   UNL     1     -24.865  -2.484 -11.488  1.00  0.00     0.209 HD
ENDBRANCH  25  26
ENDBRANCH  24  25
ENDBRANCH  22  24
ENDBRANCH  19  20
ENDBRANCH  18  19
ENDBRANCH  17  18
ENDBRANCH  16  17
ENDBRANCH   1  15
TORSDOF 17
ENDMDL
MODEL 9
REMARK VINA RESULT:      -6.4      2.324      3.910
REMARK  17 active torsions:
REMARK  status: ('A' for Active; 'I' for Inactive)
REMARK    1  A    between atoms: C_2  and  C_3 
REMARK    2  A    between atoms: C_3  and  C_4 
REMARK    3  A    between atoms: C_4  and  C_5 
REMARK    4  A    between atoms: C_5  and  C_6 
REMARK    5  A    between atoms: C_7  and  C_8 
REMARK    6  A    between atoms: C_8  and  C_9 
REMARK    7  A    between atoms: C_10  and  C_11 
REMARK    8  A    between atoms: C_11  and  C_12 
REMARK    9  A    between atoms: C_13  and  C_14 
REMARK   10  A    between atoms: C_14  and  C_15 
REMARK   11  A    between atoms: C_16  and  C_17 
REMARK   12  A    between atoms: C_17  and  C_18 
REMARK   13  A    between atoms: C_18  and  C_19 
REMARK   14  A    between atoms: C_19  and  C_20 
REMARK       I    between atoms: C_20  and  N_22 
REMARK   15  A    between atoms: N_22  and  C_23 
REMARK   16  A    between atoms: C_23  and  C_24 
REMARK   17  A    between atoms: C_24  and  O_25 
ROOT
HETATM    1  C   UNL     1     -21.981  -5.989  -1.925  1.00  0.00     0.053 C 
ENDROOT
BRANCH   1   2
HETATM    2  C   UNL     1     -22.347  -7.005  -0.889  1.00  0.00    -0.027 C 
HETATM    3  C   UNL     1     -21.488  -7.914  -0.402  1.00  0.00    -0.027 C 
BRANCH   3   4
HETATM    4  C   UNL     1     -21.864  -8.941   0.620  1.00  0.00     0.053 C 
BRANCH   4   5
HETATM    5  C   UNL     1     -22.318 -10.213  -0.027  1.00  0.00    -0.027 C 
HETATM    6  C   UNL     1     -23.490 -10.346  -0.668  1.00  0.00    -0.027 C 
BRANCH   6   7
HETATM    7  C   UNL     1     -23.947 -11.618  -1.310  1.00  0.00     0.053 C 
BRANCH   7   8
HETATM    8  C   UNL     1     -23.268 -12.803  -0.697  1.00  0.00    -0.027 C 
HETATM    9  C   UNL     1     -23.921 -13.892  -0.264  1.00  0.00    -0.030 C 
BRANCH   9  10
HETATM   10  C   UNL     1     -23.232 -15.086   0.324  1.00  0.00     0.027 C 
BRANCH  10  11
HETATM   11  C   UNL     1     -22.582 -14.734   1.661  1.00  0.00     0.004 C 
BRANCH  11  12
HETATM   12  C   UNL     1     -23.625 -14.221   2.651  1.00  0.00    -0.000 C 
BRANCH  12  13
HETATM   13  C   UNL     1     -23.820 -15.197   3.808  1.00  0.00    -0.005 C 
HETATM   14  C   UNL     1     -22.507 -15.858   4.191  1.00  0.00     0.005 C 
ENDBRANCH  12  13
ENDBRANCH  11  12
ENDBRANCH  10  11
ENDBRANCH   9  10
ENDBRANCH   7   8
ENDBRANCH   6   7
ENDBRANCH   4   5
ENDBRANCH   3   4
ENDBRANCH   1   2
BRANCH   1  15
HETATM   15  C   UNL     1     -21.463  -6.651  -3.163  1.00  0.00    -0.027 C 
HETATM   16  C   UNL     1     -22.007  -6.479  -4.377  1.00  0.00    -0.030 C 
BRANCH  16  17
HETATM   17  C   UNL     1     -21.461  -7.107  -5.624  1.00  0.00     0.027 C 
BRANCH  17  18
HETATM   18  C   UNL     1     -20.501  -6.174  -6.359  1.00  0.00     0.013 C 
BRANCH  18  19
HETATM   19  C   UNL     1     -21.011  -4.733  -6.476  1.00  0.00     0.103 C 
BRANCH  19  20
HETATM   20  C   UNL     1     -21.330  -4.395  -7.917  1.00  0.00     0.217 C 
HETATM   21  O   UNL     1     -20.498  -4.417  -8.818  1.00  0.00    -0.274 OA
HETATM   22  N   UNL     1     -22.649  -4.074  -8.140  1.00  0.00    -0.359 N 
HETATM   23  H   UNL     1     -23.311  -4.097  -7.375  1.00  0.00     0.162 HD
BRANCH  22  24
HETATM   24  C   UNL     1     -23.103  -3.675  -9.464  1.00  0.00     0.148 C 
BRANCH  24  25
HETATM   25  C   UNL     1     -24.592  -3.327  -9.483  1.00  0.00     0.183 C 
BRANCH  25  26
HETATM   26  O   UNL     1     -25.040  -3.170 -10.829  1.00  0.00    -0.399 OA
HETATM   27  H   UNL     1     -25.485  -4.003 -11.061  1.00  0.00     0.209 HD
ENDBRANCH  25  26
ENDBRANCH  24  25
ENDBRANCH  22  24
ENDBRANCH  19  20
ENDBRANCH  18  19
ENDBRANCH  17  18
ENDBRANCH  16  17
ENDBRANCH   1  15
TORSDOF 17
ENDMDL
