REMARK  16 active torsions:
REMARK  status: ('A' for Active; 'I' for Inactive)
REMARK    1  A    between atoms: C_2  and  C_3 
REMARK    2  A    between atoms: C_3  and  C_4 
REMARK    3  A    between atoms: C_4  and  C_5 
REMARK    4  A    between atoms: C_5  and  C_6 
REMARK    5  A    between atoms: C_7  and  C_8 
REMARK    6  A    between atoms: C_8  and  C_9 
REMARK    7  A    between atoms: C_10  and  C_11 
REMARK    8  A    between atoms: C_11  and  C_12 
REMARK    9  A    between atoms: C_13  and  C_14 
REMARK   10  A    between atoms: C_15  and  C_16 
REMARK   11  A    between atoms: C_16  and  O_17 
REMARK   12  A    between atoms: C_16  and  C_18 
REMARK   13  A    between atoms: C_18  and  C_19 
REMARK   14  A    between atoms: C_19  and  C_20 
REMARK   15  A    between atoms: C_20  and  C_21 
REMARK   16  A    between atoms: C_21  and  O_23 
ROOT
HETATM    1  C   UNL     1      12.643   6.596   2.793  1.00  0.00    -0.023 C 
HETATM    2  C   UNL     1      13.355   6.775   3.911  1.00  0.00    -0.004 C 
ENDROOT
BRANCH   2   3
HETATM    3  C   UNL     1      14.794   6.827   3.913  1.00  0.00    -0.002 C 
HETATM    4  C   UNL     1      15.514   7.006   5.030  1.00  0.00     0.004 C 
BRANCH   4   5
HETATM    5  C   UNL     1      17.016   7.010   5.032  1.00  0.00     0.141 C 
BRANCH   5   6
HETATM    6  O   UNL     1      17.454   8.262   5.544  1.00  0.00    -0.392 OA
HETATM    7  H   UNL     1      17.083   8.368   6.435  1.00  0.00     0.210 HD
ENDBRANCH   5   6
BRANCH   5   8
HETATM    8  C   UNL     1      17.610   5.878   5.882  1.00  0.00     0.036 C 
BRANCH   8   9
HETATM    9  C   UNL     1      17.193   4.502   5.367  1.00  0.00     0.013 C 
BRANCH   9  10
HETATM   10  C   UNL     1      17.775   3.364   6.197  1.00  0.00     0.110 C 
BRANCH  10  11
HETATM   11  C   UNL     1      17.337   2.023   5.656  1.00  0.00     0.139 C 
HETATM   12  O   UNL     1      16.616   1.849   4.683  1.00  0.00    -0.650 OA
BRANCH  11  13
HETATM   13  O   UNL     1      17.833   0.991   6.372  1.00  0.00    -0.776 OA
HETATM   14  H   UNL     1      18.399   1.262   7.126  1.00  0.00     0.167 HD
ENDBRANCH  11  13
ENDBRANCH  10  11
ENDBRANCH   9  10
ENDBRANCH   8   9
ENDBRANCH   5   8
ENDBRANCH   4   5
ENDBRANCH   2   3
BRANCH   1  15
HETATM   15  C   UNL     1      11.142   6.570   2.781  1.00  0.00     0.054 C 
BRANCH  15  16
HETATM   16  C   UNL     1      10.611   5.278   2.247  1.00  0.00    -0.027 C 
HETATM   17  C   UNL     1       9.814   5.200   1.165  1.00  0.00    -0.027 C 
BRANCH  17  18
HETATM   18  C   UNL     1       9.264   3.907   0.648  1.00  0.00     0.053 C 
BRANCH  18  19
HETATM   19  C   UNL     1       9.701   3.640  -0.756  1.00  0.00    -0.027 C 
HETATM   20  C   UNL     1       8.836   3.478  -1.770  1.00  0.00    -0.030 C 
BRANCH  20  21
HETATM   21  C   UNL     1       9.279   3.201  -3.173  1.00  0.00     0.027 C 
BRANCH  21  22
HETATM   22  C   UNL     1       8.807   4.295  -4.127  1.00  0.00     0.004 C 
BRANCH  22  23
HETATM   23  C   UNL     1       9.267   4.002  -5.554  1.00  0.00    -0.000 C 
BRANCH  23  24
HETATM   24  C   UNL     1       8.799   5.089  -6.518  1.00  0.00    -0.005 C 
HETATM   25  C   UNL     1       9.256   4.799  -7.937  1.00  0.00     0.005 C 
ENDBRANCH  23  24
ENDBRANCH  22  23
ENDBRANCH  21  22
ENDBRANCH  20  21
ENDBRANCH  18  19
ENDBRANCH  17  18
ENDBRANCH  15  16
ENDBRANCH   1  15
TORSDOF 16
