MODEL 1
REMARK VINA RESULT:      -7.5      0.000      0.000
REMARK  16 active torsions:
REMARK  status: ('A' for Active; 'I' for Inactive)
REMARK    1  A    between atoms: C_2  and  C_3 
REMARK    2  A    between atoms: C_3  and  C_4 
REMARK    3  A    between atoms: C_4  and  C_5 
REMARK    4  A    between atoms: C_5  and  C_6 
REMARK    5  A    between atoms: C_7  and  C_8 
REMARK    6  A    between atoms: C_8  and  C_9 
REMARK    7  A    between atoms: C_10  and  C_11 
REMARK    8  A    between atoms: C_11  and  C_12 
REMARK    9  A    between atoms: C_13  and  C_14 
REMARK   10  A    between atoms: C_15  and  C_16 
REMARK   11  A    between atoms: C_16  and  O_17 
REMARK   12  A    between atoms: C_16  and  C_18 
REMARK   13  A    between atoms: C_18  and  C_19 
REMARK   14  A    between atoms: C_19  and  C_20 
REMARK   15  A    between atoms: C_20  and  C_21 
REMARK   16  A    between atoms: C_21  and  O_23 
ROOT
HETATM    1  C   UNL     1     -20.834  -6.195  -6.737  1.00  0.00    -0.023 C 
HETATM    2  C   UNL     1     -20.323  -5.081  -7.273  1.00  0.00    -0.004 C 
ENDROOT
BRANCH   2   3
HETATM    3  C   UNL     1     -20.934  -4.409  -8.390  1.00  0.00    -0.002 C 
HETATM    4  C   UNL     1     -20.430  -4.455  -9.632  1.00  0.00     0.004 C 
BRANCH   4   5
HETATM    5  C   UNL     1     -21.099  -3.792 -10.802  1.00  0.00     0.141 C 
BRANCH   5   6
HETATM    6  O   UNL     1     -20.087  -3.282 -11.660  1.00  0.00    -0.392 OA
HETATM    7  H   UNL     1     -20.483  -3.127 -12.533  1.00  0.00     0.210 HD
ENDBRANCH   5   6
BRANCH   5   8
HETATM    8  C   UNL     1     -21.998  -4.753 -11.593  1.00  0.00     0.036 C 
BRANCH   8   9
HETATM    9  C   UNL     1     -23.480  -4.450 -11.381  1.00  0.00     0.013 C 
BRANCH   9  10
HETATM   10  C   UNL     1     -23.708  -3.192 -10.551  1.00  0.00     0.110 C 
BRANCH  10  11
HETATM   11  C   UNL     1     -24.840  -3.391  -9.570  1.00  0.00     0.139 C 
HETATM   12  O   UNL     1     -26.022  -3.168  -9.793  1.00  0.00    -0.650 OA
BRANCH  11  13
HETATM   13  O   UNL     1     -24.412  -3.855  -8.377  1.00  0.00    -0.776 OA
HETATM   14  H   UNL     1     -24.691  -4.775  -8.181  1.00  0.00     0.167 HD
ENDBRANCH  11  13
ENDBRANCH  10  11
ENDBRANCH   9  10
ENDBRANCH   8   9
ENDBRANCH   5   8
ENDBRANCH   4   5
ENDBRANCH   2   3
BRANCH   1  15
HETATM   15  C   UNL     1     -20.217  -6.883  -5.554  1.00  0.00     0.054 C 
BRANCH  15  16
HETATM   16  C   UNL     1     -21.181  -7.009  -4.417  1.00  0.00    -0.027 C 
HETATM   17  C   UNL     1     -21.290  -6.091  -3.439  1.00  0.00    -0.027 C 
BRANCH  17  18
HETATM   18  C   UNL     1     -22.238  -6.233  -2.289  1.00  0.00     0.053 C 
BRANCH  18  19
HETATM   19  C   UNL     1     -21.841  -7.348  -1.377  1.00  0.00    -0.027 C 
HETATM   20  C   UNL     1     -22.168  -7.376  -0.074  1.00  0.00    -0.030 C 
BRANCH  20  21
HETATM   21  C   UNL     1     -21.759  -8.491   0.837  1.00  0.00     0.027 C 
BRANCH  21  22
HETATM   22  C   UNL     1     -21.090  -9.622   0.061  1.00  0.00     0.004 C 
BRANCH  22  23
HETATM   23  C   UNL     1     -21.670 -10.974   0.471  1.00  0.00    -0.000 C 
BRANCH  23  24
HETATM   24  C   UNL     1     -22.659 -11.488  -0.571  1.00  0.00    -0.005 C 
HETATM   25  C   UNL     1     -24.074 -11.032  -0.258  1.00  0.00     0.005 C 
ENDBRANCH  23  24
ENDBRANCH  22  23
ENDBRANCH  21  22
ENDBRANCH  20  21
ENDBRANCH  18  19
ENDBRANCH  17  18
ENDBRANCH  15  16
ENDBRANCH   1  15
TORSDOF 16
ENDMDL
MODEL 2
REMARK VINA RESULT:      -7.2      1.880      3.743
REMARK  16 active torsions:
REMARK  status: ('A' for Active; 'I' for Inactive)
REMARK    1  A    between atoms: C_2  and  C_3 
REMARK    2  A    between atoms: C_3  and  C_4 
REMARK    3  A    between atoms: C_4  and  C_5 
REMARK    4  A    between atoms: C_5  and  C_6 
REMARK    5  A    between atoms: C_7  and  C_8 
REMARK    6  A    between atoms: C_8  and  C_9 
REMARK    7  A    between atoms: C_10  and  C_11 
REMARK    8  A    between atoms: C_11  and  C_12 
REMARK    9  A    between atoms: C_13  and  C_14 
REMARK   10  A    between atoms: C_15  and  C_16 
REMARK   11  A    between atoms: C_16  and  O_17 
REMARK   12  A    between atoms: C_16  and  C_18 
REMARK   13  A    between atoms: C_18  and  C_19 
REMARK   14  A    between atoms: C_19  and  C_20 
REMARK   15  A    between atoms: C_20  and  C_21 
REMARK   16  A    between atoms: C_21  and  O_23 
ROOT
HETATM    1  C   UNL     1     -21.510  -6.026  -3.013  1.00  0.00    -0.023 C 
HETATM    2  C   UNL     1     -21.830  -6.671  -4.140  1.00  0.00    -0.004 C 
ENDROOT
BRANCH   2   3
HETATM    3  C   UNL     1     -21.157  -6.429  -5.389  1.00  0.00    -0.002 C 
HETATM    4  C   UNL     1     -20.804  -5.202  -5.800  1.00  0.00     0.004 C 
BRANCH   4   5
HETATM    5  C   UNL     1     -20.059  -4.961  -7.081  1.00  0.00     0.141 C 
BRANCH   5   6
HETATM    6  O   UNL     1     -19.977  -6.194  -7.784  1.00  0.00    -0.392 OA
HETATM    7  H   UNL     1     -19.112  -6.233  -8.222  1.00  0.00     0.210 HD
ENDBRANCH   5   6
BRANCH   5   8
HETATM    8  C   UNL     1     -20.739  -3.912  -7.973  1.00  0.00     0.036 C 
BRANCH   8   9
HETATM    9  C   UNL     1     -22.209  -4.244  -8.221  1.00  0.00     0.013 C 
BRANCH   9  10
HETATM   10  C   UNL     1     -22.571  -4.232  -9.701  1.00  0.00     0.110 C 
BRANCH  10  11
HETATM   11  C   UNL     1     -23.986  -3.744  -9.906  1.00  0.00     0.139 C 
HETATM   12  O   UNL     1     -24.568  -3.677 -10.980  1.00  0.00    -0.650 OA
BRANCH  11  13
HETATM   13  O   UNL     1     -24.576  -3.371  -8.749  1.00  0.00    -0.776 OA
HETATM   14  H   UNL     1     -25.346  -2.775  -8.866  1.00  0.00     0.167 HD
ENDBRANCH  11  13
ENDBRANCH  10  11
ENDBRANCH   9  10
ENDBRANCH   8   9
ENDBRANCH   5   8
ENDBRANCH   4   5
ENDBRANCH   2   3
BRANCH   1  15
HETATM   15  C   UNL     1     -22.188  -6.296  -1.701  1.00  0.00     0.054 C 
BRANCH  15  16
HETATM   16  C   UNL     1     -21.630  -7.506  -1.023  1.00  0.00    -0.027 C 
HETATM   17  C   UNL     1     -22.159  -8.033   0.097  1.00  0.00    -0.027 C 
BRANCH  17  18
HETATM   18  C   UNL     1     -21.582  -9.230   0.787  1.00  0.00     0.053 C 
BRANCH  18  19
HETATM   19  C   UNL     1     -21.926 -10.499   0.077  1.00  0.00    -0.027 C 
HETATM   20  C   UNL     1     -22.762 -10.543  -0.973  1.00  0.00    -0.030 C 
BRANCH  20  21
HETATM   21  C   UNL     1     -23.111 -11.818  -1.675  1.00  0.00     0.027 C 
BRANCH  21  22
HETATM   22  C   UNL     1     -22.714 -11.764  -3.148  1.00  0.00     0.004 C 
BRANCH  22  23
HETATM   23  C   UNL     1     -22.284 -10.351  -3.540  1.00  0.00    -0.000 C 
BRANCH  23  24
HETATM   24  C   UNL     1     -20.903 -10.355  -4.189  1.00  0.00    -0.005 C 
HETATM   25  C   UNL     1     -19.857  -9.765  -3.259  1.00  0.00     0.005 C 
ENDBRANCH  23  24
ENDBRANCH  22  23
ENDBRANCH  21  22
ENDBRANCH  20  21
ENDBRANCH  18  19
ENDBRANCH  17  18
ENDBRANCH  15  16
ENDBRANCH   1  15
TORSDOF 16
ENDMDL
MODEL 3
REMARK VINA RESULT:      -7.1      1.986      3.735
REMARK  16 active torsions:
REMARK  status: ('A' for Active; 'I' for Inactive)
REMARK    1  A    between atoms: C_2  and  C_3 
REMARK    2  A    between atoms: C_3  and  C_4 
REMARK    3  A    between atoms: C_4  and  C_5 
REMARK    4  A    between atoms: C_5  and  C_6 
REMARK    5  A    between atoms: C_7  and  C_8 
REMARK    6  A    between atoms: C_8  and  C_9 
REMARK    7  A    between atoms: C_10  and  C_11 
REMARK    8  A    between atoms: C_11  and  C_12 
REMARK    9  A    between atoms: C_13  and  C_14 
REMARK   10  A    between atoms: C_15  and  C_16 
REMARK   11  A    between atoms: C_16  and  O_17 
REMARK   12  A    between atoms: C_16  and  C_18 
REMARK   13  A    between atoms: C_18  and  C_19 
REMARK   14  A    between atoms: C_19  and  C_20 
REMARK   15  A    between atoms: C_20  and  C_21 
REMARK   16  A    between atoms: C_21  and  O_23 
ROOT
HETATM    1  C   UNL     1     -19.761  -7.998  -5.210  1.00  0.00    -0.023 C 
HETATM    2  C   UNL     1     -20.935  -7.429  -5.506  1.00  0.00    -0.004 C 
ENDROOT
BRANCH   2   3
HETATM    3  C   UNL     1     -21.059  -6.031  -5.826  1.00  0.00    -0.002 C 
HETATM    4  C   UNL     1     -20.554  -5.493  -6.946  1.00  0.00     0.004 C 
BRANCH   4   5
HETATM    5  C   UNL     1     -20.729  -4.043  -7.298  1.00  0.00     0.141 C 
BRANCH   5   6
HETATM    6  O   UNL     1     -19.671  -3.668  -8.169  1.00  0.00    -0.392 OA
HETATM    7  H   UNL     1     -18.916  -3.393  -7.624  1.00  0.00     0.210 HD
ENDBRANCH   5   6
BRANCH   5   8
HETATM    8  C   UNL     1     -22.074  -3.759  -7.981  1.00  0.00     0.036 C 
BRANCH   8   9
HETATM    9  C   UNL     1     -22.359  -4.748  -9.109  1.00  0.00     0.013 C 
BRANCH   9  10
HETATM   10  C   UNL     1     -22.613  -4.058 -10.444  1.00  0.00     0.110 C 
BRANCH  10  11
HETATM   11  C   UNL     1     -21.401  -4.157 -11.341  1.00  0.00     0.139 C 
HETATM   12  O   UNL     1     -20.275  -4.471 -10.983  1.00  0.00    -0.650 OA
BRANCH  11  13
HETATM   13  O   UNL     1     -21.686  -3.856 -12.627  1.00  0.00    -0.776 OA
HETATM   14  H   UNL     1     -21.242  -4.436 -13.282  1.00  0.00     0.167 HD
ENDBRANCH  11  13
ENDBRANCH  10  11
ENDBRANCH   9  10
ENDBRANCH   8   9
ENDBRANCH   5   8
ENDBRANCH   4   5
ENDBRANCH   2   3
BRANCH   1  15
HETATM   15  C   UNL     1     -19.622  -9.461  -4.903  1.00  0.00     0.054 C 
BRANCH  15  16
HETATM   16  C   UNL     1     -20.779  -9.977  -4.110  1.00  0.00    -0.027 C 
HETATM   17  C   UNL     1     -21.586 -10.965  -4.540  1.00  0.00    -0.027 C 
BRANCH  17  18
HETATM   18  C   UNL     1     -22.758 -11.463  -3.754  1.00  0.00     0.053 C 
BRANCH  18  19
HETATM   19  C   UNL     1     -22.835 -10.822  -2.406  1.00  0.00    -0.027 C 
HETATM   20  C   UNL     1     -23.715 -11.203  -1.467  1.00  0.00    -0.030 C 
BRANCH  20  21
HETATM   21  C   UNL     1     -23.794 -10.551  -0.121  1.00  0.00     0.027 C 
BRANCH  21  22
HETATM   22  C   UNL     1     -22.551  -9.710   0.158  1.00  0.00     0.004 C 
BRANCH  22  23
HETATM   23  C   UNL     1     -22.928  -8.246   0.376  1.00  0.00    -0.000 C 
BRANCH  23  24
HETATM   24  C   UNL     1     -22.461  -7.377  -0.789  1.00  0.00    -0.005 C 
HETATM   25  C   UNL     1     -21.040  -7.723  -1.197  1.00  0.00     0.005 C 
ENDBRANCH  23  24
ENDBRANCH  22  23
ENDBRANCH  21  22
ENDBRANCH  20  21
ENDBRANCH  18  19
ENDBRANCH  17  18
ENDBRANCH  15  16
ENDBRANCH   1  15
TORSDOF 16
ENDMDL
MODEL 4
REMARK VINA RESULT:      -7.0      1.968      3.724
REMARK  16 active torsions:
REMARK  status: ('A' for Active; 'I' for Inactive)
REMARK    1  A    between atoms: C_2  and  C_3 
REMARK    2  A    between atoms: C_3  and  C_4 
REMARK    3  A    between atoms: C_4  and  C_5 
REMARK    4  A    between atoms: C_5  and  C_6 
REMARK    5  A    between atoms: C_7  and  C_8 
REMARK    6  A    between atoms: C_8  and  C_9 
REMARK    7  A    between atoms: C_10  and  C_11 
REMARK    8  A    between atoms: C_11  and  C_12 
REMARK    9  A    between atoms: C_13  and  C_14 
REMARK   10  A    between atoms: C_15  and  C_16 
REMARK   11  A    between atoms: C_16  and  O_17 
REMARK   12  A    between atoms: C_16  and  C_18 
REMARK   13  A    between atoms: C_18  and  C_19 
REMARK   14  A    between atoms: C_19  and  C_20 
REMARK   15  A    between atoms: C_20  and  C_21 
REMARK   16  A    between atoms: C_21  and  O_23 
ROOT
HETATM    1  C   UNL     1     -21.214  -6.145  -3.547  1.00  0.00    -0.023 C 
HETATM    2  C   UNL     1     -21.526  -6.741  -4.703  1.00  0.00    -0.004 C 
ENDROOT
BRANCH   2   3
HETATM    3  C   UNL     1     -21.856  -5.999  -5.892  1.00  0.00    -0.002 C 
HETATM    4  C   UNL     1     -20.986  -5.184  -6.506  1.00  0.00     0.004 C 
BRANCH   4   5
HETATM    5  C   UNL     1     -21.321  -4.452  -7.774  1.00  0.00     0.141 C 
BRANCH   5   6
HETATM    6  O   UNL     1     -21.951  -3.227  -7.423  1.00  0.00    -0.392 OA
HETATM    7  H   UNL     1     -21.412  -2.500  -7.775  1.00  0.00     0.210 HD
ENDBRANCH   5   6
BRANCH   5   8
HETATM    8  C   UNL     1     -20.083  -4.158  -8.633  1.00  0.00     0.036 C 
BRANCH   8   9
HETATM    9  C   UNL     1     -20.308  -4.522 -10.098  1.00  0.00     0.013 C 
BRANCH   9  10
HETATM   10  C   UNL     1     -20.928  -3.382 -10.897  1.00  0.00     0.110 C 
BRANCH  10  11
HETATM   11  C   UNL     1     -21.982  -3.900 -11.848  1.00  0.00     0.139 C 
HETATM   12  O   UNL     1     -23.012  -4.476 -11.523  1.00  0.00    -0.650 OA
BRANCH  11  13
HETATM   13  O   UNL     1     -21.674  -3.660 -13.140  1.00  0.00    -0.776 OA
HETATM   14  H   UNL     1     -22.454  -3.576 -13.729  1.00  0.00     0.167 HD
ENDBRANCH  11  13
ENDBRANCH  10  11
ENDBRANCH   9  10
ENDBRANCH   8   9
ENDBRANCH   5   8
ENDBRANCH   4   5
ENDBRANCH   2   3
BRANCH   1  15
HETATM   15  C   UNL     1     -20.841  -6.913  -2.312  1.00  0.00     0.054 C 
BRANCH  15  16
HETATM   16  C   UNL     1     -22.044  -7.449  -1.604  1.00  0.00    -0.027 C 
HETATM   17  C   UNL     1     -22.087  -7.650  -0.273  1.00  0.00    -0.027 C 
BRANCH  17  18
HETATM   18  C   UNL     1     -23.285  -8.211   0.429  1.00  0.00     0.053 C 
BRANCH  18  19
HETATM   19  C   UNL     1     -23.229  -9.701   0.518  1.00  0.00    -0.027 C 
HETATM   20  C   UNL     1     -23.797 -10.508  -0.393  1.00  0.00    -0.030 C 
BRANCH  20  21
HETATM   21  C   UNL     1     -23.746 -12.001  -0.294  1.00  0.00     0.027 C 
BRANCH  21  22
HETATM   22  C   UNL     1     -22.707 -12.451   0.729  1.00  0.00     0.004 C 
BRANCH  22  23
HETATM   23  C   UNL     1     -23.258 -13.580   1.598  1.00  0.00    -0.000 C 
BRANCH  23  24
HETATM   24  C   UNL     1     -22.136 -14.475   2.117  1.00  0.00    -0.005 C 
HETATM   25  C   UNL     1     -22.335 -14.811   3.584  1.00  0.00     0.005 C 
ENDBRANCH  23  24
ENDBRANCH  22  23
ENDBRANCH  21  22
ENDBRANCH  20  21
ENDBRANCH  18  19
ENDBRANCH  17  18
ENDBRANCH  15  16
ENDBRANCH   1  15
TORSDOF 16
ENDMDL
MODEL 5
REMARK VINA RESULT:      -7.0      2.042      3.962
REMARK  16 active torsions:
REMARK  status: ('A' for Active; 'I' for Inactive)
REMARK    1  A    between atoms: C_2  and  C_3 
REMARK    2  A    between atoms: C_3  and  C_4 
REMARK    3  A    between atoms: C_4  and  C_5 
REMARK    4  A    between atoms: C_5  and  C_6 
REMARK    5  A    between atoms: C_7  and  C_8 
REMARK    6  A    between atoms: C_8  and  C_9 
REMARK    7  A    between atoms: C_10  and  C_11 
REMARK    8  A    between atoms: C_11  and  C_12 
REMARK    9  A    between atoms: C_13  and  C_14 
REMARK   10  A    between atoms: C_15  and  C_16 
REMARK   11  A    between atoms: C_16  and  O_17 
REMARK   12  A    between atoms: C_16  and  C_18 
REMARK   13  A    between atoms: C_18  and  C_19 
REMARK   14  A    between atoms: C_19  and  C_20 
REMARK   15  A    between atoms: C_20  and  C_21 
REMARK   16  A    between atoms: C_21  and  O_23 
ROOT
HETATM    1  C   UNL     1     -22.312  -6.463  -2.619  1.00  0.00    -0.023 C 
HETATM    2  C   UNL     1     -21.203  -6.178  -3.310  1.00  0.00    -0.004 C 
ENDROOT
BRANCH   2   3
HETATM    3  C   UNL     1     -21.195  -6.051  -4.744  1.00  0.00    -0.002 C 
HETATM    4  C   UNL     1     -20.595  -5.035  -5.381  1.00  0.00     0.004 C 
BRANCH   4   5
HETATM    5  C   UNL     1     -20.548  -4.934  -6.879  1.00  0.00     0.141 C 
BRANCH   5   6
HETATM    6  O   UNL     1     -21.019  -6.162  -7.419  1.00  0.00    -0.392 OA
HETATM    7  H   UNL     1     -21.805  -6.429  -6.915  1.00  0.00     0.210 HD
ENDBRANCH   5   6
BRANCH   5   8
HETATM    8  C   UNL     1     -21.401  -3.779  -7.421  1.00  0.00     0.036 C 
BRANCH   8   9
HETATM    9  C   UNL     1     -22.612  -4.286  -8.202  1.00  0.00     0.013 C 
BRANCH   9  10
HETATM   10  C   UNL     1     -22.689  -3.703  -9.608  1.00  0.00     0.110 C 
BRANCH  10  11
HETATM   11  C   UNL     1     -24.124  -3.480 -10.022  1.00  0.00     0.139 C 
HETATM   12  O   UNL     1     -24.602  -3.758 -11.114  1.00  0.00    -0.650 OA
BRANCH  11  13
HETATM   13  O   UNL     1     -24.864  -2.924  -9.039  1.00  0.00    -0.776 OA
HETATM   14  H   UNL     1     -24.337  -2.457  -8.356  1.00  0.00     0.167 HD
ENDBRANCH  11  13
ENDBRANCH  10  11
ENDBRANCH   9  10
ENDBRANCH   8   9
ENDBRANCH   5   8
ENDBRANCH   4   5
ENDBRANCH   2   3
BRANCH   1  15
HETATM   15  C   UNL     1     -22.332  -6.568  -1.121  1.00  0.00     0.054 C 
BRANCH  15  16
HETATM   16  C   UNL     1     -21.597  -7.777  -0.638  1.00  0.00    -0.027 C 
HETATM   17  C   UNL     1     -21.653  -8.213   0.635  1.00  0.00    -0.027 C 
BRANCH  17  18
HETATM   18  C   UNL     1     -20.896  -9.410   1.121  1.00  0.00     0.053 C 
BRANCH  18  19
HETATM   19  C   UNL     1     -21.129 -10.604   0.253  1.00  0.00    -0.027 C 
HETATM   20  C   UNL     1     -22.279 -11.296   0.260  1.00  0.00    -0.030 C 
BRANCH  20  21
HETATM   21  C   UNL     1     -22.504 -12.498  -0.605  1.00  0.00     0.027 C 
BRANCH  21  22
HETATM   22  C   UNL     1     -23.755 -13.259  -0.177  1.00  0.00     0.004 C 
BRANCH  22  23
HETATM   23  C   UNL     1     -23.395 -14.397   0.777  1.00  0.00    -0.000 C 
BRANCH  23  24
HETATM   24  C   UNL     1     -23.393 -13.920   2.227  1.00  0.00    -0.005 C 
HETATM   25  C   UNL     1     -24.198 -14.855   3.113  1.00  0.00     0.005 C 
ENDBRANCH  23  24
ENDBRANCH  22  23
ENDBRANCH  21  22
ENDBRANCH  20  21
ENDBRANCH  18  19
ENDBRANCH  17  18
ENDBRANCH  15  16
ENDBRANCH   1  15
TORSDOF 16
ENDMDL
MODEL 6
REMARK VINA RESULT:      -6.9      1.450      3.065
REMARK  16 active torsions:
REMARK  status: ('A' for Active; 'I' for Inactive)
REMARK    1  A    between atoms: C_2  and  C_3 
REMARK    2  A    between atoms: C_3  and  C_4 
REMARK    3  A    between atoms: C_4  and  C_5 
REMARK    4  A    between atoms: C_5  and  C_6 
REMARK    5  A    between atoms: C_7  and  C_8 
REMARK    6  A    between atoms: C_8  and  C_9 
REMARK    7  A    between atoms: C_10  and  C_11 
REMARK    8  A    between atoms: C_11  and  C_12 
REMARK    9  A    between atoms: C_13  and  C_14 
REMARK   10  A    between atoms: C_15  and  C_16 
REMARK   11  A    between atoms: C_16  and  O_17 
REMARK   12  A    between atoms: C_16  and  C_18 
REMARK   13  A    between atoms: C_18  and  C_19 
REMARK   14  A    between atoms: C_19  and  C_20 
REMARK   15  A    between atoms: C_20  and  C_21 
REMARK   16  A    between atoms: C_21  and  O_23 
ROOT
HETATM    1  C   UNL     1     -21.454  -6.070  -3.265  1.00  0.00    -0.023 C 
HETATM    2  C   UNL     1     -21.649  -6.289  -4.570  1.00  0.00    -0.004 C 
ENDROOT
BRANCH   2   3
HETATM    3  C   UNL     1     -20.793  -5.732  -5.586  1.00  0.00    -0.002 C 
HETATM    4  C   UNL     1     -21.229  -4.860  -6.507  1.00  0.00     0.004 C 
BRANCH   4   5
HETATM    5  C   UNL     1     -20.320  -4.246  -7.532  1.00  0.00     0.141 C 
BRANCH   5   6
HETATM    6  O   UNL     1     -19.007  -4.748  -7.317  1.00  0.00    -0.392 OA
HETATM    7  H   UNL     1     -18.621  -4.958  -8.183  1.00  0.00     0.210 HD
ENDBRANCH   5   6
BRANCH   5   8
HETATM    8  C   UNL     1     -20.754  -4.558  -8.971  1.00  0.00     0.036 C 
BRANCH   8   9
HETATM    9  C   UNL     1     -21.864  -3.623  -9.446  1.00  0.00     0.013 C 
BRANCH   9  10
HETATM   10  C   UNL     1     -22.973  -4.359 -10.188  1.00  0.00     0.110 C 
BRANCH  10  11
HETATM   11  C   UNL     1     -24.299  -3.657 -10.012  1.00  0.00     0.139 C 
HETATM   12  O   UNL     1     -25.020  -3.260 -10.917  1.00  0.00    -0.650 OA
BRANCH  11  13
HETATM   13  O   UNL     1     -24.630  -3.499  -8.712  1.00  0.00    -0.776 OA
HETATM   14  H   UNL     1     -23.932  -3.074  -8.170  1.00  0.00     0.167 HD
ENDBRANCH  11  13
ENDBRANCH  10  11
ENDBRANCH   9  10
ENDBRANCH   8   9
ENDBRANCH   5   8
ENDBRANCH   4   5
ENDBRANCH   2   3
BRANCH   1  15
HETATM   15  C   UNL     1     -22.325  -6.671  -2.201  1.00  0.00     0.054 C 
BRANCH  15  16
HETATM   16  C   UNL     1     -21.535  -7.083  -1.000  1.00  0.00    -0.027 C 
HETATM   17  C   UNL     1     -22.008  -7.921  -0.059  1.00  0.00    -0.027 C 
BRANCH  17  18
HETATM   18  C   UNL     1     -21.224  -8.311   1.155  1.00  0.00     0.053 C 
BRANCH  18  19
HETATM   19  C   UNL     1     -20.971  -9.784   1.203  1.00  0.00    -0.027 C 
HETATM   20  C   UNL     1     -20.728 -10.517   0.105  1.00  0.00    -0.030 C 
BRANCH  20  21
HETATM   21  C   UNL     1     -20.486 -11.994   0.157  1.00  0.00     0.027 C 
BRANCH  21  22
HETATM   22  C   UNL     1     -21.653 -12.767  -0.451  1.00  0.00     0.004 C 
BRANCH  22  23
HETATM   23  C   UNL     1     -22.812 -12.862   0.540  1.00  0.00    -0.000 C 
BRANCH  23  24
HETATM   24  C   UNL     1     -23.864 -11.792   0.262  1.00  0.00    -0.005 C 
HETATM   25  C   UNL     1     -24.018 -11.546  -1.228  1.00  0.00     0.005 C 
ENDBRANCH  23  24
ENDBRANCH  22  23
ENDBRANCH  21  22
ENDBRANCH  20  21
ENDBRANCH  18  19
ENDBRANCH  17  18
ENDBRANCH  15  16
ENDBRANCH   1  15
TORSDOF 16
ENDMDL
MODEL 7
REMARK VINA RESULT:      -6.9      2.717      5.760
REMARK  16 active torsions:
REMARK  status: ('A' for Active; 'I' for Inactive)
REMARK    1  A    between atoms: C_2  and  C_3 
REMARK    2  A    between atoms: C_3  and  C_4 
REMARK    3  A    between atoms: C_4  and  C_5 
REMARK    4  A    between atoms: C_5  and  C_6 
REMARK    5  A    between atoms: C_7  and  C_8 
REMARK    6  A    between atoms: C_8  and  C_9 
REMARK    7  A    between atoms: C_10  and  C_11 
REMARK    8  A    between atoms: C_11  and  C_12 
REMARK    9  A    between atoms: C_13  and  C_14 
REMARK   10  A    between atoms: C_15  and  C_16 
REMARK   11  A    between atoms: C_16  and  O_17 
REMARK   12  A    between atoms: C_16  and  C_18 
REMARK   13  A    between atoms: C_18  and  C_19 
REMARK   14  A    between atoms: C_19  and  C_20 
REMARK   15  A    between atoms: C_20  and  C_21 
REMARK   16  A    between atoms: C_21  and  O_23 
ROOT
HETATM    1  C   UNL     1     -21.901  -7.598  -1.027  1.00  0.00    -0.023 C 
HETATM    2  C   UNL     1     -22.093  -6.391  -1.569  1.00  0.00    -0.004 C 
ENDROOT
BRANCH   2   3
HETATM    3  C   UNL     1     -21.679  -6.069  -2.910  1.00  0.00    -0.002 C 
HETATM    4  C   UNL     1     -22.083  -6.764  -3.983  1.00  0.00     0.004 C 
BRANCH   4   5
HETATM    5  C   UNL     1     -21.687  -6.393  -5.383  1.00  0.00     0.141 C 
BRANCH   5   6
HETATM    6  O   UNL     1     -22.647  -5.472  -5.885  1.00  0.00    -0.392 OA
HETATM    7  H   UNL     1     -23.138  -5.109  -5.129  1.00  0.00     0.210 HD
ENDBRANCH   5   6
BRANCH   5   8
HETATM    8  C   UNL     1     -20.290  -5.759  -5.455  1.00  0.00     0.036 C 
BRANCH   8   9
HETATM    9  C   UNL     1     -20.287  -4.486  -6.299  1.00  0.00     0.013 C 
BRANCH   9  10
HETATM   10  C   UNL     1     -19.601  -4.677  -7.646  1.00  0.00     0.110 C 
BRANCH  10  11
HETATM   11  C   UNL     1     -20.616  -4.757  -8.762  1.00  0.00     0.139 C 
HETATM   12  O   UNL     1     -21.821  -4.908  -8.618  1.00  0.00    -0.650 OA
BRANCH  11  13
HETATM   13  O   UNL     1     -20.050  -4.643  -9.983  1.00  0.00    -0.776 OA
HETATM   14  H   UNL     1     -19.389  -3.921 -10.052  1.00  0.00     0.167 HD
ENDBRANCH  11  13
ENDBRANCH  10  11
ENDBRANCH   9  10
ENDBRANCH   8   9
ENDBRANCH   5   8
ENDBRANCH   4   5
ENDBRANCH   2   3
BRANCH   1  15
HETATM   15  C   UNL     1     -22.356  -7.949   0.360  1.00  0.00     0.054 C 
BRANCH  15  16
HETATM   16  C   UNL     1     -23.333  -9.081   0.357  1.00  0.00    -0.027 C 
HETATM   17  C   UNL     1     -23.176 -10.187  -0.395  1.00  0.00    -0.027 C 
BRANCH  17  18
HETATM   18  C   UNL     1     -24.169 -11.308  -0.414  1.00  0.00     0.053 C 
BRANCH  18  19
HETATM   19  C   UNL     1     -23.559 -12.597   0.033  1.00  0.00    -0.027 C 
HETATM   20  C   UNL     1     -22.504 -12.655   0.862  1.00  0.00    -0.030 C 
BRANCH  20  21
HETATM   21  C   UNL     1     -21.891 -13.949   1.299  1.00  0.00     0.027 C 
BRANCH  21  22
HETATM   22  C   UNL     1     -22.335 -14.320   2.712  1.00  0.00     0.004 C 
BRANCH  22  23
HETATM   23  C   UNL     1     -23.844 -14.549   2.760  1.00  0.00    -0.000 C 
BRANCH  23  24
HETATM   24  C   UNL     1     -24.245 -15.315   4.018  1.00  0.00    -0.005 C 
HETATM   25  C   UNL     1     -23.090 -15.401   5.001  1.00  0.00     0.005 C 
ENDBRANCH  23  24
ENDBRANCH  22  23
ENDBRANCH  21  22
ENDBRANCH  20  21
ENDBRANCH  18  19
ENDBRANCH  17  18
ENDBRANCH  15  16
ENDBRANCH   1  15
TORSDOF 16
ENDMDL
MODEL 8
REMARK VINA RESULT:      -6.8      2.326      5.140
REMARK  16 active torsions:
REMARK  status: ('A' for Active; 'I' for Inactive)
REMARK    1  A    between atoms: C_2  and  C_3 
REMARK    2  A    between atoms: C_3  and  C_4 
REMARK    3  A    between atoms: C_4  and  C_5 
REMARK    4  A    between atoms: C_5  and  C_6 
REMARK    5  A    between atoms: C_7  and  C_8 
REMARK    6  A    between atoms: C_8  and  C_9 
REMARK    7  A    between atoms: C_10  and  C_11 
REMARK    8  A    between atoms: C_11  and  C_12 
REMARK    9  A    between atoms: C_13  and  C_14 
REMARK   10  A    between atoms: C_15  and  C_16 
REMARK   11  A    between atoms: C_16  and  O_17 
REMARK   12  A    between atoms: C_16  and  C_18 
REMARK   13  A    between atoms: C_18  and  C_19 
REMARK   14  A    between atoms: C_19  and  C_20 
REMARK   15  A    between atoms: C_20  and  C_21 
REMARK   16  A    between atoms: C_21  and  O_23 
ROOT
HETATM    1  C   UNL     1     -22.078  -7.338  -1.299  1.00  0.00    -0.023 C 
HETATM    2  C   UNL     1     -22.137  -6.190  -1.983  1.00  0.00    -0.004 C 
ENDROOT
BRANCH   2   3
HETATM    3  C   UNL     1     -21.448  -5.997  -3.232  1.00  0.00    -0.002 C 
HETATM    4  C   UNL     1     -21.165  -7.005  -4.070  1.00  0.00     0.004 C 
BRANCH   4   5
HETATM    5  C   UNL     1     -20.490  -6.789  -5.395  1.00  0.00     0.141 C 
BRANCH   5   6
HETATM    6  O   UNL     1     -21.083  -7.670  -6.341  1.00  0.00    -0.392 OA
HETATM    7  H   UNL     1     -21.843  -8.100  -5.916  1.00  0.00     0.210 HD
ENDBRANCH   5   6
BRANCH   5   8
HETATM    8  C   UNL     1     -20.619  -5.344  -5.897  1.00  0.00     0.036 C 
BRANCH   8   9
HETATM    9  C   UNL     1     -21.690  -5.211  -6.977  1.00  0.00     0.013 C 
BRANCH   9  10
HETATM   10  C   UNL     1     -21.538  -3.938  -7.801  1.00  0.00     0.110 C 
BRANCH  10  11
HETATM   11  C   UNL     1     -22.728  -3.738  -8.710  1.00  0.00     0.139 C 
HETATM   12  O   UNL     1     -22.676  -3.404  -9.886  1.00  0.00    -0.650 OA
BRANCH  11  13
HETATM   13  O   UNL     1     -23.901  -3.970  -8.083  1.00  0.00    -0.776 OA
HETATM   14  H   UNL     1     -24.391  -3.157  -7.836  1.00  0.00     0.167 HD
ENDBRANCH  11  13
ENDBRANCH  10  11
ENDBRANCH   9  10
ENDBRANCH   8   9
ENDBRANCH   5   8
ENDBRANCH   4   5
ENDBRANCH   2   3
BRANCH   1  15
HETATM   15  C   UNL     1     -22.816  -7.555  -0.010  1.00  0.00     0.054 C 
BRANCH  15  16
HETATM   16  C   UNL     1     -22.176  -8.616   0.828  1.00  0.00    -0.027 C 
HETATM   17  C   UNL     1     -21.123  -9.345   0.415  1.00  0.00    -0.027 C 
BRANCH  17  18
HETATM   18  C   UNL     1     -20.501 -10.423   1.247  1.00  0.00     0.053 C 
BRANCH  18  19
HETATM   19  C   UNL     1     -20.767 -11.782   0.684  1.00  0.00    -0.027 C 
HETATM   20  C   UNL     1     -22.005 -12.235   0.430  1.00  0.00    -0.030 C 
BRANCH  20  21
HETATM   21  C   UNL     1     -22.268 -13.601  -0.124  1.00  0.00     0.027 C 
BRANCH  21  22
HETATM   22  C   UNL     1     -23.472 -14.250   0.553  1.00  0.00     0.004 C 
BRANCH  22  23
HETATM   23  C   UNL     1     -23.713 -13.635   1.930  1.00  0.00    -0.000 C 
BRANCH  23  24
HETATM   24  C   UNL     1     -23.569 -14.680   3.033  1.00  0.00    -0.005 C 
HETATM   25  C   UNL     1     -22.114 -14.867   3.427  1.00  0.00     0.005 C 
ENDBRANCH  23  24
ENDBRANCH  22  23
ENDBRANCH  21  22
ENDBRANCH  20  21
ENDBRANCH  18  19
ENDBRANCH  17  18
ENDBRANCH  15  16
ENDBRANCH   1  15
TORSDOF 16
ENDMDL
MODEL 9
REMARK VINA RESULT:      -6.7      2.061      3.535
REMARK  16 active torsions:
REMARK  status: ('A' for Active; 'I' for Inactive)
REMARK    1  A    between atoms: C_2  and  C_3 
REMARK    2  A    between atoms: C_3  and  C_4 
REMARK    3  A    between atoms: C_4  and  C_5 
REMARK    4  A    between atoms: C_5  and  C_6 
REMARK    5  A    between atoms: C_7  and  C_8 
REMARK    6  A    between atoms: C_8  and  C_9 
REMARK    7  A    between atoms: C_10  and  C_11 
REMARK    8  A    between atoms: C_11  and  C_12 
REMARK    9  A    between atoms: C_13  and  C_14 
REMARK   10  A    between atoms: C_15  and  C_16 
REMARK   11  A    between atoms: C_16  and  O_17 
REMARK   12  A    between atoms: C_16  and  C_18 
REMARK   13  A    between atoms: C_18  and  C_19 
REMARK   14  A    between atoms: C_19  and  C_20 
REMARK   15  A    between atoms: C_20  and  C_21 
REMARK   16  A    between atoms: C_21  and  O_23 
ROOT
HETATM    1  C   UNL     1     -19.733  -8.144  -5.077  1.00  0.00    -0.023 C 
HETATM    2  C   UNL     1     -20.784  -7.399  -5.435  1.00  0.00    -0.004 C 
ENDROOT
BRANCH   2   3
HETATM    3  C   UNL     1     -20.693  -6.353  -6.420  1.00  0.00    -0.002 C 
HETATM    4  C   UNL     1     -20.979  -5.071  -6.149  1.00  0.00     0.004 C 
BRANCH   4   5
HETATM    5  C   UNL     1     -20.834  -3.977  -7.168  1.00  0.00     0.141 C 
BRANCH   5   6
HETATM    6  O   UNL     1     -19.844  -4.376  -8.107  1.00  0.00    -0.392 OA
HETATM    7  H   UNL     1     -20.240  -4.341  -8.993  1.00  0.00     0.210 HD
ENDBRANCH   5   6
BRANCH   5   8
HETATM    8  C   UNL     1     -22.146  -3.679  -7.907  1.00  0.00     0.036 C 
BRANCH   8   9
HETATM    9  C   UNL     1     -22.259  -4.476  -9.206  1.00  0.00     0.013 C 
BRANCH   9  10
HETATM   10  C   UNL     1     -22.360  -3.581 -10.436  1.00  0.00     0.110 C 
BRANCH  10  11
HETATM   11  C   UNL     1     -21.263  -3.899 -11.425  1.00  0.00     0.139 C 
HETATM   12  O   UNL     1     -20.109  -4.188 -11.140  1.00  0.00    -0.650 OA
BRANCH  11  13
HETATM   13  O   UNL     1     -21.688  -3.834 -12.705  1.00  0.00    -0.776 OA
HETATM   14  H   UNL     1     -21.520  -4.649 -13.225  1.00  0.00     0.167 HD
ENDBRANCH  11  13
ENDBRANCH  10  11
ENDBRANCH   9  10
ENDBRANCH   8   9
ENDBRANCH   5   8
ENDBRANCH   4   5
ENDBRANCH   2   3
BRANCH   1  15
HETATM   15  C   UNL     1     -19.829  -9.255  -4.073  1.00  0.00     0.054 C 
BRANCH  15  16
HETATM   16  C   UNL     1     -20.228  -8.752  -2.722  1.00  0.00    -0.027 C 
HETATM   17  C   UNL     1     -21.509  -8.657  -2.320  1.00  0.00    -0.027 C 
BRANCH  17  18
HETATM   18  C   UNL     1     -21.905  -8.130  -0.976  1.00  0.00     0.053 C 
BRANCH  18  19
HETATM   19  C   UNL     1     -22.755  -9.104  -0.226  1.00  0.00    -0.027 C 
HETATM   20  C   UNL     1     -23.160 -10.272  -0.751  1.00  0.00    -0.030 C 
BRANCH  20  21
HETATM   21  C   UNL     1     -24.019 -11.240   0.001  1.00  0.00     0.027 C 
BRANCH  21  22
HETATM   22  C   UNL     1     -23.391 -12.631   0.027  1.00  0.00     0.004 C 
BRANCH  22  23
HETATM   23  C   UNL     1     -23.443 -13.221   1.435  1.00  0.00    -0.000 C 
BRANCH  23  24
HETATM   24  C   UNL     1     -22.104 -13.841   1.823  1.00  0.00    -0.005 C 
HETATM   25  C   UNL     1     -22.235 -14.699   3.069  1.00  0.00     0.005 C 
ENDBRANCH  23  24
ENDBRANCH  22  23
ENDBRANCH  21  22
ENDBRANCH  20  21
ENDBRANCH  18  19
ENDBRANCH  17  18
ENDBRANCH  15  16
ENDBRANCH   1  15
TORSDOF 16
ENDMDL
