REMARK  17 active torsions:
REMARK  status: ('A' for Active; 'I' for Inactive)
REMARK    1  A    between atoms: C_2  and  C_3 
REMARK    2  A    between atoms: C_3  and  C_4 
REMARK    3  A    between atoms: C_4  and  C_5 
REMARK    4  A    between atoms: C_5  and  C_6 
REMARK    5  A    between atoms: C_7  and  C_8 
REMARK    6  A    between atoms: C_8  and  C_9 
REMARK    7  A    between atoms: C_10  and  C_11 
REMARK    8  A    between atoms: C_11  and  C_12 
REMARK    9  A    between atoms: C_13  and  C_14 
REMARK   10  A    between atoms: C_15  and  C_16 
REMARK   11  A    between atoms: C_16  and  C_17 
REMARK   12  A    between atoms: C_16  and  O_23 
REMARK   13  A    between atoms: C_17  and  C_18 
REMARK   14  A    between atoms: C_18  and  C_19 
REMARK   15  A    between atoms: C_19  and  C_20 
REMARK   16  A    between atoms: C_20  and  O_22 
REMARK   17  A    between atoms: O_23  and  O_24 
ROOT
HETATM    1  C   UNL     1      12.513   7.169   1.263  1.00  0.00    -0.023 C 
HETATM    2  C   UNL     1      13.166   7.620   2.348  1.00  0.00    -0.004 C 
ENDROOT
BRANCH   2   3
HETATM    3  C   UNL     1      14.604   7.704   2.399  1.00  0.00    -0.002 C 
HETATM    4  C   UNL     1      15.272   8.185   3.459  1.00  0.00     0.008 C 
BRANCH   4   5
HETATM    5  C   UNL     1      16.773   8.306   3.497  1.00  0.00     0.183 C 
BRANCH   5   6
HETATM    6  C   UNL     1      17.200   9.713   3.054  1.00  0.00     0.040 C 
BRANCH   6   7
HETATM    7  C   UNL     1      18.714   9.958   3.088  1.00  0.00     0.013 C 
BRANCH   7   8
HETATM    8  C   UNL     1      19.520   9.067   2.137  1.00  0.00     0.110 C 
BRANCH   8   9
HETATM    9  C   UNL     1      20.995   9.401   2.208  1.00  0.00     0.139 C 
HETATM   10  O   UNL     1      21.490  10.271   2.908  1.00  0.00    -0.650 OA
BRANCH   9  11
HETATM   11  O   UNL     1      21.743   8.621   1.395  1.00  0.00    -0.776 OA
HETATM   12  H   UNL     1      21.229   7.965   0.891  1.00  0.00     0.167 HD
ENDBRANCH   9  11
ENDBRANCH   8   9
ENDBRANCH   7   8
ENDBRANCH   6   7
ENDBRANCH   5   6
BRANCH   5  13
HETATM   13  O   UNL     1      17.232   8.092   4.839  1.00  0.00    -0.234 OA
BRANCH  13  14
HETATM   14  O   UNL     1      17.034   6.676   5.127  1.00  0.00    -0.250 OA
HETATM   15  H   UNL     1      17.349   6.713   6.048  1.00  0.00     0.253 HD
ENDBRANCH  13  14
ENDBRANCH   5  13
ENDBRANCH   4   5
ENDBRANCH   2   3
BRANCH   1  16
HETATM   16  C   UNL     1      11.018   7.132   1.150  1.00  0.00     0.054 C 
BRANCH  16  17
HETATM   17  C   UNL     1      10.523   5.737   0.905  1.00  0.00    -0.027 C 
HETATM   18  C   UNL     1       9.815   5.375  -0.178  1.00  0.00    -0.027 C 
BRANCH  18  19
HETATM   19  C   UNL     1       9.284   3.992  -0.408  1.00  0.00     0.053 C 
BRANCH  19  20
HETATM   20  C   UNL     1       9.829   3.408  -1.676  1.00  0.00    -0.027 C 
HETATM   21  C   UNL     1       9.067   3.016  -2.710  1.00  0.00    -0.030 C 
BRANCH  21  22
HETATM   22  C   UNL     1       9.619   2.419  -3.970  1.00  0.00     0.027 C 
BRANCH  22  23
HETATM   23  C   UNL     1       9.248   3.262  -5.191  1.00  0.00     0.004 C 
BRANCH  23  24
HETATM   24  C   UNL     1       9.822   2.651  -6.469  1.00  0.00    -0.000 C 
BRANCH  24  25
HETATM   25  C   UNL     1       9.460   3.486  -7.696  1.00  0.00    -0.005 C 
HETATM   26  C   UNL     1      10.031   2.879  -8.967  1.00  0.00     0.005 C 
ENDBRANCH  24  25
ENDBRANCH  23  24
ENDBRANCH  22  23
ENDBRANCH  21  22
ENDBRANCH  19  20
ENDBRANCH  18  19
ENDBRANCH  16  17
ENDBRANCH   1  16
TORSDOF 17
