MODEL 1
REMARK VINA RESULT:      -7.9      0.000      0.000
REMARK  17 active torsions:
REMARK  status: ('A' for Active; 'I' for Inactive)
REMARK    1  A    between atoms: C_2  and  C_3 
REMARK    2  A    between atoms: C_3  and  C_4 
REMARK    3  A    between atoms: C_4  and  C_5 
REMARK    4  A    between atoms: C_5  and  C_6 
REMARK    5  A    between atoms: C_7  and  C_8 
REMARK    6  A    between atoms: C_8  and  C_9 
REMARK    7  A    between atoms: C_10  and  C_11 
REMARK    8  A    between atoms: C_11  and  C_12 
REMARK    9  A    between atoms: C_13  and  C_14 
REMARK   10  A    between atoms: C_15  and  C_16 
REMARK   11  A    between atoms: C_16  and  C_17 
REMARK   12  A    between atoms: C_16  and  O_23 
REMARK   13  A    between atoms: C_17  and  C_18 
REMARK   14  A    between atoms: C_18  and  C_19 
REMARK   15  A    between atoms: C_19  and  C_20 
REMARK   16  A    between atoms: C_20  and  O_22 
REMARK   17  A    between atoms: O_23  and  O_24 
ROOT
HETATM    1  C   UNL     1     -21.060  -6.346  -6.445  1.00  0.00    -0.023 C 
HETATM    2  C   UNL     1     -21.257  -5.030  -6.641  1.00  0.00    -0.004 C 
ENDROOT
BRANCH   2   3
HETATM    3  C   UNL     1     -21.722  -4.503  -7.899  1.00  0.00    -0.002 C 
HETATM    4  C   UNL     1     -23.007  -4.195  -8.134  1.00  0.00     0.008 C 
BRANCH   4   5
HETATM    5  C   UNL     1     -23.498  -3.677  -9.461  1.00  0.00     0.183 C 
BRANCH   5   6
HETATM    6  C   UNL     1     -22.469  -3.984 -10.559  1.00  0.00     0.040 C 
BRANCH   6   7
HETATM    7  C   UNL     1     -22.365  -2.910 -11.650  1.00  0.00     0.013 C 
BRANCH   7   8
HETATM    8  C   UNL     1     -23.015  -3.298 -12.982  1.00  0.00     0.110 C 
BRANCH   8   9
HETATM    9  C   UNL     1     -24.342  -2.590 -13.159  1.00  0.00     0.139 C 
HETATM   10  O   UNL     1     -25.394  -2.917 -12.631  1.00  0.00    -0.650 OA
BRANCH   9  11
HETATM   11  O   UNL     1     -24.254  -1.524 -13.987  1.00  0.00    -0.776 OA
HETATM   12  H   UNL     1     -23.345  -1.209 -14.134  1.00  0.00     0.167 HD
ENDBRANCH   9  11
ENDBRANCH   8   9
ENDBRANCH   7   8
ENDBRANCH   6   7
ENDBRANCH   5   6
BRANCH   5  13
HETATM   13  O   UNL     1     -24.731  -4.328  -9.796  1.00  0.00    -0.234 OA
BRANCH  13  14
HETATM   14  O   UNL     1     -25.761  -3.296  -9.797  1.00  0.00    -0.250 OA
HETATM   15  H   UNL     1     -25.646  -3.034  -8.866  1.00  0.00     0.253 HD
ENDBRANCH  13  14
ENDBRANCH   5  13
ENDBRANCH   4   5
ENDBRANCH   2   3
BRANCH   1  16
HETATM   16  C   UNL     1     -20.643  -6.936  -5.131  1.00  0.00     0.054 C 
BRANCH  16  17
HETATM   17  C   UNL     1     -21.619  -6.595  -4.045  1.00  0.00    -0.027 C 
HETATM   18  C   UNL     1     -21.310  -6.586  -2.737  1.00  0.00    -0.027 C 
BRANCH  18  19
HETATM   19  C   UNL     1     -22.292  -6.285  -1.645  1.00  0.00     0.053 C 
BRANCH  19  20
HETATM   20  C   UNL     1     -22.393  -7.426  -0.680  1.00  0.00    -0.027 C 
HETATM   21  C   UNL     1     -21.343  -8.154  -0.265  1.00  0.00    -0.030 C 
BRANCH  21  22
HETATM   22  C   UNL     1     -21.454  -9.304   0.690  1.00  0.00     0.027 C 
BRANCH  22  23
HETATM   23  C   UNL     1     -21.561 -10.635  -0.056  1.00  0.00     0.004 C 
BRANCH  23  24
HETATM   24  C   UNL     1     -22.894 -11.321   0.242  1.00  0.00    -0.000 C 
BRANCH  24  25
HETATM   25  C   UNL     1     -23.849 -11.220  -0.946  1.00  0.00    -0.005 C 
HETATM   26  C   UNL     1     -23.091 -11.054  -2.253  1.00  0.00     0.005 C 
ENDBRANCH  24  25
ENDBRANCH  23  24
ENDBRANCH  22  23
ENDBRANCH  21  22
ENDBRANCH  19  20
ENDBRANCH  18  19
ENDBRANCH  16  17
ENDBRANCH   1  16
TORSDOF 17
ENDMDL
MODEL 2
REMARK VINA RESULT:      -6.9      1.396      2.051
REMARK  17 active torsions:
REMARK  status: ('A' for Active; 'I' for Inactive)
REMARK    1  A    between atoms: C_2  and  C_3 
REMARK    2  A    between atoms: C_3  and  C_4 
REMARK    3  A    between atoms: C_4  and  C_5 
REMARK    4  A    between atoms: C_5  and  C_6 
REMARK    5  A    between atoms: C_7  and  C_8 
REMARK    6  A    between atoms: C_8  and  C_9 
REMARK    7  A    between atoms: C_10  and  C_11 
REMARK    8  A    between atoms: C_11  and  C_12 
REMARK    9  A    between atoms: C_13  and  C_14 
REMARK   10  A    between atoms: C_15  and  C_16 
REMARK   11  A    between atoms: C_16  and  C_17 
REMARK   12  A    between atoms: C_16  and  O_23 
REMARK   13  A    between atoms: C_17  and  C_18 
REMARK   14  A    between atoms: C_18  and  C_19 
REMARK   15  A    between atoms: C_19  and  C_20 
REMARK   16  A    between atoms: C_20  and  O_22 
REMARK   17  A    between atoms: O_23  and  O_24 
ROOT
HETATM    1  C   UNL     1     -21.635  -5.542  -6.314  1.00  0.00    -0.023 C 
HETATM    2  C   UNL     1     -21.270  -4.346  -6.808  1.00  0.00    -0.004 C 
ENDROOT
BRANCH   2   3
HETATM    3  C   UNL     1     -21.829  -3.816  -8.026  1.00  0.00    -0.002 C 
HETATM    4  C   UNL     1     -23.100  -4.027  -8.401  1.00  0.00     0.008 C 
BRANCH   4   5
HETATM    5  C   UNL     1     -23.673  -3.503  -9.691  1.00  0.00     0.183 C 
BRANCH   5   6
HETATM    6  C   UNL     1     -22.660  -3.685 -10.831  1.00  0.00     0.040 C 
BRANCH   6   7
HETATM    7  C   UNL     1     -22.868  -2.743 -12.023  1.00  0.00     0.013 C 
BRANCH   7   8
HETATM    8  C   UNL     1     -23.431  -3.422 -13.276  1.00  0.00     0.110 C 
BRANCH   8   9
HETATM    9  C   UNL     1     -23.271  -2.530 -14.489  1.00  0.00     0.139 C 
HETATM   10  O   UNL     1     -23.986  -1.580 -14.766  1.00  0.00    -0.650 OA
BRANCH   9  11
HETATM   11  O   UNL     1     -22.227  -2.896 -15.267  1.00  0.00    -0.776 OA
HETATM   12  H   UNL     1     -22.447  -2.981 -16.212  1.00  0.00     0.167 HD
ENDBRANCH   9  11
ENDBRANCH   8   9
ENDBRANCH   7   8
ENDBRANCH   6   7
ENDBRANCH   5   6
BRANCH   5  13
HETATM   13  O   UNL     1     -24.861  -4.238 -10.015  1.00  0.00    -0.234 OA
BRANCH  13  14
HETATM   14  O   UNL     1     -25.988  -3.353  -9.740  1.00  0.00    -0.250 OA
HETATM   15  H   UNL     1     -26.538  -3.652 -10.486  1.00  0.00     0.253 HD
ENDBRANCH  13  14
ENDBRANCH   5  13
ENDBRANCH   4   5
ENDBRANCH   2   3
BRANCH   1  16
HETATM   16  C   UNL     1     -21.125  -6.093  -5.016  1.00  0.00     0.054 C 
BRANCH  16  17
HETATM   17  C   UNL     1     -21.356  -7.573  -4.923  1.00  0.00    -0.027 C 
HETATM   18  C   UNL     1     -21.191  -8.286  -3.796  1.00  0.00    -0.027 C 
BRANCH  18  19
HETATM   19  C   UNL     1     -21.381  -9.770  -3.708  1.00  0.00     0.053 C 
BRANCH  19  20
HETATM   20  C   UNL     1     -22.154 -10.143  -2.479  1.00  0.00    -0.027 C 
HETATM   21  C   UNL     1     -22.132  -9.439  -1.336  1.00  0.00    -0.030 C 
BRANCH  21  22
HETATM   22  C   UNL     1     -22.896  -9.827  -0.106  1.00  0.00     0.027 C 
BRANCH  22  23
HETATM   23  C   UNL     1     -23.263 -11.312  -0.127  1.00  0.00     0.004 C 
BRANCH  23  24
HETATM   24  C   UNL     1     -22.019 -12.182   0.058  1.00  0.00    -0.000 C 
BRANCH  24  25
HETATM   25  C   UNL     1     -22.070 -12.952   1.377  1.00  0.00    -0.005 C 
HETATM   26  C   UNL     1     -23.450 -13.537   1.624  1.00  0.00     0.005 C 
ENDBRANCH  24  25
ENDBRANCH  23  24
ENDBRANCH  22  23
ENDBRANCH  21  22
ENDBRANCH  19  20
ENDBRANCH  18  19
ENDBRANCH  16  17
ENDBRANCH   1  16
TORSDOF 17
ENDMDL
MODEL 3
REMARK VINA RESULT:      -6.9     12.427     14.821
REMARK  17 active torsions:
REMARK  status: ('A' for Active; 'I' for Inactive)
REMARK    1  A    between atoms: C_2  and  C_3 
REMARK    2  A    between atoms: C_3  and  C_4 
REMARK    3  A    between atoms: C_4  and  C_5 
REMARK    4  A    between atoms: C_5  and  C_6 
REMARK    5  A    between atoms: C_7  and  C_8 
REMARK    6  A    between atoms: C_8  and  C_9 
REMARK    7  A    between atoms: C_10  and  C_11 
REMARK    8  A    between atoms: C_11  and  C_12 
REMARK    9  A    between atoms: C_13  and  C_14 
REMARK   10  A    between atoms: C_15  and  C_16 
REMARK   11  A    between atoms: C_16  and  C_17 
REMARK   12  A    between atoms: C_16  and  O_23 
REMARK   13  A    between atoms: C_17  and  C_18 
REMARK   14  A    between atoms: C_18  and  C_19 
REMARK   15  A    between atoms: C_19  and  C_20 
REMARK   16  A    between atoms: C_20  and  O_22 
REMARK   17  A    between atoms: O_23  and  O_24 
ROOT
HETATM    1  C   UNL     1     -34.700  -2.638 -16.434  1.00  0.00    -0.023 C 
HETATM    2  C   UNL     1     -33.587  -3.046 -17.068  1.00  0.00    -0.004 C 
ENDROOT
BRANCH   2   3
HETATM    3  C   UNL     1     -32.904  -4.264 -16.713  1.00  0.00    -0.002 C 
HETATM    4  C   UNL     1     -31.592  -4.454 -16.921  1.00  0.00     0.008 C 
BRANCH   4   5
HETATM    5  C   UNL     1     -30.885  -5.741 -16.583  1.00  0.00     0.183 C 
BRANCH   5   6
HETATM    6  C   UNL     1     -30.503  -6.487 -17.871  1.00  0.00     0.040 C 
BRANCH   6   7
HETATM    7  C   UNL     1     -29.097  -7.100 -17.856  1.00  0.00     0.013 C 
BRANCH   7   8
HETATM    8  C   UNL     1     -28.044  -6.284 -18.614  1.00  0.00     0.110 C 
BRANCH   8   9
HETATM    9  C   UNL     1     -26.751  -6.215 -17.830  1.00  0.00     0.139 C 
HETATM   10  O   UNL     1     -25.638  -6.437 -18.281  1.00  0.00    -0.650 OA
BRANCH   9  11
HETATM   11  O   UNL     1     -26.947  -5.873 -16.536  1.00  0.00    -0.776 OA
HETATM   12  H   UNL     1     -26.543  -5.023 -16.284  1.00  0.00     0.167 HD
ENDBRANCH   9  11
ENDBRANCH   8   9
ENDBRANCH   7   8
ENDBRANCH   6   7
ENDBRANCH   5   6
BRANCH   5  13
HETATM   13  O   UNL     1     -29.686  -5.447 -15.854  1.00  0.00    -0.234 OA
BRANCH  13  14
HETATM   14  O   UNL     1     -30.030  -5.517 -14.439  1.00  0.00    -0.250 OA
HETATM   15  H   UNL     1     -29.855  -4.579 -14.243  1.00  0.00     0.253 HD
ENDBRANCH  13  14
ENDBRANCH   5  13
ENDBRANCH   4   5
ENDBRANCH   2   3
BRANCH   1  16
HETATM   16  C   UNL     1     -35.475  -1.414 -16.821  1.00  0.00     0.054 C 
BRANCH  16  17
HETATM   17  C   UNL     1     -35.722  -0.527 -15.636  1.00  0.00    -0.027 C 
HETATM   18  C   UNL     1     -34.761   0.183 -15.021  1.00  0.00    -0.027 C 
BRANCH  18  19
HETATM   19  C   UNL     1     -34.995   1.039 -13.813  1.00  0.00     0.053 C 
BRANCH  19  20
HETATM   20  C   UNL     1     -35.128   0.203 -12.576  1.00  0.00    -0.027 C 
HETATM   21  C   UNL     1     -34.727  -1.075 -12.487  1.00  0.00    -0.030 C 
BRANCH  21  22
HETATM   22  C   UNL     1     -34.877  -1.910 -11.250  1.00  0.00     0.027 C 
BRANCH  22  23
HETATM   23  C   UNL     1     -33.515  -2.346 -10.708  1.00  0.00     0.004 C 
BRANCH  23  24
HETATM   24  C   UNL     1     -32.940  -3.492 -11.540  1.00  0.00    -0.000 C 
BRANCH  24  25
HETATM   25  C   UNL     1     -33.976  -4.592 -11.763  1.00  0.00    -0.005 C 
HETATM   26  C   UNL     1     -34.154  -5.446 -10.517  1.00  0.00     0.005 C 
ENDBRANCH  24  25
ENDBRANCH  23  24
ENDBRANCH  22  23
ENDBRANCH  21  22
ENDBRANCH  19  20
ENDBRANCH  18  19
ENDBRANCH  16  17
ENDBRANCH   1  16
TORSDOF 17
ENDMDL
MODEL 4
REMARK VINA RESULT:      -6.6      2.043      4.069
REMARK  17 active torsions:
REMARK  status: ('A' for Active; 'I' for Inactive)
REMARK    1  A    between atoms: C_2  and  C_3 
REMARK    2  A    between atoms: C_3  and  C_4 
REMARK    3  A    between atoms: C_4  and  C_5 
REMARK    4  A    between atoms: C_5  and  C_6 
REMARK    5  A    between atoms: C_7  and  C_8 
REMARK    6  A    between atoms: C_8  and  C_9 
REMARK    7  A    between atoms: C_10  and  C_11 
REMARK    8  A    between atoms: C_11  and  C_12 
REMARK    9  A    between atoms: C_13  and  C_14 
REMARK   10  A    between atoms: C_15  and  C_16 
REMARK   11  A    between atoms: C_16  and  C_17 
REMARK   12  A    between atoms: C_16  and  O_23 
REMARK   13  A    between atoms: C_17  and  C_18 
REMARK   14  A    between atoms: C_18  and  C_19 
REMARK   15  A    between atoms: C_19  and  C_20 
REMARK   16  A    between atoms: C_20  and  O_22 
REMARK   17  A    between atoms: O_23  and  O_24 
ROOT
HETATM    1  C   UNL     1     -22.042  -6.407  -2.404  1.00  0.00    -0.023 C 
HETATM    2  C   UNL     1     -21.233  -7.177  -3.152  1.00  0.00    -0.004 C 
ENDROOT
BRANCH   2   3
HETATM    3  C   UNL     1     -20.829  -6.800  -4.483  1.00  0.00    -0.002 C 
HETATM    4  C   UNL     1     -21.185  -5.640  -5.055  1.00  0.00     0.008 C 
BRANCH   4   5
HETATM    5  C   UNL     1     -20.792  -5.263  -6.460  1.00  0.00     0.183 C 
BRANCH   5   6
HETATM    6  C   UNL     1     -21.585  -4.030  -6.916  1.00  0.00     0.040 C 
BRANCH   6   7
HETATM    7  C   UNL     1     -22.883  -4.351  -7.667  1.00  0.00     0.013 C 
BRANCH   7   8
HETATM    8  C   UNL     1     -23.056  -3.590  -8.985  1.00  0.00     0.110 C 
BRANCH   8   9
HETATM    9  C   UNL     1     -24.217  -4.149  -9.780  1.00  0.00     0.139 C 
HETATM   10  O   UNL     1     -24.186  -5.164 -10.459  1.00  0.00    -0.650 OA
BRANCH   9  11
HETATM   11  O   UNL     1     -25.333  -3.393  -9.668  1.00  0.00    -0.776 OA
HETATM   12  H   UNL     1     -25.886  -3.613  -8.896  1.00  0.00     0.167 HD
ENDBRANCH   9  11
ENDBRANCH   8   9
ENDBRANCH   7   8
ENDBRANCH   6   7
ENDBRANCH   5   6
BRANCH   5  13
HETATM   13  O   UNL     1     -19.394  -4.943  -6.491  1.00  0.00    -0.234 OA
BRANCH  13  14
HETATM   14  O   UNL     1     -19.130  -4.353  -7.798  1.00  0.00    -0.250 OA
HETATM   15  H   UNL     1     -18.403  -4.955  -8.039  1.00  0.00     0.253 HD
ENDBRANCH  13  14
ENDBRANCH   5  13
ENDBRANCH   4   5
ENDBRANCH   2   3
BRANCH   1  16
HETATM   16  C   UNL     1     -22.428  -6.734  -0.992  1.00  0.00     0.054 C 
BRANCH  16  17
HETATM   17  C   UNL     1     -21.495  -7.745  -0.391  1.00  0.00    -0.027 C 
HETATM   18  C   UNL     1     -21.617  -8.223   0.858  1.00  0.00    -0.027 C 
BRANCH  18  19
HETATM   19  C   UNL     1     -20.666  -9.203   1.477  1.00  0.00     0.053 C 
BRANCH  19  20
HETATM   20  C   UNL     1     -20.895 -10.586   0.949  1.00  0.00    -0.027 C 
HETATM   21  C   UNL     1     -20.424 -11.028  -0.228  1.00  0.00    -0.030 C 
BRANCH  21  22
HETATM   22  C   UNL     1     -20.671 -12.410  -0.757  1.00  0.00     0.027 C 
BRANCH  22  23
HETATM   23  C   UNL     1     -21.468 -12.370  -2.061  1.00  0.00     0.004 C 
BRANCH  23  24
HETATM   24  C   UNL     1     -22.512 -11.254  -2.027  1.00  0.00    -0.000 C 
BRANCH  24  25
HETATM   25  C   UNL     1     -23.804 -11.720  -1.359  1.00  0.00    -0.005 C 
HETATM   26  C   UNL     1     -24.171 -10.831  -0.182  1.00  0.00     0.005 C 
ENDBRANCH  24  25
ENDBRANCH  23  24
ENDBRANCH  22  23
ENDBRANCH  21  22
ENDBRANCH  19  20
ENDBRANCH  18  19
ENDBRANCH  16  17
ENDBRANCH   1  16
TORSDOF 17
ENDMDL
MODEL 5
REMARK VINA RESULT:      -6.5      3.558      4.842
REMARK  17 active torsions:
REMARK  status: ('A' for Active; 'I' for Inactive)
REMARK    1  A    between atoms: C_2  and  C_3 
REMARK    2  A    between atoms: C_3  and  C_4 
REMARK    3  A    between atoms: C_4  and  C_5 
REMARK    4  A    between atoms: C_5  and  C_6 
REMARK    5  A    between atoms: C_7  and  C_8 
REMARK    6  A    between atoms: C_8  and  C_9 
REMARK    7  A    between atoms: C_10  and  C_11 
REMARK    8  A    between atoms: C_11  and  C_12 
REMARK    9  A    between atoms: C_13  and  C_14 
REMARK   10  A    between atoms: C_15  and  C_16 
REMARK   11  A    between atoms: C_16  and  C_17 
REMARK   12  A    between atoms: C_16  and  O_23 
REMARK   13  A    between atoms: C_17  and  C_18 
REMARK   14  A    between atoms: C_18  and  C_19 
REMARK   15  A    between atoms: C_19  and  C_20 
REMARK   16  A    between atoms: C_20  and  O_22 
REMARK   17  A    between atoms: O_23  and  O_24 
ROOT
HETATM    1  C   UNL     1     -22.005  -6.442  -4.757  1.00  0.00    -0.023 C 
HETATM    2  C   UNL     1     -21.028  -5.923  -5.520  1.00  0.00    -0.004 C 
ENDROOT
BRANCH   2   3
HETATM    3  C   UNL     1     -21.139  -5.833  -6.954  1.00  0.00    -0.002 C 
HETATM    4  C   UNL     1     -21.674  -4.773  -7.581  1.00  0.00     0.008 C 
BRANCH   4   5
HETATM    5  C   UNL     1     -21.823  -4.696  -9.078  1.00  0.00     0.183 C 
BRANCH   5   6
HETATM    6  C   UNL     1     -23.152  -4.017  -9.441  1.00  0.00     0.040 C 
BRANCH   6   7
HETATM    7  C   UNL     1     -23.605  -4.242 -10.890  1.00  0.00     0.013 C 
BRANCH   7   8
HETATM    8  C   UNL     1     -23.640  -2.971 -11.745  1.00  0.00     0.110 C 
BRANCH   8   9
HETATM    9  C   UNL     1     -22.727  -3.106 -12.945  1.00  0.00     0.139 C 
HETATM   10  O   UNL     1     -22.965  -2.683 -14.066  1.00  0.00    -0.650 OA
BRANCH   9  11
HETATM   11  O   UNL     1     -21.581  -3.763 -12.654  1.00  0.00    -0.776 OA
HETATM   12  H   UNL     1     -21.315  -3.701 -11.719  1.00  0.00     0.167 HD
ENDBRANCH   9  11
ENDBRANCH   8   9
ENDBRANCH   7   8
ENDBRANCH   6   7
ENDBRANCH   5   6
BRANCH   5  13
HETATM   13  O   UNL     1     -20.749  -3.915  -9.622  1.00  0.00    -0.234 OA
BRANCH  13  14
HETATM   14  O   UNL     1     -19.984  -4.804 -10.488  1.00  0.00    -0.250 OA
HETATM   15  H   UNL     1     -20.339  -5.634 -10.124  1.00  0.00     0.253 HD
ENDBRANCH  13  14
ENDBRANCH   5  13
ENDBRANCH   4   5
ENDBRANCH   2   3
BRANCH   1  16
HETATM   16  C   UNL     1     -21.952  -6.489  -3.259  1.00  0.00     0.054 C 
BRANCH  16  17
HETATM   17  C   UNL     1     -20.730  -7.216  -2.778  1.00  0.00    -0.027 C 
HETATM   18  C   UNL     1     -20.472  -8.506  -3.053  1.00  0.00    -0.027 C 
BRANCH  18  19
HETATM   19  C   UNL     1     -19.273  -9.247  -2.542  1.00  0.00     0.053 C 
BRANCH  19  20
HETATM   20  C   UNL     1     -18.319  -9.562  -3.653  1.00  0.00    -0.027 C 
HETATM   21  C   UNL     1     -18.592  -9.371  -4.954  1.00  0.00    -0.030 C 
BRANCH  21  22
HETATM   22  C   UNL     1     -17.637  -9.702  -6.062  1.00  0.00     0.027 C 
BRANCH  22  23
HETATM   23  C   UNL     1     -16.210  -9.857  -5.534  1.00  0.00     0.004 C 
BRANCH  23  24
HETATM   24  C   UNL     1     -15.546 -11.104  -6.117  1.00  0.00    -0.000 C 
BRANCH  24  25
HETATM   25  C   UNL     1     -15.223 -12.124  -5.027  1.00  0.00    -0.005 C 
HETATM   26  C   UNL     1     -15.200 -11.476  -3.652  1.00  0.00     0.005 C 
ENDBRANCH  24  25
ENDBRANCH  23  24
ENDBRANCH  22  23
ENDBRANCH  21  22
ENDBRANCH  19  20
ENDBRANCH  18  19
ENDBRANCH  16  17
ENDBRANCH   1  16
TORSDOF 17
ENDMDL
MODEL 6
REMARK VINA RESULT:      -6.3     11.755     14.935
REMARK  17 active torsions:
REMARK  status: ('A' for Active; 'I' for Inactive)
REMARK    1  A    between atoms: C_2  and  C_3 
REMARK    2  A    between atoms: C_3  and  C_4 
REMARK    3  A    between atoms: C_4  and  C_5 
REMARK    4  A    between atoms: C_5  and  C_6 
REMARK    5  A    between atoms: C_7  and  C_8 
REMARK    6  A    between atoms: C_8  and  C_9 
REMARK    7  A    between atoms: C_10  and  C_11 
REMARK    8  A    between atoms: C_11  and  C_12 
REMARK    9  A    between atoms: C_13  and  C_14 
REMARK   10  A    between atoms: C_15  and  C_16 
REMARK   11  A    between atoms: C_16  and  C_17 
REMARK   12  A    between atoms: C_16  and  O_23 
REMARK   13  A    between atoms: C_17  and  C_18 
REMARK   14  A    between atoms: C_18  and  C_19 
REMARK   15  A    between atoms: C_19  and  C_20 
REMARK   16  A    between atoms: C_20  and  O_22 
REMARK   17  A    between atoms: O_23  and  O_24 
ROOT
HETATM    1  C   UNL     1     -33.229  -3.224 -17.062  1.00  0.00    -0.023 C 
HETATM    2  C   UNL     1     -32.940  -4.519 -16.851  1.00  0.00    -0.004 C 
ENDROOT
BRANCH   2   3
HETATM    3  C   UNL     1     -31.583  -5.004 -16.799  1.00  0.00    -0.002 C 
HETATM    4  C   UNL     1     -31.195  -6.156 -17.369  1.00  0.00     0.008 C 
BRANCH   4   5
HETATM    5  C   UNL     1     -29.785  -6.680 -17.283  1.00  0.00     0.183 C 
BRANCH   5   6
HETATM    6  C   UNL     1     -29.271  -6.575 -15.840  1.00  0.00     0.040 C 
BRANCH   6   7
HETATM    7  C   UNL     1     -27.827  -7.055 -15.643  1.00  0.00     0.013 C 
BRANCH   7   8
HETATM    8  C   UNL     1     -26.811  -6.402 -16.585  1.00  0.00     0.110 C 
BRANCH   8   9
HETATM    9  C   UNL     1     -25.397  -6.782 -16.197  1.00  0.00     0.139 C 
HETATM   10  O   UNL     1     -25.066  -7.277 -15.131  1.00  0.00    -0.650 OA
BRANCH   9  11
HETATM   11  O   UNL     1     -24.501  -6.513 -17.174  1.00  0.00    -0.776 OA
HETATM   12  H   UNL     1     -24.885  -6.489 -18.069  1.00  0.00     0.167 HD
ENDBRANCH   9  11
ENDBRANCH   8   9
ENDBRANCH   7   8
ENDBRANCH   6   7
ENDBRANCH   5   6
BRANCH   5  13
HETATM   13  O   UNL     1     -29.768  -8.060 -17.674  1.00  0.00    -0.234 OA
BRANCH  13  14
HETATM   14  O   UNL     1     -30.554  -8.157 -18.898  1.00  0.00    -0.250 OA
HETATM   15  H   UNL     1     -29.802  -8.337 -19.490  1.00  0.00     0.253 HD
ENDBRANCH  13  14
ENDBRANCH   5  13
ENDBRANCH   4   5
ENDBRANCH   2   3
BRANCH   1  16
HETATM   16  C   UNL     1     -34.624  -2.673 -17.055  1.00  0.00     0.054 C 
BRANCH  16  17
HETATM   17  C   UNL     1     -34.677  -1.328 -16.392  1.00  0.00    -0.027 C 
HETATM   18  C   UNL     1     -35.620  -0.969 -15.505  1.00  0.00    -0.027 C 
BRANCH  18  19
HETATM   19  C   UNL     1     -35.701   0.387 -14.870  1.00  0.00     0.053 C 
BRANCH  19  20
HETATM   20  C   UNL     1     -35.617   0.291 -13.377  1.00  0.00    -0.027 C 
HETATM   21  C   UNL     1     -35.602  -0.869 -12.699  1.00  0.00    -0.030 C 
BRANCH  21  22
HETATM   22  C   UNL     1     -35.532  -0.956 -11.204  1.00  0.00     0.027 C 
BRANCH  22  23
HETATM   23  C   UNL     1     -34.544  -2.035 -10.758  1.00  0.00     0.004 C 
BRANCH  23  24
HETATM   24  C   UNL     1     -33.929  -2.743 -11.965  1.00  0.00    -0.000 C 
BRANCH  24  25
HETATM   25  C   UNL     1     -32.899  -3.785 -11.533  1.00  0.00    -0.005 C 
HETATM   26  C   UNL     1     -33.531  -5.160 -11.388  1.00  0.00     0.005 C 
ENDBRANCH  24  25
ENDBRANCH  23  24
ENDBRANCH  22  23
ENDBRANCH  21  22
ENDBRANCH  19  20
ENDBRANCH  18  19
ENDBRANCH  16  17
ENDBRANCH   1  16
TORSDOF 17
ENDMDL
MODEL 7
REMARK VINA RESULT:      -6.2      2.162      3.561
REMARK  17 active torsions:
REMARK  status: ('A' for Active; 'I' for Inactive)
REMARK    1  A    between atoms: C_2  and  C_3 
REMARK    2  A    between atoms: C_3  and  C_4 
REMARK    3  A    between atoms: C_4  and  C_5 
REMARK    4  A    between atoms: C_5  and  C_6 
REMARK    5  A    between atoms: C_7  and  C_8 
REMARK    6  A    between atoms: C_8  and  C_9 
REMARK    7  A    between atoms: C_10  and  C_11 
REMARK    8  A    between atoms: C_11  and  C_12 
REMARK    9  A    between atoms: C_13  and  C_14 
REMARK   10  A    between atoms: C_15  and  C_16 
REMARK   11  A    between atoms: C_16  and  C_17 
REMARK   12  A    between atoms: C_16  and  O_23 
REMARK   13  A    between atoms: C_17  and  C_18 
REMARK   14  A    between atoms: C_18  and  C_19 
REMARK   15  A    between atoms: C_19  and  C_20 
REMARK   16  A    between atoms: C_20  and  O_22 
REMARK   17  A    between atoms: O_23  and  O_24 
ROOT
HETATM    1  C   UNL     1     -21.184  -6.204  -4.177  1.00  0.00    -0.023 C 
HETATM    2  C   UNL     1     -22.091  -6.203  -5.169  1.00  0.00    -0.004 C 
ENDROOT
BRANCH   2   3
HETATM    3  C   UNL     1     -21.793  -5.690  -6.482  1.00  0.00    -0.002 C 
HETATM    4  C   UNL     1     -20.576  -5.773  -7.041  1.00  0.00     0.008 C 
BRANCH   4   5
HETATM    5  C   UNL     1     -20.256  -5.204  -8.399  1.00  0.00     0.183 C 
BRANCH   5   6
HETATM    6  C   UNL     1     -21.541  -5.065  -9.228  1.00  0.00     0.040 C 
BRANCH   6   7
HETATM    7  C   UNL     1     -22.174  -3.668  -9.191  1.00  0.00     0.013 C 
BRANCH   7   8
HETATM    8  C   UNL     1     -23.660  -3.658  -8.820  1.00  0.00     0.110 C 
BRANCH   8   9
HETATM    9  C   UNL     1     -24.512  -3.311 -10.023  1.00  0.00     0.139 C 
HETATM   10  O   UNL     1     -25.733  -3.262 -10.034  1.00  0.00    -0.650 OA
BRANCH   9  11
HETATM   11  O   UNL     1     -23.772  -3.052 -11.125  1.00  0.00    -0.776 OA
HETATM   12  H   UNL     1     -24.288  -2.712 -11.878  1.00  0.00     0.167 HD
ENDBRANCH   9  11
ENDBRANCH   8   9
ENDBRANCH   7   8
ENDBRANCH   6   7
ENDBRANCH   5   6
BRANCH   5  13
HETATM   13  O   UNL     1     -19.672  -3.903  -8.243  1.00  0.00    -0.234 OA
BRANCH  13  14
HETATM   14  O   UNL     1     -18.431  -4.090  -7.500  1.00  0.00    -0.250 OA
HETATM   15  H   UNL     1     -18.835  -4.060  -6.614  1.00  0.00     0.253 HD
ENDBRANCH  13  14
ENDBRANCH   5  13
ENDBRANCH   4   5
ENDBRANCH   2   3
BRANCH   1  16
HETATM   16  C   UNL     1     -21.437  -6.791  -2.820  1.00  0.00     0.054 C 
BRANCH  16  17
HETATM   17  C   UNL     1     -21.187  -8.270  -2.809  1.00  0.00    -0.027 C 
HETATM   18  C   UNL     1     -21.516  -9.091  -3.820  1.00  0.00    -0.027 C 
BRANCH  18  19
HETATM   19  C   UNL     1     -21.304 -10.575  -3.798  1.00  0.00     0.053 C 
BRANCH  19  20
HETATM   20  C   UNL     1     -21.971 -11.198  -2.609  1.00  0.00    -0.027 C 
HETATM   21  C   UNL     1     -23.269 -11.036  -2.306  1.00  0.00    -0.030 C 
BRANCH  21  22
HETATM   22  C   UNL     1     -23.926 -11.651  -1.106  1.00  0.00     0.027 C 
BRANCH  22  23
HETATM   23  C   UNL     1     -23.447 -10.989   0.187  1.00  0.00     0.004 C 
BRANCH  23  24
HETATM   24  C   UNL     1     -23.506  -9.466   0.073  1.00  0.00    -0.000 C 
BRANCH  24  25
HETATM   25  C   UNL     1     -22.235  -8.818   0.620  1.00  0.00    -0.005 C 
HETATM   26  C   UNL     1     -21.085  -9.810   0.669  1.00  0.00     0.005 C 
ENDBRANCH  24  25
ENDBRANCH  23  24
ENDBRANCH  22  23
ENDBRANCH  21  22
ENDBRANCH  19  20
ENDBRANCH  18  19
ENDBRANCH  16  17
ENDBRANCH   1  16
TORSDOF 17
ENDMDL
MODEL 8
REMARK VINA RESULT:      -6.0      2.316      3.640
REMARK  17 active torsions:
REMARK  status: ('A' for Active; 'I' for Inactive)
REMARK    1  A    between atoms: C_2  and  C_3 
REMARK    2  A    between atoms: C_3  and  C_4 
REMARK    3  A    between atoms: C_4  and  C_5 
REMARK    4  A    between atoms: C_5  and  C_6 
REMARK    5  A    between atoms: C_7  and  C_8 
REMARK    6  A    between atoms: C_8  and  C_9 
REMARK    7  A    between atoms: C_10  and  C_11 
REMARK    8  A    between atoms: C_11  and  C_12 
REMARK    9  A    between atoms: C_13  and  C_14 
REMARK   10  A    between atoms: C_15  and  C_16 
REMARK   11  A    between atoms: C_16  and  C_17 
REMARK   12  A    between atoms: C_16  and  O_23 
REMARK   13  A    between atoms: C_17  and  C_18 
REMARK   14  A    between atoms: C_18  and  C_19 
REMARK   15  A    between atoms: C_19  and  C_20 
REMARK   16  A    between atoms: C_20  and  O_22 
REMARK   17  A    between atoms: O_23  and  O_24 
ROOT
HETATM    1  C   UNL     1     -21.487  -7.967  -4.053  1.00  0.00    -0.023 C 
HETATM    2  C   UNL     1     -21.172  -7.915  -5.359  1.00  0.00    -0.004 C 
ENDROOT
BRANCH   2   3
HETATM    3  C   UNL     1     -20.562  -6.753  -5.956  1.00  0.00    -0.002 C 
HETATM    4  C   UNL     1     -21.226  -5.605  -6.167  1.00  0.00     0.008 C 
BRANCH   4   5
HETATM    5  C   UNL     1     -20.598  -4.403  -6.824  1.00  0.00     0.183 C 
BRANCH   5   6
HETATM    6  C   UNL     1     -19.907  -4.818  -8.131  1.00  0.00     0.040 C 
BRANCH   6   7
HETATM    7  C   UNL     1     -20.098  -3.833  -9.291  1.00  0.00     0.013 C 
BRANCH   7   8
HETATM    8  C   UNL     1     -20.452  -4.492 -10.628  1.00  0.00     0.110 C 
BRANCH   8   9
HETATM    9  C   UNL     1     -21.881  -4.178 -11.020  1.00  0.00     0.139 C 
HETATM   10  O   UNL     1     -22.750  -3.775 -10.263  1.00  0.00    -0.650 OA
BRANCH   9  11
HETATM   11  O   UNL     1     -22.117  -4.394 -12.334  1.00  0.00    -0.776 OA
HETATM   12  H   UNL     1     -21.347  -4.231 -12.908  1.00  0.00     0.167 HD
ENDBRANCH   9  11
ENDBRANCH   8   9
ENDBRANCH   7   8
ENDBRANCH   6   7
ENDBRANCH   5   6
BRANCH   5  13
HETATM   13  O   UNL     1     -21.619  -3.445  -7.132  1.00  0.00    -0.234 OA
BRANCH  13  14
HETATM   14  O   UNL     1     -22.864  -4.191  -7.270  1.00  0.00    -0.250 OA
HETATM   15  H   UNL     1     -22.769  -4.376  -8.222  1.00  0.00     0.253 HD
ENDBRANCH  13  14
ENDBRANCH   5  13
ENDBRANCH   4   5
ENDBRANCH   2   3
BRANCH   1  16
HETATM   16  C   UNL     1     -22.059  -9.182  -3.386  1.00  0.00     0.054 C 
BRANCH  16  17
HETATM   17  C   UNL     1     -21.156  -9.682  -2.296  1.00  0.00    -0.027 C 
HETATM   18  C   UNL     1     -20.100 -10.484  -2.510  1.00  0.00    -0.027 C 
BRANCH  18  19
HETATM   19  C   UNL     1     -19.219 -11.018  -1.421  1.00  0.00     0.053 C 
BRANCH  19  20
HETATM   20  C   UNL     1     -20.032 -11.620  -0.315  1.00  0.00    -0.027 C 
HETATM   21  C   UNL     1     -20.558 -12.855  -0.357  1.00  0.00    -0.030 C 
BRANCH  21  22
HETATM   22  C   UNL     1     -21.383 -13.445   0.748  1.00  0.00     0.027 C 
BRANCH  22  23
HETATM   23  C   UNL     1     -22.711 -12.702   0.905  1.00  0.00     0.004 C 
BRANCH  23  24
HETATM   24  C   UNL     1     -23.629 -12.970  -0.287  1.00  0.00    -0.000 C 
BRANCH  24  25
HETATM   25  C   UNL     1     -24.028 -11.671  -0.985  1.00  0.00    -0.005 C 
HETATM   26  C   UNL     1     -23.946 -10.485  -0.038  1.00  0.00     0.005 C 
ENDBRANCH  24  25
ENDBRANCH  23  24
ENDBRANCH  22  23
ENDBRANCH  21  22
ENDBRANCH  19  20
ENDBRANCH  18  19
ENDBRANCH  16  17
ENDBRANCH   1  16
TORSDOF 17
ENDMDL
MODEL 9
REMARK VINA RESULT:      -5.9     13.496     17.719
REMARK  17 active torsions:
REMARK  status: ('A' for Active; 'I' for Inactive)
REMARK    1  A    between atoms: C_2  and  C_3 
REMARK    2  A    between atoms: C_3  and  C_4 
REMARK    3  A    between atoms: C_4  and  C_5 
REMARK    4  A    between atoms: C_5  and  C_6 
REMARK    5  A    between atoms: C_7  and  C_8 
REMARK    6  A    between atoms: C_8  and  C_9 
REMARK    7  A    between atoms: C_10  and  C_11 
REMARK    8  A    between atoms: C_11  and  C_12 
REMARK    9  A    between atoms: C_13  and  C_14 
REMARK   10  A    between atoms: C_15  and  C_16 
REMARK   11  A    between atoms: C_16  and  C_17 
REMARK   12  A    between atoms: C_16  and  O_23 
REMARK   13  A    between atoms: C_17  and  C_18 
REMARK   14  A    between atoms: C_18  and  C_19 
REMARK   15  A    between atoms: C_19  and  C_20 
REMARK   16  A    between atoms: C_20  and  O_22 
REMARK   17  A    between atoms: O_23  and  O_24 
ROOT
HETATM    1  C   UNL     1     -25.716   5.580  -8.129  1.00  0.00    -0.023 C 
HETATM    2  C   UNL     1     -25.967   6.653  -7.359  1.00  0.00    -0.004 C 
ENDROOT
BRANCH   2   3
HETATM    3  C   UNL     1     -25.641   6.683  -5.955  1.00  0.00    -0.002 C 
HETATM    4  C   UNL     1     -26.528   7.018  -5.005  1.00  0.00     0.008 C 
BRANCH   4   5
HETATM    5  C   UNL     1     -26.177   7.084  -3.542  1.00  0.00     0.183 C 
BRANCH   5   6
HETATM    6  C   UNL     1     -24.666   6.886  -3.352  1.00  0.00     0.040 C 
BRANCH   6   7
HETATM    7  C   UNL     1     -24.281   6.105  -2.089  1.00  0.00     0.013 C 
BRANCH   7   8
HETATM    8  C   UNL     1     -23.194   6.773  -1.240  1.00  0.00     0.110 C 
BRANCH   8   9
HETATM    9  C   UNL     1     -23.800   7.773  -0.279  1.00  0.00     0.139 C 
HETATM   10  O   UNL     1     -24.990   8.029  -0.183  1.00  0.00    -0.650 OA
BRANCH   9  11
HETATM   11  O   UNL     1     -22.870   8.381   0.492  1.00  0.00    -0.776 OA
HETATM   12  H   UNL     1     -23.030   9.331   0.632  1.00  0.00     0.167 HD
ENDBRANCH   9  11
ENDBRANCH   8   9
ENDBRANCH   7   8
ENDBRANCH   6   7
ENDBRANCH   5   6
BRANCH   5  13
HETATM   13  O   UNL     1     -26.535   8.374  -3.026  1.00  0.00    -0.234 OA
BRANCH  13  14
HETATM   14  O   UNL     1     -25.330   9.193  -3.077  1.00  0.00    -0.250 OA
HETATM   15  H   UNL     1     -25.778  10.021  -3.327  1.00  0.00     0.253 HD
ENDBRANCH  13  14
ENDBRANCH   5  13
ENDBRANCH   4   5
ENDBRANCH   2   3
BRANCH   1  16
HETATM   16  C   UNL     1     -25.978   5.539  -9.605  1.00  0.00     0.054 C 
BRANCH  16  17
HETATM   17  C   UNL     1     -25.572   6.822 -10.268  1.00  0.00    -0.027 C 
HETATM   18  C   UNL     1     -24.610   6.909 -11.202  1.00  0.00    -0.027 C 
BRANCH  18  19
HETATM   19  C   UNL     1     -24.173   8.194 -11.839  1.00  0.00     0.053 C 
BRANCH  19  20
HETATM   20  C   UNL     1     -25.095   9.318 -11.475  1.00  0.00    -0.027 C 
HETATM   21  C   UNL     1     -25.008  10.556 -11.988  1.00  0.00    -0.030 C 
BRANCH  21  22
HETATM   22  C   UNL     1     -25.926  11.679 -11.607  1.00  0.00     0.027 C 
BRANCH  22  23
HETATM   23  C   UNL     1     -27.237  11.150 -11.023  1.00  0.00     0.004 C 
BRANCH  23  24
HETATM   24  C   UNL     1     -27.486  11.731  -9.631  1.00  0.00    -0.000 C 
BRANCH  24  25
HETATM   25  C   UNL     1     -26.250  11.598  -8.743  1.00  0.00    -0.005 C 
HETATM   26  C   UNL     1     -26.220  10.254  -8.034  1.00  0.00     0.005 C 
ENDBRANCH  24  25
ENDBRANCH  23  24
ENDBRANCH  22  23
ENDBRANCH  21  22
ENDBRANCH  19  20
ENDBRANCH  18  19
ENDBRANCH  16  17
ENDBRANCH   1  16
TORSDOF 17
ENDMDL
