REMARK  5 active torsions:
REMARK  status: ('A' for Active; 'I' for Inactive)
REMARK       I    between atoms: C_2  and  N_4 
REMARK    1  A    between atoms: N_4  and  C_5 
REMARK    2  A    between atoms: C_9  and  O_10 
REMARK    3  A    between atoms: O_10  and  C_11 
REMARK    4  A    between atoms: C_13  and  C_14 
REMARK    5  A    between atoms: C_17  and  C_18 
ROOT
HETATM    1  C   UNL     1       8.500   3.189  -3.882  1.00  0.00     0.151 A 
HETATM    2  C   UNL     1       9.336   2.505  -4.735  1.00  0.00     0.086 A 
HETATM    3  C   UNL     1      10.421   3.218  -5.217  1.00  0.00     0.047 A 
HETATM    4  N   UNL     1      10.613   4.524  -4.926  1.00  0.00    -0.352 N 
ATOM      5  HN  UNL     1      11.422   5.040  -5.273  1.00  0.00     0.166 HD
HETATM    6  C   UNL     1       9.684   5.100  -4.159  1.00  0.00     0.182 A 
HETATM    7  N   UNL     1       8.632   4.503  -3.620  1.00  0.00    -0.333 N 
ATOM      8  HN  UNL     1       7.962   5.009  -3.041  1.00  0.00     0.168 HD
ENDROOT
BRANCH   1   9
HETATM    9  O   UNL     1       7.487   2.494  -3.243  1.00  0.00    -0.291 OA
BRANCH   9  10
HETATM   10  C   UNL     1       7.070   2.957  -2.000  1.00  0.00     0.105 A 
HETATM   11  C   UNL     1       5.720   2.760  -1.615  1.00  0.00     0.085 A 
HETATM   12  N   UNL     1       4.698   2.170  -2.369  1.00  0.00    -0.333 N 
HETATM   13  C   UNL     1       5.314   3.225  -0.360  1.00  0.00     0.038 A 
HETATM   14  C   UNL     1       3.557   2.322  -1.746  1.00  0.00     0.152 C 
ATOM     15  HN  UNL     1       4.823   1.696  -3.264  1.00  0.00     0.168 HD
HETATM   16  S   UNL     1       3.641   2.958  -0.170  1.00  0.00    -0.052 SA
HETATM   17  C   UNL     1       6.188   3.824   0.556  1.00  0.00     0.021 A 
HETATM   18  C   UNL     1       7.507   4.008   0.172  1.00  0.00     0.004 A 
HETATM   19  C   UNL     1       7.939   3.595  -1.084  1.00  0.00     0.040 A 
BRANCH  14  20
HETATM   20  N   UNL     1       2.348   1.955  -2.293  1.00  0.00    -0.307 N 
HETATM   21  C   UNL     1       1.136   2.455  -1.877  1.00  0.00     0.219 C 
HETATM   22  C   UNL     1      -0.035   1.889  -2.615  1.00  0.00     0.117 C 
HETATM   23  O   UNL     1       0.951   3.316  -1.006  1.00  0.00    -0.274 OA
HETATM   24  H   UNL     1       2.417   1.549  -3.218  1.00  0.00     0.171 HD
ENDBRANCH  14  20
ENDBRANCH   9  10
ENDBRANCH   1   9
BRANCH   3  25
HETATM   25  C   UNL     1      11.480   2.576  -6.020  1.00  0.00    -0.009 A 
HETATM   26  C   UNL     1      11.194   1.484  -6.853  1.00  0.00     0.014 A 
HETATM   27  C   UNL     1      12.201   0.833  -7.564  1.00  0.00     0.017 A 
HETATM   28  C   UNL     1      13.533   1.258  -7.463  1.00  0.00     0.048 A 
HETATM   29  C   UNL     1      13.828   2.361  -6.652  1.00  0.00     0.017 A 
HETATM   30  C   UNL     1      12.816   3.013  -5.943  1.00  0.00     0.014 A 
BRANCH  28  31
HETATM   31  C   UNL     1      14.628   0.547  -8.215  1.00  0.00     0.417 C 
HETATM   32  F   UNL     1      14.177  -0.505  -8.954  1.00  0.00    -0.166 F 
HETATM   33  F   UNL     1      15.277   1.365  -9.089  1.00  0.00    -0.166 F 
HETATM   34  F   UNL     1      15.589   0.039  -7.395  1.00  0.00    -0.166 F 
ENDBRANCH  28  31
ENDBRANCH   3  25
TORSDOF 5
