MODEL 1
REMARK VINA RESULT:     -10.6      0.000      0.000
REMARK  5 active torsions:
REMARK  status: ('A' for Active; 'I' for Inactive)
REMARK       I    between atoms: C_2  and  N_4 
REMARK    1  A    between atoms: N_4  and  C_5 
REMARK    2  A    between atoms: C_9  and  O_10 
REMARK    3  A    between atoms: O_10  and  C_11 
REMARK    4  A    between atoms: C_13  and  C_14 
REMARK    5  A    between atoms: C_17  and  C_18 
ROOT
HETATM    1  C   UNL     1     -21.786  -5.467  -5.941  1.00  0.00     0.151 A 
HETATM    2  C   UNL     1     -22.367  -5.018  -7.105  1.00  0.00     0.086 A 
HETATM    3  C   UNL     1     -21.511  -4.423  -8.016  1.00  0.00     0.047 A 
HETATM    4  N   UNL     1     -20.199  -4.230  -7.754  1.00  0.00    -0.352 N 
ATOM      5  HN  UNL     1     -19.570  -3.803  -8.435  1.00  0.00     0.166 HD
HETATM    6  C   UNL     1     -19.773  -4.630  -6.553  1.00  0.00     0.182 A 
HETATM    7  N   UNL     1     -20.497  -5.239  -5.627  1.00  0.00    -0.333 N 
ATOM      8  HN  UNL     1     -20.102  -5.517  -4.729  1.00  0.00     0.168 HD
ENDROOT
BRANCH   1   9
HETATM    9  O   UNL     1     -22.552  -6.209  -5.058  1.00  0.00    -0.291 OA
BRANCH   9  10
HETATM   10  C   UNL     1     -21.897  -6.840  -4.006  1.00  0.00     0.105 A 
HETATM   11  C   UNL     1     -21.211  -8.054  -4.260  1.00  0.00     0.085 A 
HETATM   12  N   UNL     1     -21.135  -8.752  -5.472  1.00  0.00    -0.333 N 
HETATM   13  C   UNL     1     -20.551  -8.677  -3.195  1.00  0.00     0.038 A 
HETATM   14  C   UNL     1     -20.559  -9.909  -5.270  1.00  0.00     0.152 C 
ATOM     15  HN  UNL     1     -21.476  -8.411  -6.371  1.00  0.00     0.168 HD
HETATM   16  S   UNL     1     -19.888 -10.156  -3.726  1.00  0.00    -0.052 SA
HETATM   17  C   UNL     1     -20.487  -8.131  -1.907  1.00  0.00     0.021 A 
HETATM   18  C   UNL     1     -21.158  -6.942  -1.671  1.00  0.00     0.004 A 
HETATM   19  C   UNL     1     -21.859  -6.313  -2.694  1.00  0.00     0.040 A 
BRANCH  14  20
HETATM   20  N   UNL     1     -20.448 -10.873  -6.247  1.00  0.00    -0.307 N 
HETATM   21  C   UNL     1     -21.286 -11.959  -6.351  1.00  0.00     0.219 C 
HETATM   22  C   UNL     1     -20.951 -12.873  -7.486  1.00  0.00     0.117 C 
HETATM   23  O   UNL     1     -22.264 -12.209  -5.634  1.00  0.00    -0.274 OA
HETATM   24  H   UNL     1     -19.929 -10.577  -7.065  1.00  0.00     0.171 HD
ENDBRANCH  14  20
ENDBRANCH   9  10
ENDBRANCH   1   9
BRANCH   3  25
HETATM   25  C   UNL     1     -21.961  -4.027  -9.365  1.00  0.00    -0.009 A 
HETATM   26  C   UNL     1     -23.301  -3.694  -9.611  1.00  0.00     0.014 A 
HETATM   27  C   UNL     1     -23.746  -3.382 -10.895  1.00  0.00     0.017 A 
HETATM   28  C   UNL     1     -22.857  -3.395 -11.979  1.00  0.00     0.048 A 
HETATM   29  C   UNL     1     -21.512  -3.705 -11.743  1.00  0.00     0.017 A 
HETATM   30  C   UNL     1     -21.069  -4.013 -10.454  1.00  0.00     0.014 A 
BRANCH  28  31
HETATM   31  C   UNL     1     -23.335  -3.077 -13.372  1.00  0.00     0.417 C 
HETATM   32  F   UNL     1     -24.015  -1.898 -13.451  1.00  0.00    -0.166 F 
HETATM   33  F   UNL     1     -22.312  -2.977 -14.265  1.00  0.00    -0.166 F 
HETATM   34  F   UNL     1     -24.176  -4.024 -13.871  1.00  0.00    -0.166 F 
ENDBRANCH  28  31
ENDBRANCH   3  25
TORSDOF 5
ENDMDL
MODEL 2
REMARK VINA RESULT:     -10.2      2.183      2.320
REMARK  5 active torsions:
REMARK  status: ('A' for Active; 'I' for Inactive)
REMARK       I    between atoms: C_2  and  N_4 
REMARK    1  A    between atoms: N_4  and  C_5 
REMARK    2  A    between atoms: C_9  and  O_10 
REMARK    3  A    between atoms: O_10  and  C_11 
REMARK    4  A    between atoms: C_13  and  C_14 
REMARK    5  A    between atoms: C_17  and  C_18 
ROOT
HETATM    1  C   UNL     1     -20.774  -6.323  -6.682  1.00  0.00     0.151 A 
HETATM    2  C   UNL     1     -21.577  -5.840  -7.691  1.00  0.00     0.086 A 
HETATM    3  C   UNL     1     -21.121  -4.700  -8.331  1.00  0.00     0.047 A 
HETATM    4  N   UNL     1     -19.995  -4.058  -7.948  1.00  0.00    -0.352 N 
ATOM      5  HN  UNL     1     -19.657  -3.227  -8.433  1.00  0.00     0.166 HD
HETATM    6  C   UNL     1     -19.350  -4.574  -6.899  1.00  0.00     0.182 A 
HETATM    7  N   UNL     1     -19.680  -5.675  -6.240  1.00  0.00    -0.333 N 
ATOM      8  HN  UNL     1     -19.137  -6.011  -5.444  1.00  0.00     0.168 HD
ENDROOT
BRANCH   1   9
HETATM    9  O   UNL     1     -21.089  -7.542  -6.105  1.00  0.00    -0.291 OA
BRANCH   9  10
HETATM   10  C   UNL     1     -20.866  -7.688  -4.741  1.00  0.00     0.105 A 
HETATM   11  C   UNL     1     -19.796  -8.511  -4.308  1.00  0.00     0.085 A 
HETATM   12  N   UNL     1     -18.921  -9.259  -5.106  1.00  0.00    -0.333 N 
HETATM   13  C   UNL     1     -19.578  -8.646  -2.933  1.00  0.00     0.038 A 
HETATM   14  C   UNL     1     -18.180 -10.020  -4.341  1.00  0.00     0.152 C 
ATOM     15  HN  UNL     1     -18.869  -9.217  -6.124  1.00  0.00     0.168 HD
HETATM   16  S   UNL     1     -18.308  -9.751  -2.666  1.00  0.00    -0.052 SA
HETATM   17  C   UNL     1     -20.328  -7.964  -1.966  1.00  0.00     0.021 A 
HETATM   18  C   UNL     1     -21.369  -7.158  -2.400  1.00  0.00     0.004 A 
HETATM   19  C   UNL     1     -21.642  -7.031  -3.758  1.00  0.00     0.040 A 
BRANCH  14  20
HETATM   20  N   UNL     1     -17.305 -10.960  -4.838  1.00  0.00    -0.307 N 
HETATM   21  C   UNL     1     -16.280 -10.667  -5.707  1.00  0.00     0.219 C 
HETATM   22  C   UNL     1     -15.478 -11.861  -6.117  1.00  0.00     0.117 C 
HETATM   23  O   UNL     1     -15.965  -9.546  -6.129  1.00  0.00    -0.274 OA
HETATM   24  H   UNL     1     -17.254 -11.809  -4.290  1.00  0.00     0.171 HD
ENDBRANCH  14  20
ENDBRANCH   9  10
ENDBRANCH   1   9
BRANCH   3  25
HETATM   25  C   UNL     1     -21.797  -4.155  -9.525  1.00  0.00    -0.009 A 
HETATM   26  C   UNL     1     -23.164  -3.841  -9.501  1.00  0.00     0.014 A 
HETATM   27  C   UNL     1     -23.822  -3.387 -10.643  1.00  0.00     0.017 A 
HETATM   28  C   UNL     1     -23.128  -3.231 -11.850  1.00  0.00     0.048 A 
HETATM   29  C   UNL     1     -21.758  -3.520 -11.881  1.00  0.00     0.017 A 
HETATM   30  C   UNL     1     -21.101  -3.973 -10.735  1.00  0.00     0.014 A 
BRANCH  28  31
HETATM   31  C   UNL     1     -23.838  -2.758 -13.092  1.00  0.00     0.417 C 
HETATM   32  F   UNL     1     -23.345  -1.585 -13.579  1.00  0.00    -0.166 F 
HETATM   33  F   UNL     1     -23.751  -3.652 -14.116  1.00  0.00    -0.166 F 
HETATM   34  F   UNL     1     -25.168  -2.546 -12.893  1.00  0.00    -0.166 F 
ENDBRANCH  28  31
ENDBRANCH   3  25
TORSDOF 5
ENDMDL
MODEL 3
REMARK VINA RESULT:      -9.9      2.033      3.559
REMARK  5 active torsions:
REMARK  status: ('A' for Active; 'I' for Inactive)
REMARK       I    between atoms: C_2  and  N_4 
REMARK    1  A    between atoms: N_4  and  C_5 
REMARK    2  A    between atoms: C_9  and  O_10 
REMARK    3  A    between atoms: O_10  and  C_11 
REMARK    4  A    between atoms: C_13  and  C_14 
REMARK    5  A    between atoms: C_17  and  C_18 
ROOT
HETATM    1  C   UNL     1     -20.977  -6.622  -6.233  1.00  0.00     0.151 A 
HETATM    2  C   UNL     1     -21.711  -6.161  -7.302  1.00  0.00     0.086 A 
HETATM    3  C   UNL     1     -21.357  -4.911  -7.783  1.00  0.00     0.047 A 
HETATM    4  N   UNL     1     -20.398  -4.158  -7.199  1.00  0.00    -0.352 N 
ATOM      5  HN  UNL     1     -20.133  -3.244  -7.566  1.00  0.00     0.166 HD
HETATM    6  C   UNL     1     -19.819  -4.679  -6.114  1.00  0.00     0.182 A 
HETATM    7  N   UNL     1     -20.057  -5.873  -5.595  1.00  0.00    -0.333 N 
ATOM      8  HN  UNL     1     -19.573  -6.206  -4.761  1.00  0.00     0.168 HD
ENDROOT
BRANCH   1   9
HETATM    9  O   UNL     1     -21.172  -7.923  -5.802  1.00  0.00    -0.291 OA
BRANCH   9  10
HETATM   10  C   UNL     1     -20.102  -8.572  -5.197  1.00  0.00     0.105 A 
HETATM   11  C   UNL     1     -20.237  -9.008  -3.855  1.00  0.00     0.085 A 
HETATM   12  N   UNL     1     -21.340  -8.830  -3.010  1.00  0.00    -0.333 N 
HETATM   13  C   UNL     1     -19.155  -9.664  -3.259  1.00  0.00     0.038 A 
HETATM   14  C   UNL     1     -21.026  -9.218  -1.800  1.00  0.00     0.152 C 
ATOM     15  HN  UNL     1     -22.246  -8.457  -3.293  1.00  0.00     0.168 HD
HETATM   16  S   UNL     1     -19.525 -10.001  -1.629  1.00  0.00    -0.052 SA
HETATM   17  C   UNL     1     -17.968  -9.961  -3.939  1.00  0.00     0.021 A 
HETATM   18  C   UNL     1     -17.847  -9.534  -5.253  1.00  0.00     0.004 A 
HETATM   19  C   UNL     1     -18.886  -8.843  -5.867  1.00  0.00     0.040 A 
BRANCH  14  20
HETATM   20  N   UNL     1     -21.861  -9.055  -0.718  1.00  0.00    -0.307 N 
HETATM   21  C   UNL     1     -22.452  -7.859  -0.380  1.00  0.00     0.219 C 
HETATM   22  C   UNL     1     -23.303  -7.934   0.847  1.00  0.00     0.117 C 
HETATM   23  O   UNL     1     -22.362  -6.790  -0.998  1.00  0.00    -0.274 OA
HETATM   24  H   UNL     1     -22.272  -9.916  -0.377  1.00  0.00     0.171 HD
ENDBRANCH  14  20
ENDBRANCH   9  10
ENDBRANCH   1   9
BRANCH   3  25
HETATM   25  C   UNL     1     -21.954  -4.352  -9.012  1.00  0.00    -0.009 A 
HETATM   26  C   UNL     1     -23.334  -4.119  -9.104  1.00  0.00     0.014 A 
HETATM   27  C   UNL     1     -23.912  -3.652 -10.283  1.00  0.00     0.017 A 
HETATM   28  C   UNL     1     -23.121  -3.402 -11.413  1.00  0.00     0.048 A 
HETATM   29  C   UNL     1     -21.739  -3.610 -11.327  1.00  0.00     0.017 A 
HETATM   30  C   UNL     1     -21.163  -4.075 -10.142  1.00  0.00     0.014 A 
BRANCH  28  31
HETATM   31  C   UNL     1     -23.743  -2.915 -12.696  1.00  0.00     0.417 C 
HETATM   32  F   UNL     1     -23.566  -3.773 -13.739  1.00  0.00    -0.166 F 
HETATM   33  F   UNL     1     -25.088  -2.732 -12.588  1.00  0.00    -0.166 F 
HETATM   34  F   UNL     1     -23.236  -1.720 -13.109  1.00  0.00    -0.166 F 
ENDBRANCH  28  31
ENDBRANCH   3  25
TORSDOF 5
ENDMDL
MODEL 4
REMARK VINA RESULT:      -9.7      1.784      2.063
REMARK  5 active torsions:
REMARK  status: ('A' for Active; 'I' for Inactive)
REMARK       I    between atoms: C_2  and  N_4 
REMARK    1  A    between atoms: N_4  and  C_5 
REMARK    2  A    between atoms: C_9  and  O_10 
REMARK    3  A    between atoms: O_10  and  C_11 
REMARK    4  A    between atoms: C_13  and  C_14 
REMARK    5  A    between atoms: C_17  and  C_18 
ROOT
HETATM    1  C   UNL     1     -21.124  -6.335  -5.902  1.00  0.00     0.151 A 
HETATM    2  C   UNL     1     -21.915  -5.924  -6.950  1.00  0.00     0.086 A 
HETATM    3  C   UNL     1     -21.455  -4.825  -7.658  1.00  0.00     0.047 A 
HETATM    4  N   UNL     1     -20.337  -4.154  -7.302  1.00  0.00    -0.352 N 
ATOM      5  HN  UNL     1     -19.996  -3.354  -7.836  1.00  0.00     0.166 HD
HETATM    6  C   UNL     1     -19.705  -4.598  -6.213  1.00  0.00     0.182 A 
HETATM    7  N   UNL     1     -20.039  -5.655  -5.488  1.00  0.00    -0.333 N 
ATOM      8  HN  UNL     1     -19.505  -5.936  -4.666  1.00  0.00     0.168 HD
ENDROOT
BRANCH   1   9
HETATM    9  O   UNL     1     -21.442  -7.516  -5.252  1.00  0.00    -0.291 OA
BRANCH   9  10
HETATM   10  C   UNL     1     -21.633  -7.464  -3.875  1.00  0.00     0.105 A 
HETATM   11  C   UNL     1     -21.353  -8.619  -3.103  1.00  0.00     0.085 A 
HETATM   12  N   UNL     1     -20.928  -9.870  -3.567  1.00  0.00    -0.333 N 
HETATM   13  C   UNL     1     -21.544  -8.554  -1.719  1.00  0.00     0.038 A 
HETATM   14  C   UNL     1     -20.941 -10.727  -2.577  1.00  0.00     0.152 C 
ATOM     15  HN  UNL     1     -20.652 -10.082  -4.526  1.00  0.00     0.168 HD
HETATM   16  S   UNL     1     -21.234 -10.082  -1.030  1.00  0.00    -0.052 SA
HETATM   17  C   UNL     1     -21.943  -7.387  -1.054  1.00  0.00     0.021 A 
HETATM   18  C   UNL     1     -22.210  -6.262  -1.818  1.00  0.00     0.004 A 
HETATM   19  C   UNL     1     -22.071  -6.300  -3.201  1.00  0.00     0.040 A 
BRANCH  14  20
HETATM   20  N   UNL     1     -20.689 -12.070  -2.743  1.00  0.00    -0.307 N 
HETATM   21  C   UNL     1     -19.598 -12.568  -3.416  1.00  0.00     0.219 C 
HETATM   22  C   UNL     1     -19.555 -14.061  -3.476  1.00  0.00     0.117 C 
HETATM   23  O   UNL     1     -18.679 -11.910  -3.923  1.00  0.00    -0.274 OA
HETATM   24  H   UNL     1     -21.167 -12.667  -2.079  1.00  0.00     0.171 HD
ENDBRANCH  14  20
ENDBRANCH   9  10
ENDBRANCH   1   9
BRANCH   3  25
HETATM   25  C   UNL     1     -22.117  -4.362  -8.893  1.00  0.00    -0.009 A 
HETATM   26  C   UNL     1     -23.483  -4.044  -8.905  1.00  0.00     0.014 A 
HETATM   27  C   UNL     1     -24.128  -3.668 -10.083  1.00  0.00     0.017 A 
HETATM   28  C   UNL     1     -23.421  -3.597 -11.291  1.00  0.00     0.048 A 
HETATM   29  C   UNL     1     -22.051  -3.891 -11.287  1.00  0.00     0.017 A 
HETATM   30  C   UNL     1     -21.407  -4.264 -10.105  1.00  0.00     0.014 A 
BRANCH  28  31
HETATM   31  C   UNL     1     -24.116  -3.209 -12.570  1.00  0.00     0.417 C 
HETATM   32  F   UNL     1     -24.140  -4.210 -13.494  1.00  0.00    -0.166 F 
HETATM   33  F   UNL     1     -25.416  -2.855 -12.370  1.00  0.00    -0.166 F 
HETATM   34  F   UNL     1     -23.531  -2.147 -13.189  1.00  0.00    -0.166 F 
ENDBRANCH  28  31
ENDBRANCH   3  25
TORSDOF 5
ENDMDL
MODEL 5
REMARK VINA RESULT:      -9.6      3.408      5.048
REMARK  5 active torsions:
REMARK  status: ('A' for Active; 'I' for Inactive)
REMARK       I    between atoms: C_2  and  N_4 
REMARK    1  A    between atoms: N_4  and  C_5 
REMARK    2  A    between atoms: C_9  and  O_10 
REMARK    3  A    between atoms: O_10  and  C_11 
REMARK    4  A    between atoms: C_13  and  C_14 
REMARK    5  A    between atoms: C_17  and  C_18 
ROOT
HETATM    1  C   UNL     1     -21.402  -8.464  -1.741  1.00  0.00     0.151 A 
HETATM    2  C   UNL     1     -21.147  -8.090  -3.041  1.00  0.00     0.086 A 
HETATM    3  C   UNL     1     -21.455  -6.779  -3.363  1.00  0.00     0.047 A 
HETATM    4  N   UNL     1     -22.035  -5.936  -2.480  1.00  0.00    -0.352 N 
ATOM      5  HN  UNL     1     -22.247  -4.967  -2.719  1.00  0.00     0.166 HD
HETATM    6  C   UNL     1     -22.314  -6.443  -1.276  1.00  0.00     0.182 A 
HETATM    7  N   UNL     1     -22.030  -7.667  -0.856  1.00  0.00    -0.333 N 
ATOM      8  HN  UNL     1     -22.273  -7.986   0.081  1.00  0.00     0.168 HD
ENDROOT
BRANCH   1   9
HETATM    9  O   UNL     1     -20.975  -9.709  -1.310  1.00  0.00    -0.291 OA
BRANCH   9  10
HETATM   10  C   UNL     1     -21.905 -10.742  -1.295  1.00  0.00     0.105 A 
HETATM   11  C   UNL     1     -21.833 -11.741  -2.298  1.00  0.00     0.085 A 
HETATM   12  N   UNL     1     -20.935 -11.807  -3.370  1.00  0.00    -0.333 N 
HETATM   13  C   UNL     1     -22.771 -12.778  -2.269  1.00  0.00     0.038 A 
HETATM   14  C   UNL     1     -21.289 -12.778  -4.173  1.00  0.00     0.152 C 
ATOM     15  HN  UNL     1     -20.130 -11.194  -3.505  1.00  0.00     0.168 HD
HETATM   16  S   UNL     1     -22.539 -13.791  -3.620  1.00  0.00    -0.052 SA
HETATM   17  C   UNL     1     -23.741 -12.908  -1.266  1.00  0.00     0.021 A 
HETATM   18  C   UNL     1     -23.800 -11.929  -0.288  1.00  0.00     0.004 A 
HETATM   19  C   UNL     1     -22.910 -10.860  -0.306  1.00  0.00     0.040 A 
BRANCH  14  20
HETATM   20  N   UNL     1     -20.672 -13.016  -5.381  1.00  0.00    -0.307 N 
HETATM   21  C   UNL     1     -20.551 -12.076  -6.378  1.00  0.00     0.219 C 
HETATM   22  C   UNL     1     -19.856 -12.581  -7.601  1.00  0.00     0.117 C 
HETATM   23  O   UNL     1     -20.925 -10.896  -6.331  1.00  0.00    -0.274 OA
HETATM   24  H   UNL     1     -20.038 -13.805  -5.374  1.00  0.00     0.171 HD
ENDBRANCH  14  20
ENDBRANCH   9  10
ENDBRANCH   1   9
BRANCH   3  25
HETATM   25  C   UNL     1     -21.102  -6.195  -4.672  1.00  0.00    -0.009 A 
HETATM   26  C   UNL     1     -20.357  -5.009  -4.757  1.00  0.00     0.014 A 
HETATM   27  C   UNL     1     -20.075  -4.419  -5.988  1.00  0.00     0.017 A 
HETATM   28  C   UNL     1     -20.532  -5.001  -7.178  1.00  0.00     0.048 A 
HETATM   29  C   UNL     1     -21.257  -6.197  -7.108  1.00  0.00     0.017 A 
HETATM   30  C   UNL     1     -21.535  -6.788  -5.873  1.00  0.00     0.014 A 
BRANCH  28  31
HETATM   31  C   UNL     1     -20.245  -4.357  -8.510  1.00  0.00     0.417 C 
HETATM   32  F   UNL     1     -19.294  -3.384  -8.443  1.00  0.00    -0.166 F 
HETATM   33  F   UNL     1     -19.800  -5.250  -9.436  1.00  0.00    -0.166 F 
HETATM   34  F   UNL     1     -21.343  -3.766  -9.059  1.00  0.00    -0.166 F 
ENDBRANCH  28  31
ENDBRANCH   3  25
TORSDOF 5
ENDMDL
MODEL 6
REMARK VINA RESULT:      -9.5      2.616      3.653
REMARK  5 active torsions:
REMARK  status: ('A' for Active; 'I' for Inactive)
REMARK       I    between atoms: C_2  and  N_4 
REMARK    1  A    between atoms: N_4  and  C_5 
REMARK    2  A    between atoms: C_9  and  O_10 
REMARK    3  A    between atoms: O_10  and  C_11 
REMARK    4  A    between atoms: C_13  and  C_14 
REMARK    5  A    between atoms: C_17  and  C_18 
ROOT
HETATM    1  C   UNL     1     -20.780  -8.193  -4.337  1.00  0.00     0.151 A 
HETATM    2  C   UNL     1     -20.867  -7.659  -5.603  1.00  0.00     0.086 A 
HETATM    3  C   UNL     1     -21.197  -6.316  -5.670  1.00  0.00     0.047 A 
HETATM    4  N   UNL     1     -21.484  -5.588  -4.568  1.00  0.00    -0.352 N 
ATOM      5  HN  UNL     1     -21.713  -4.595  -4.623  1.00  0.00     0.166 HD
HETATM    6  C   UNL     1     -21.451  -6.241  -3.404  1.00  0.00     0.182 A 
HETATM    7  N   UNL     1     -21.116  -7.510  -3.226  1.00  0.00    -0.333 N 
ATOM      8  HN  UNL     1     -21.112  -7.943  -2.303  1.00  0.00     0.168 HD
ENDROOT
BRANCH   1   9
HETATM    9  O   UNL     1     -20.305  -9.485  -4.190  1.00  0.00    -0.291 OA
BRANCH   9  10
HETATM   10  C   UNL     1     -18.938  -9.653  -3.998  1.00  0.00     0.105 A 
HETATM   11  C   UNL     1     -18.189 -10.347  -4.982  1.00  0.00     0.085 A 
HETATM   12  N   UNL     1     -18.672 -10.944  -6.153  1.00  0.00    -0.333 N 
HETATM   13  C   UNL     1     -16.814 -10.504  -4.780  1.00  0.00     0.038 A 
HETATM   14  C   UNL     1     -17.710 -11.631  -6.717  1.00  0.00     0.152 C 
ATOM     15  HN  UNL     1     -19.623 -10.857  -6.511  1.00  0.00     0.168 HD
HETATM   16  S   UNL     1     -16.160 -11.445  -6.041  1.00  0.00    -0.052 SA
HETATM   17  C   UNL     1     -16.133  -9.962  -3.683  1.00  0.00     0.021 A 
HETATM   18  C   UNL     1     -16.873  -9.282  -2.728  1.00  0.00     0.004 A 
HETATM   19  C   UNL     1     -18.249  -9.139  -2.874  1.00  0.00     0.040 A 
BRANCH  14  20
HETATM   20  N   UNL     1     -17.906 -12.430  -7.820  1.00  0.00    -0.307 N 
HETATM   21  C   UNL     1     -18.999 -13.247  -7.990  1.00  0.00     0.219 C 
HETATM   22  C   UNL     1     -18.975 -14.030  -9.264  1.00  0.00     0.117 C 
HETATM   23  O   UNL     1     -19.967 -13.356  -7.224  1.00  0.00    -0.274 OA
HETATM   24  H   UNL     1     -17.376 -12.149  -8.636  1.00  0.00     0.171 HD
ENDBRANCH  14  20
ENDBRANCH   9  10
ENDBRANCH   1   9
BRANCH   3  25
HETATM   25  C   UNL     1     -21.183  -5.574  -6.945  1.00  0.00    -0.009 A 
HETATM   26  C   UNL     1     -22.326  -4.900  -7.403  1.00  0.00     0.014 A 
HETATM   27  C   UNL     1     -22.338  -4.252  -8.636  1.00  0.00     0.017 A 
HETATM   28  C   UNL     1     -21.200  -4.256  -9.455  1.00  0.00     0.048 A 
HETATM   29  C   UNL     1     -20.046  -4.906  -8.999  1.00  0.00     0.017 A 
HETATM   30  C   UNL     1     -20.036  -5.553  -7.761  1.00  0.00     0.014 A 
BRANCH  28  31
HETATM   31  C   UNL     1     -21.213  -3.572 -10.797  1.00  0.00     0.417 C 
HETATM   32  F   UNL     1     -22.256  -2.709 -10.950  1.00  0.00    -0.166 F 
HETATM   33  F   UNL     1     -20.087  -2.840 -11.021  1.00  0.00    -0.166 F 
HETATM   34  F   UNL     1     -21.302  -4.448 -11.836  1.00  0.00    -0.166 F 
ENDBRANCH  28  31
ENDBRANCH   3  25
TORSDOF 5
ENDMDL
MODEL 7
REMARK VINA RESULT:      -9.5      3.347      4.449
REMARK  5 active torsions:
REMARK  status: ('A' for Active; 'I' for Inactive)
REMARK       I    between atoms: C_2  and  N_4 
REMARK    1  A    between atoms: N_4  and  C_5 
REMARK    2  A    between atoms: C_9  and  O_10 
REMARK    3  A    between atoms: O_10  and  C_11 
REMARK    4  A    between atoms: C_13  and  C_14 
REMARK    5  A    between atoms: C_17  and  C_18 
ROOT
HETATM    1  C   UNL     1     -21.001  -8.240  -4.135  1.00  0.00     0.151 A 
HETATM    2  C   UNL     1     -21.104  -7.714  -5.403  1.00  0.00     0.086 A 
HETATM    3  C   UNL     1     -21.265  -6.340  -5.475  1.00  0.00     0.047 A 
HETATM    4  N   UNL     1     -21.385  -5.569  -4.372  1.00  0.00    -0.352 N 
ATOM      5  HN  UNL     1     -21.490  -4.555  -4.431  1.00  0.00     0.166 HD
HETATM    6  C   UNL     1     -21.358  -6.208  -3.200  1.00  0.00     0.182 A 
HETATM    7  N   UNL     1     -21.174  -7.507  -3.019  1.00  0.00    -0.333 N 
ATOM      8  HN  UNL     1     -21.164  -7.927  -2.090  1.00  0.00     0.168 HD
ENDROOT
BRANCH   1   9
HETATM    9  O   UNL     1     -20.684  -9.580  -3.994  1.00  0.00    -0.291 OA
BRANCH   9  10
HETATM   10  C   UNL     1     -19.469  -9.897  -3.397  1.00  0.00     0.105 A 
HETATM   11  C   UNL     1     -19.448 -10.865  -2.362  1.00  0.00     0.085 A 
HETATM   12  N   UNL     1     -20.542 -11.545  -1.811  1.00  0.00    -0.333 N 
HETATM   13  C   UNL     1     -18.219 -11.180  -1.773  1.00  0.00     0.038 A 
HETATM   14  C   UNL     1     -20.146 -12.228  -0.767  1.00  0.00     0.152 C 
ATOM     15  HN  UNL     1     -21.497 -11.514  -2.168  1.00  0.00     0.168 HD
HETATM   16  S   UNL     1     -18.466 -12.289  -0.502  1.00  0.00    -0.052 SA
HETATM   17  C   UNL     1     -17.003 -10.628  -2.194  1.00  0.00     0.021 A 
HETATM   18  C   UNL     1     -17.033  -9.685  -3.210  1.00  0.00     0.004 A 
HETATM   19  C   UNL     1     -18.241  -9.317  -3.793  1.00  0.00     0.040 A 
BRANCH  14  20
HETATM   20  N   UNL     1     -21.014 -12.905   0.060  1.00  0.00    -0.307 N 
HETATM   21  C   UNL     1     -22.209 -12.389   0.503  1.00  0.00     0.219 C 
HETATM   22  C   UNL     1     -22.966 -13.310   1.406  1.00  0.00     0.117 C 
HETATM   23  O   UNL     1     -22.697 -11.290   0.204  1.00  0.00    -0.274 OA
HETATM   24  H   UNL     1     -20.884 -13.909   0.066  1.00  0.00     0.171 HD
ENDBRANCH  14  20
ENDBRANCH   9  10
ENDBRANCH   1   9
BRANCH   3  25
HETATM   25  C   UNL     1     -21.242  -5.620  -6.763  1.00  0.00    -0.009 A 
HETATM   26  C   UNL     1     -22.356  -4.890  -7.204  1.00  0.00     0.014 A 
HETATM   27  C   UNL     1     -22.363  -4.261  -8.448  1.00  0.00     0.017 A 
HETATM   28  C   UNL     1     -21.249  -4.344  -9.295  1.00  0.00     0.048 A 
HETATM   29  C   UNL     1     -20.123  -5.052  -8.857  1.00  0.00     0.017 A 
HETATM   30  C   UNL     1     -20.117  -5.678  -7.608  1.00  0.00     0.014 A 
BRANCH  28  31
HETATM   31  C   UNL     1     -21.258  -3.682 -10.648  1.00  0.00     0.417 C 
HETATM   32  F   UNL     1     -22.292  -2.810 -10.813  1.00  0.00    -0.166 F 
HETATM   33  F   UNL     1     -20.125  -2.966 -10.886  1.00  0.00    -0.166 F 
HETATM   34  F   UNL     1     -21.359  -4.573 -11.672  1.00  0.00    -0.166 F 
ENDBRANCH  28  31
ENDBRANCH   3  25
TORSDOF 5
ENDMDL
MODEL 8
REMARK VINA RESULT:      -9.3      3.342      4.399
REMARK  5 active torsions:
REMARK  status: ('A' for Active; 'I' for Inactive)
REMARK       I    between atoms: C_2  and  N_4 
REMARK    1  A    between atoms: N_4  and  C_5 
REMARK    2  A    between atoms: C_9  and  O_10 
REMARK    3  A    between atoms: O_10  and  C_11 
REMARK    4  A    between atoms: C_13  and  C_14 
REMARK    5  A    between atoms: C_17  and  C_18 
ROOT
HETATM    1  C   UNL     1     -21.563  -8.271  -3.716  1.00  0.00     0.151 A 
HETATM    2  C   UNL     1     -21.646  -7.747  -4.986  1.00  0.00     0.086 A 
HETATM    3  C   UNL     1     -21.471  -6.377  -5.085  1.00  0.00     0.047 A 
HETATM    4  N   UNL     1     -21.299  -5.590  -3.999  1.00  0.00    -0.352 N 
ATOM      5  HN  UNL     1     -21.157  -4.583  -4.080  1.00  0.00     0.166 HD
HETATM    6  C   UNL     1     -21.326  -6.206  -2.815  1.00  0.00     0.182 A 
HETATM    7  N   UNL     1     -21.451  -7.509  -2.612  1.00  0.00    -0.333 N 
ATOM      8  HN  UNL     1     -21.462  -7.910  -1.674  1.00  0.00     0.168 HD
ENDROOT
BRANCH   1   9
HETATM    9  O   UNL     1     -21.573  -9.647  -3.562  1.00  0.00    -0.291 OA
BRANCH   9  10
HETATM   10  C   UNL     1     -21.553 -10.152  -2.266  1.00  0.00     0.105 A 
HETATM   11  C   UNL     1     -20.349 -10.713  -1.770  1.00  0.00     0.085 A 
HETATM   12  N   UNL     1     -19.137 -10.867  -2.454  1.00  0.00    -0.333 N 
HETATM   13  C   UNL     1     -20.340 -11.213  -0.464  1.00  0.00     0.038 A 
HETATM   14  C   UNL     1     -18.315 -11.577  -1.724  1.00  0.00     0.152 C 
ATOM     15  HN  UNL     1     -18.928 -10.485  -3.377  1.00  0.00     0.168 HD
HETATM   16  S   UNL     1     -18.822 -11.914  -0.135  1.00  0.00    -0.052 SA
HETATM   17  C   UNL     1     -21.444 -11.135   0.395  1.00  0.00     0.021 A 
HETATM   18  C   UNL     1     -22.615 -10.581  -0.098  1.00  0.00     0.004 A 
HETATM   19  C   UNL     1     -22.675 -10.110  -1.405  1.00  0.00     0.040 A 
BRANCH  14  20
HETATM   20  N   UNL     1     -17.085 -12.001  -2.175  1.00  0.00    -0.307 N 
HETATM   21  C   UNL     1     -16.111 -11.154  -2.652  1.00  0.00     0.219 C 
HETATM   22  C   UNL     1     -14.868 -11.856  -3.099  1.00  0.00     0.117 C 
HETATM   23  O   UNL     1     -16.167  -9.918  -2.707  1.00  0.00    -0.274 OA
HETATM   24  H   UNL     1     -16.815 -12.918  -1.844  1.00  0.00     0.171 HD
ENDBRANCH  14  20
ENDBRANCH   9  10
ENDBRANCH   1   9
BRANCH   3  25
HETATM   25  C   UNL     1     -21.386  -5.695  -6.392  1.00  0.00    -0.009 A 
HETATM   26  C   UNL     1     -22.446  -4.907  -6.867  1.00  0.00     0.014 A 
HETATM   27  C   UNL     1     -22.398  -4.314  -8.127  1.00  0.00     0.017 A 
HETATM   28  C   UNL     1     -21.282  -4.492  -8.956  1.00  0.00     0.048 A 
HETATM   29  C   UNL     1     -20.208  -5.259  -8.485  1.00  0.00     0.017 A 
HETATM   30  C   UNL     1     -20.258  -5.849  -7.220  1.00  0.00     0.014 A 
BRANCH  28  31
HETATM   31  C   UNL     1     -21.232  -3.869 -10.327  1.00  0.00     0.417 C 
HETATM   32  F   UNL     1     -21.234  -4.785 -11.335  1.00  0.00    -0.166 F 
HETATM   33  F   UNL     1     -22.293  -3.049 -10.566  1.00  0.00    -0.166 F 
HETATM   34  F   UNL     1     -20.121  -3.107 -10.521  1.00  0.00    -0.166 F 
ENDBRANCH  28  31
ENDBRANCH   3  25
TORSDOF 5
ENDMDL
MODEL 9
REMARK VINA RESULT:      -9.1      3.324      4.488
REMARK  5 active torsions:
REMARK  status: ('A' for Active; 'I' for Inactive)
REMARK       I    between atoms: C_2  and  N_4 
REMARK    1  A    between atoms: N_4  and  C_5 
REMARK    2  A    between atoms: C_9  and  O_10 
REMARK    3  A    between atoms: O_10  and  C_11 
REMARK    4  A    between atoms: C_13  and  C_14 
REMARK    5  A    between atoms: C_17  and  C_18 
ROOT
HETATM    1  C   UNL     1     -20.405  -7.955  -4.492  1.00  0.00     0.151 A 
HETATM    2  C   UNL     1     -20.489  -7.435  -5.763  1.00  0.00     0.086 A 
HETATM    3  C   UNL     1     -21.092  -6.192  -5.869  1.00  0.00     0.047 A 
HETATM    4  N   UNL     1     -21.627  -5.557  -4.802  1.00  0.00    -0.352 N 
ATOM      5  HN  UNL     1     -22.057  -4.636  -4.884  1.00  0.00     0.166 HD
HETATM    6  C   UNL     1     -21.560  -6.204  -3.636  1.00  0.00     0.182 A 
HETATM    7  N   UNL     1     -20.978  -7.374  -3.421  1.00  0.00    -0.333 N 
ATOM      8  HN  UNL     1     -20.965  -7.809  -2.498  1.00  0.00     0.168 HD
ENDROOT
BRANCH   1   9
HETATM    9  O   UNL     1     -19.679  -9.117  -4.294  1.00  0.00    -0.291 OA
BRANCH   9  10
HETATM   10  C   UNL     1     -20.387 -10.285  -4.032  1.00  0.00     0.105 A 
HETATM   11  C   UNL     1     -20.021 -11.068  -2.909  1.00  0.00     0.085 A 
HETATM   12  N   UNL     1     -18.971 -10.832  -2.012  1.00  0.00    -0.333 N 
HETATM   13  C   UNL     1     -20.744 -12.237  -2.652  1.00  0.00     0.038 A 
HETATM   14  C   UNL     1     -18.844 -11.860  -1.213  1.00  0.00     0.152 C 
ATOM     15  HN  UNL     1     -18.395  -9.989  -1.987  1.00  0.00     0.168 HD
HETATM   16  S   UNL     1     -20.059 -13.046  -1.317  1.00  0.00    -0.052 SA
HETATM   17  C   UNL     1     -21.846 -12.641  -3.416  1.00  0.00     0.021 A 
HETATM   18  C   UNL     1     -22.199 -11.866  -4.509  1.00  0.00     0.004 A 
HETATM   19  C   UNL     1     -21.479 -10.718  -4.820  1.00  0.00     0.040 A 
BRANCH  14  20
HETATM   20  N   UNL     1     -17.820 -11.979  -0.300  1.00  0.00    -0.307 N 
HETATM   21  C   UNL     1     -16.503 -11.707  -0.586  1.00  0.00     0.219 C 
HETATM   22  C   UNL     1     -15.577 -11.928   0.567  1.00  0.00     0.117 C 
HETATM   23  O   UNL     1     -16.052 -11.284  -1.660  1.00  0.00    -0.274 OA
HETATM   24  H   UNL     1     -18.123 -11.966   0.666  1.00  0.00     0.171 HD
ENDBRANCH  14  20
ENDBRANCH   9  10
ENDBRANCH   1   9
BRANCH   3  25
HETATM   25  C   UNL     1     -21.121  -5.447  -7.142  1.00  0.00    -0.009 A 
HETATM   26  C   UNL     1     -22.265  -4.737  -7.538  1.00  0.00     0.014 A 
HETATM   27  C   UNL     1     -22.322  -4.084  -8.768  1.00  0.00     0.017 A 
HETATM   28  C   UNL     1     -21.229  -4.122  -9.645  1.00  0.00     0.048 A 
HETATM   29  C   UNL     1     -20.073  -4.808  -9.252  1.00  0.00     0.017 A 
HETATM   30  C   UNL     1     -20.019  -5.459  -8.017  1.00  0.00     0.014 A 
BRANCH  28  31
HETATM   31  C   UNL     1     -21.291  -3.434 -10.984  1.00  0.00     0.417 C 
HETATM   32  F   UNL     1     -22.337  -2.568 -11.095  1.00  0.00    -0.166 F 
HETATM   33  F   UNL     1     -20.173  -2.703 -11.248  1.00  0.00    -0.166 F 
HETATM   34  F   UNL     1     -21.421  -4.306 -12.022  1.00  0.00    -0.166 F 
ENDBRANCH  28  31
ENDBRANCH   3  25
TORSDOF 5
ENDMDL
