MODEL 1
REMARK VINA RESULT:      -8.5      0.000      0.000
REMARK  10 active torsions:
REMARK  status: ('A' for Active; 'I' for Inactive)
REMARK    1  A    between atoms: O_2  and  C_3 
REMARK    2  A    between atoms: C_5  and  C_6 
REMARK    3  A    between atoms: C_6  and  N_7 
REMARK       I    between atoms: N_7  and  C_8 
REMARK    4  A    between atoms: C_8  and  C_10 
REMARK    5  A    between atoms: C_10  and  C_11 
REMARK    6  A    between atoms: C_11  and  C_12 
REMARK    7  A    between atoms: C_12  and  C_13 
REMARK    8  A    between atoms: C_13  and  C_14 
REMARK    9  A    between atoms: C_15  and  C_16 
REMARK   10  A    between atoms: C_21  and  O_22 
ROOT
HETATM    1  N   UNL     1     -21.109  -5.289  -6.375  1.00  0.00    -0.357 N 
HETATM    2  C   UNL     1     -20.616  -6.569  -6.277  1.00  0.00     0.217 C 
HETATM    3  O   UNL     1     -19.610  -6.951  -6.864  1.00  0.00    -0.274 OA
HETATM    4  H   UNL     1     -21.963  -5.037  -5.895  1.00  0.00     0.162 HD
ENDROOT
BRANCH   1   5
HETATM    5  C   UNL     1     -20.446  -4.279  -7.167  1.00  0.00     0.161 C 
BRANCH   5   6
HETATM    6  C   UNL     1     -20.961  -4.242  -8.584  1.00  0.00    -0.038 A 
HETATM    7  C   UNL     1     -22.343  -4.276  -8.844  1.00  0.00     0.048 A 
HETATM    8  C   UNL     1     -22.834  -4.297 -10.154  1.00  0.00     0.101 A 
HETATM    9  C   UNL     1     -21.921  -4.287 -11.217  1.00  0.00     0.099 A 
HETATM   10  C   UNL     1     -20.546  -4.257 -10.980  1.00  0.00     0.040 A 
HETATM   11  C   UNL     1     -20.070  -4.237  -9.667  1.00  0.00     0.012 A 
BRANCH   8  12
HETATM   12  O   UNL     1     -24.161  -4.334 -10.495  1.00  0.00    -0.353 OA
HETATM   13  C   UNL     1     -25.009  -3.343  -9.931  1.00  0.00     0.210 C 
ENDBRANCH   8  12
BRANCH   9  14
HETATM   14  O   UNL     1     -22.386  -4.316 -12.505  1.00  0.00    -0.358 OA
HETATM   15  H   UNL     1     -21.720  -4.733 -13.073  1.00  0.00     0.217 HD
ENDBRANCH   9  14
ENDBRANCH   5   6
ENDBRANCH   1   5
BRANCH   2  16
HETATM   16  C   UNL     1     -21.447  -7.478  -5.390  1.00  0.00     0.103 C 
BRANCH  16  17
HETATM   17  C   UNL     1     -22.141  -6.707  -4.268  1.00  0.00     0.010 C 
BRANCH  17  18
HETATM   18  C   UNL     1     -21.305  -6.681  -2.985  1.00  0.00     0.004 C 
BRANCH  18  19
HETATM   19  C   UNL     1     -22.079  -6.035  -1.838  1.00  0.00     0.027 C 
BRANCH  19  20
HETATM   20  C   UNL     1     -22.444  -7.055  -0.797  1.00  0.00    -0.030 C 
HETATM   21  C   UNL     1     -21.928  -8.292  -0.756  1.00  0.00    -0.027 C 
BRANCH  21  22
HETATM   22  C   UNL     1     -22.296  -9.321   0.283  1.00  0.00    -0.001 C 
HETATM   23  C   UNL     1     -23.392 -10.241  -0.253  1.00  0.00     0.013 C 
HETATM   24  C   UNL     1     -21.064 -10.130   0.686  1.00  0.00     0.013 C 
ENDBRANCH  21  22
ENDBRANCH  19  20
ENDBRANCH  18  19
ENDBRANCH  17  18
ENDBRANCH  16  17
ENDBRANCH   2  16
TORSDOF 10
ENDMDL
MODEL 2
REMARK VINA RESULT:      -7.5     13.441     15.244
REMARK  10 active torsions:
REMARK  status: ('A' for Active; 'I' for Inactive)
REMARK    1  A    between atoms: O_2  and  C_3 
REMARK    2  A    between atoms: C_5  and  C_6 
REMARK    3  A    between atoms: C_6  and  N_7 
REMARK       I    between atoms: N_7  and  C_8 
REMARK    4  A    between atoms: C_8  and  C_10 
REMARK    5  A    between atoms: C_10  and  C_11 
REMARK    6  A    between atoms: C_11  and  C_12 
REMARK    7  A    between atoms: C_12  and  C_13 
REMARK    8  A    between atoms: C_13  and  C_14 
REMARK    9  A    between atoms: C_15  and  C_16 
REMARK   10  A    between atoms: C_21  and  O_22 
ROOT
HETATM    1  N   UNL     1     -33.265  -4.473 -15.202  1.00  0.00    -0.357 N 
HETATM    2  C   UNL     1     -34.131  -3.803 -14.370  1.00  0.00     0.217 C 
HETATM    3  O   UNL     1     -34.731  -2.786 -14.699  1.00  0.00    -0.274 OA
HETATM    4  H   UNL     1     -32.770  -5.288 -14.868  1.00  0.00     0.162 HD
ENDROOT
BRANCH   1   5
HETATM    5  C   UNL     1     -33.023  -4.034 -16.558  1.00  0.00     0.161 C 
BRANCH   5   6
HETATM    6  C   UNL     1     -31.669  -4.468 -17.061  1.00  0.00    -0.038 A 
HETATM    7  C   UNL     1     -31.331  -5.832 -17.117  1.00  0.00     0.048 A 
HETATM    8  C   UNL     1     -30.060  -6.247 -17.529  1.00  0.00     0.101 A 
HETATM    9  C   UNL     1     -29.115  -5.275 -17.886  1.00  0.00     0.099 A 
HETATM   10  C   UNL     1     -29.431  -3.917 -17.833  1.00  0.00     0.040 A 
HETATM   11  C   UNL     1     -30.704  -3.517 -17.419  1.00  0.00     0.012 A 
BRANCH   8  12
HETATM   12  O   UNL     1     -29.646  -7.552 -17.609  1.00  0.00    -0.353 OA
HETATM   13  C   UNL     1     -29.935  -8.257 -18.808  1.00  0.00     0.210 C 
ENDBRANCH   8  12
BRANCH   9  14
HETATM   14  O   UNL     1     -27.864  -5.666 -18.283  1.00  0.00    -0.358 OA
HETATM   15  H   UNL     1     -27.444  -6.161 -17.564  1.00  0.00     0.217 HD
ENDBRANCH   9  14
ENDBRANCH   5   6
ENDBRANCH   1   5
BRANCH   2  16
HETATM   16  C   UNL     1     -34.258  -4.425 -12.992  1.00  0.00     0.103 C 
BRANCH  16  17
HETATM   17  C   UNL     1     -32.999  -4.219 -12.150  1.00  0.00     0.010 C 
BRANCH  17  18
HETATM   18  C   UNL     1     -33.066  -2.933 -11.320  1.00  0.00     0.004 C 
BRANCH  18  19
HETATM   19  C   UNL     1     -34.425  -2.791 -10.637  1.00  0.00     0.027 C 
BRANCH  19  20
HETATM   20  C   UNL     1     -35.234  -1.699 -11.277  1.00  0.00    -0.030 C 
HETATM   21  C   UNL     1     -34.710  -0.753 -12.069  1.00  0.00    -0.027 C 
BRANCH  21  22
HETATM   22  C   UNL     1     -35.518   0.349 -12.708  1.00  0.00    -0.001 C 
HETATM   23  C   UNL     1     -34.727   0.984 -13.851  1.00  0.00     0.013 C 
HETATM   24  C   UNL     1     -36.851  -0.199 -13.216  1.00  0.00     0.013 C 
ENDBRANCH  21  22
ENDBRANCH  19  20
ENDBRANCH  18  19
ENDBRANCH  17  18
ENDBRANCH  16  17
ENDBRANCH   2  16
TORSDOF 10
ENDMDL
MODEL 3
REMARK VINA RESULT:      -7.4     13.398     16.025
REMARK  10 active torsions:
REMARK  status: ('A' for Active; 'I' for Inactive)
REMARK    1  A    between atoms: O_2  and  C_3 
REMARK    2  A    between atoms: C_5  and  C_6 
REMARK    3  A    between atoms: C_6  and  N_7 
REMARK       I    between atoms: N_7  and  C_8 
REMARK    4  A    between atoms: C_8  and  C_10 
REMARK    5  A    between atoms: C_10  and  C_11 
REMARK    6  A    between atoms: C_11  and  C_12 
REMARK    7  A    between atoms: C_12  and  C_13 
REMARK    8  A    between atoms: C_13  and  C_14 
REMARK    9  A    between atoms: C_15  and  C_16 
REMARK   10  A    between atoms: C_21  and  O_22 
ROOT
HETATM    1  N   UNL     1     -33.109  -4.530 -15.498  1.00  0.00    -0.357 N 
HETATM    2  C   UNL     1     -32.525  -4.045 -16.644  1.00  0.00     0.217 C 
HETATM    3  O   UNL     1     -33.010  -3.143 -17.319  1.00  0.00    -0.274 OA
HETATM    4  H   UNL     1     -32.682  -5.299 -14.999  1.00  0.00     0.162 HD
ENDROOT
BRANCH   1   5
HETATM    5  C   UNL     1     -34.342  -3.980 -14.983  1.00  0.00     0.161 C 
BRANCH   5   6
HETATM    6  C   UNL     1     -34.177  -3.431 -13.588  1.00  0.00    -0.038 A 
HETATM    7  C   UNL     1     -34.864  -2.270 -13.190  1.00  0.00     0.048 A 
HETATM    8  C   UNL     1     -34.679  -1.719 -11.918  1.00  0.00     0.101 A 
HETATM    9  C   UNL     1     -33.788  -2.343 -11.034  1.00  0.00     0.099 A 
HETATM   10  C   UNL     1     -33.094  -3.494 -11.412  1.00  0.00     0.040 A 
HETATM   11  C   UNL     1     -33.288  -4.033 -12.685  1.00  0.00     0.012 A 
BRANCH   8  12
HETATM   12  O   UNL     1     -35.303  -0.590 -11.452  1.00  0.00    -0.353 OA
HETATM   13  C   UNL     1     -35.914   0.262 -12.411  1.00  0.00     0.210 C 
ENDBRANCH   8  12
BRANCH   9  14
HETATM   14  O   UNL     1     -33.590  -1.809  -9.788  1.00  0.00    -0.358 OA
HETATM   15  H   UNL     1     -34.447  -1.560  -9.411  1.00  0.00     0.217 HD
ENDBRANCH   9  14
ENDBRANCH   5   6
ENDBRANCH   1   5
BRANCH   2  16
HETATM   16  C   UNL     1     -31.231  -4.744 -17.015  1.00  0.00     0.103 C 
BRANCH  16  17
HETATM   17  C   UNL     1     -30.280  -3.825 -17.781  1.00  0.00     0.010 C 
BRANCH  17  18
HETATM   18  C   UNL     1     -28.856  -4.387 -17.836  1.00  0.00     0.004 C 
BRANCH  18  19
HETATM   19  C   UNL     1     -28.848  -5.807 -18.399  1.00  0.00     0.027 C 
BRANCH  19  20
HETATM   20  C   UNL     1     -27.458  -6.222 -18.787  1.00  0.00    -0.030 C 
HETATM   21  C   UNL     1     -27.053  -6.366 -20.057  1.00  0.00    -0.027 C 
BRANCH  21  22
HETATM   22  C   UNL     1     -25.660  -6.788 -20.451  1.00  0.00    -0.001 C 
HETATM   23  C   UNL     1     -24.775  -6.902 -19.211  1.00  0.00     0.013 C 
HETATM   24  C   UNL     1     -25.703  -8.117 -21.204  1.00  0.00     0.013 C 
ENDBRANCH  21  22
ENDBRANCH  19  20
ENDBRANCH  18  19
ENDBRANCH  17  18
ENDBRANCH  16  17
ENDBRANCH   2  16
TORSDOF 10
ENDMDL
MODEL 4
REMARK VINA RESULT:      -7.4     12.656     15.004
REMARK  10 active torsions:
REMARK  status: ('A' for Active; 'I' for Inactive)
REMARK    1  A    between atoms: O_2  and  C_3 
REMARK    2  A    between atoms: C_5  and  C_6 
REMARK    3  A    between atoms: C_6  and  N_7 
REMARK       I    between atoms: N_7  and  C_8 
REMARK    4  A    between atoms: C_8  and  C_10 
REMARK    5  A    between atoms: C_10  and  C_11 
REMARK    6  A    between atoms: C_11  and  C_12 
REMARK    7  A    between atoms: C_12  and  C_13 
REMARK    8  A    between atoms: C_13  and  C_14 
REMARK    9  A    between atoms: C_15  and  C_16 
REMARK   10  A    between atoms: C_21  and  O_22 
ROOT
HETATM    1  N   UNL     1     -33.509  -3.397 -17.030  1.00  0.00    -0.357 N 
HETATM    2  C   UNL     1     -34.344  -2.915 -16.049  1.00  0.00     0.217 C 
HETATM    3  O   UNL     1     -34.610  -3.535 -15.025  1.00  0.00    -0.274 OA
HETATM    4  H   UNL     1     -33.352  -2.859 -17.870  1.00  0.00     0.162 HD
ENDROOT
BRANCH   1   5
HETATM    5  C   UNL     1     -32.851  -4.678 -16.904  1.00  0.00     0.161 C 
BRANCH   5   6
HETATM    6  C   UNL     1     -31.349  -4.544 -16.896  1.00  0.00    -0.038 A 
HETATM    7  C   UNL     1     -30.559  -5.393 -16.101  1.00  0.00     0.048 A 
HETATM    8  C   UNL     1     -29.169  -5.245 -16.041  1.00  0.00     0.101 A 
HETATM    9  C   UNL     1     -28.566  -4.225 -16.790  1.00  0.00     0.099 A 
HETATM   10  C   UNL     1     -29.334  -3.369 -17.582  1.00  0.00     0.040 A 
HETATM   11  C   UNL     1     -30.720  -3.529 -17.631  1.00  0.00     0.012 A 
BRANCH   8  12
HETATM   12  O   UNL     1     -28.327  -6.025 -15.292  1.00  0.00    -0.353 OA
HETATM   13  C   UNL     1     -28.111  -7.360 -15.728  1.00  0.00     0.210 C 
ENDBRANCH   8  12
BRANCH   9  14
HETATM   14  O   UNL     1     -27.207  -4.062 -16.735  1.00  0.00    -0.358 OA
HETATM   15  H   UNL     1     -26.915  -3.582 -17.524  1.00  0.00     0.217 HD
ENDBRANCH   9  14
ENDBRANCH   5   6
ENDBRANCH   1   5
BRANCH   2  16
HETATM   16  C   UNL     1     -34.929  -1.551 -16.361  1.00  0.00     0.103 C 
BRANCH  16  17
HETATM   17  C   UNL     1     -35.710  -0.977 -15.179  1.00  0.00     0.010 C 
BRANCH  17  18
HETATM   18  C   UNL     1     -34.972   0.189 -14.513  1.00  0.00     0.004 C 
BRANCH  18  19
HETATM   19  C   UNL     1     -35.024   0.073 -12.991  1.00  0.00     0.027 C 
BRANCH  19  20
HETATM   20  C   UNL     1     -34.805  -1.347 -12.554  1.00  0.00    -0.030 C 
HETATM   21  C   UNL     1     -34.275  -1.686 -11.370  1.00  0.00    -0.027 C 
BRANCH  21  22
HETATM   22  C   UNL     1     -34.046  -3.110 -10.929  1.00  0.00    -0.001 C 
HETATM   23  C   UNL     1     -35.342  -3.911 -11.050  1.00  0.00     0.013 C 
HETATM   24  C   UNL     1     -32.938  -3.751 -11.763  1.00  0.00     0.013 C 
ENDBRANCH  21  22
ENDBRANCH  19  20
ENDBRANCH  18  19
ENDBRANCH  17  18
ENDBRANCH  16  17
ENDBRANCH   2  16
TORSDOF 10
ENDMDL
MODEL 5
REMARK VINA RESULT:      -7.2      2.846      3.406
REMARK  10 active torsions:
REMARK  status: ('A' for Active; 'I' for Inactive)
REMARK    1  A    between atoms: O_2  and  C_3 
REMARK    2  A    between atoms: C_5  and  C_6 
REMARK    3  A    between atoms: C_6  and  N_7 
REMARK       I    between atoms: N_7  and  C_8 
REMARK    4  A    between atoms: C_8  and  C_10 
REMARK    5  A    between atoms: C_10  and  C_11 
REMARK    6  A    between atoms: C_11  and  C_12 
REMARK    7  A    between atoms: C_12  and  C_13 
REMARK    8  A    between atoms: C_13  and  C_14 
REMARK    9  A    between atoms: C_15  and  C_16 
REMARK   10  A    between atoms: C_21  and  O_22 
ROOT
HETATM    1  N   UNL     1     -20.452  -5.710  -6.595  1.00  0.00    -0.357 N 
HETATM    2  C   UNL     1     -20.841  -6.286  -5.409  1.00  0.00     0.217 C 
HETATM    3  O   UNL     1     -21.498  -5.697  -4.557  1.00  0.00    -0.274 OA
HETATM    4  H   UNL     1     -19.881  -6.231  -7.247  1.00  0.00     0.162 HD
ENDROOT
BRANCH   1   5
HETATM    5  C   UNL     1     -20.823  -4.356  -6.940  1.00  0.00     0.161 C 
BRANCH   5   6
HETATM    6  C   UNL     1     -21.050  -4.192  -8.421  1.00  0.00    -0.038 A 
HETATM    7  C   UNL     1     -22.268  -3.681  -8.906  1.00  0.00     0.048 A 
HETATM    8  C   UNL     1     -22.513  -3.574 -10.280  1.00  0.00     0.101 A 
HETATM    9  C   UNL     1     -21.521  -3.990 -11.178  1.00  0.00     0.099 A 
HETATM   10  C   UNL     1     -20.308  -4.503 -10.716  1.00  0.00     0.040 A 
HETATM   11  C   UNL     1     -20.077  -4.605  -9.342  1.00  0.00     0.012 A 
BRANCH   8  12
HETATM   12  O   UNL     1     -23.670  -3.093 -10.836  1.00  0.00    -0.353 OA
HETATM   13  C   UNL     1     -24.893  -3.430 -10.195  1.00  0.00     0.210 C 
ENDBRANCH   8  12
BRANCH   9  14
HETATM   14  O   UNL     1     -21.750  -3.900 -12.525  1.00  0.00    -0.358 OA
HETATM   15  H   UNL     1     -20.901  -3.814 -12.985  1.00  0.00     0.217 HD
ENDBRANCH   9  14
ENDBRANCH   5   6
ENDBRANCH   1   5
BRANCH   2  16
HETATM   16  C   UNL     1     -20.363  -7.714  -5.236  1.00  0.00     0.103 C 
BRANCH  16  17
HETATM   17  C   UNL     1     -21.454  -8.621  -4.668  1.00  0.00     0.010 C 
BRANCH  17  18
HETATM   18  C   UNL     1     -20.937  -9.496  -3.522  1.00  0.00     0.004 C 
BRANCH  18  19
HETATM   19  C   UNL     1     -19.994  -8.710  -2.614  1.00  0.00     0.027 C 
BRANCH  19  20
HETATM   20  C   UNL     1     -18.654  -9.383  -2.522  1.00  0.00    -0.030 C 
HETATM   21  C   UNL     1     -17.763  -9.405  -3.524  1.00  0.00    -0.027 C 
BRANCH  21  22
HETATM   22  C   UNL     1     -16.420 -10.083  -3.438  1.00  0.00    -0.001 C 
HETATM   23  C   UNL     1     -16.599 -11.562  -3.094  1.00  0.00     0.013 C 
HETATM   24  C   UNL     1     -15.662  -9.926  -4.756  1.00  0.00     0.013 C 
ENDBRANCH  21  22
ENDBRANCH  19  20
ENDBRANCH  18  19
ENDBRANCH  17  18
ENDBRANCH  16  17
ENDBRANCH   2  16
TORSDOF 10
ENDMDL
MODEL 6
REMARK VINA RESULT:      -7.0      1.391      2.535
REMARK  10 active torsions:
REMARK  status: ('A' for Active; 'I' for Inactive)
REMARK    1  A    between atoms: O_2  and  C_3 
REMARK    2  A    between atoms: C_5  and  C_6 
REMARK    3  A    between atoms: C_6  and  N_7 
REMARK       I    between atoms: N_7  and  C_8 
REMARK    4  A    between atoms: C_8  and  C_10 
REMARK    5  A    between atoms: C_10  and  C_11 
REMARK    6  A    between atoms: C_11  and  C_12 
REMARK    7  A    between atoms: C_12  and  C_13 
REMARK    8  A    between atoms: C_13  and  C_14 
REMARK    9  A    between atoms: C_15  and  C_16 
REMARK   10  A    between atoms: C_21  and  O_22 
ROOT
HETATM    1  N   UNL     1     -21.455  -5.846  -6.028  1.00  0.00    -0.357 N 
HETATM    2  C   UNL     1     -21.044  -5.680  -4.726  1.00  0.00     0.217 C 
HETATM    3  O   UNL     1     -20.127  -4.934  -4.398  1.00  0.00    -0.274 OA
HETATM    4  H   UNL     1     -22.194  -6.501  -6.246  1.00  0.00     0.162 HD
ENDROOT
BRANCH   1   5
HETATM    5  C   UNL     1     -20.844  -5.116  -7.115  1.00  0.00     0.161 C 
BRANCH   5   6
HETATM    6  C   UNL     1     -21.868  -4.592  -8.091  1.00  0.00    -0.038 A 
HETATM    7  C   UNL     1     -21.470  -4.072  -9.335  1.00  0.00     0.048 A 
HETATM    8  C   UNL     1     -22.403  -3.533 -10.227  1.00  0.00     0.101 A 
HETATM    9  C   UNL     1     -23.755  -3.513  -9.859  1.00  0.00     0.099 A 
HETATM   10  C   UNL     1     -24.169  -4.020  -8.627  1.00  0.00     0.040 A 
HETATM   11  C   UNL     1     -23.226  -4.556  -7.746  1.00  0.00     0.012 A 
BRANCH   8  12
HETATM   12  O   UNL     1     -22.101  -3.003 -11.455  1.00  0.00    -0.353 OA
HETATM   13  C   UNL     1     -21.495  -3.865 -12.408  1.00  0.00     0.210 C 
ENDBRANCH   8  12
BRANCH   9  14
HETATM   14  O   UNL     1     -24.680  -2.980 -10.718  1.00  0.00    -0.358 OA
HETATM   15  H   UNL     1     -24.625  -2.013 -10.681  1.00  0.00     0.217 HD
ENDBRANCH   9  14
ENDBRANCH   5   6
ENDBRANCH   1   5
BRANCH   2  16
HETATM   16  C   UNL     1     -21.815  -6.525  -3.729  1.00  0.00     0.103 C 
BRANCH  16  17
HETATM   17  C   UNL     1     -21.634  -6.029  -2.295  1.00  0.00     0.010 C 
BRANCH  17  18
HETATM   18  C   UNL     1     -22.449  -6.854  -1.293  1.00  0.00     0.004 C 
BRANCH  18  19
HETATM   19  C   UNL     1     -21.536  -7.704  -0.412  1.00  0.00     0.027 C 
BRANCH  19  20
HETATM   20  C   UNL     1     -22.175  -9.026  -0.098  1.00  0.00    -0.030 C 
HETATM   21  C   UNL     1     -22.049 -10.115  -0.871  1.00  0.00    -0.027 C 
BRANCH  21  22
HETATM   22  C   UNL     1     -22.694 -11.442  -0.563  1.00  0.00    -0.001 C 
HETATM   23  C   UNL     1     -21.986 -12.109   0.616  1.00  0.00     0.013 C 
HETATM   24  C   UNL     1     -24.179 -11.252  -0.260  1.00  0.00     0.013 C 
ENDBRANCH  21  22
ENDBRANCH  19  20
ENDBRANCH  18  19
ENDBRANCH  17  18
ENDBRANCH  16  17
ENDBRANCH   2  16
TORSDOF 10
ENDMDL
MODEL 7
REMARK VINA RESULT:      -7.0      3.276      9.712
REMARK  10 active torsions:
REMARK  status: ('A' for Active; 'I' for Inactive)
REMARK    1  A    between atoms: O_2  and  C_3 
REMARK    2  A    between atoms: C_5  and  C_6 
REMARK    3  A    between atoms: C_6  and  N_7 
REMARK       I    between atoms: N_7  and  C_8 
REMARK    4  A    between atoms: C_8  and  C_10 
REMARK    5  A    between atoms: C_10  and  C_11 
REMARK    6  A    between atoms: C_11  and  C_12 
REMARK    7  A    between atoms: C_12  and  C_13 
REMARK    8  A    between atoms: C_13  and  C_14 
REMARK    9  A    between atoms: C_15  and  C_16 
REMARK   10  A    between atoms: C_21  and  O_22 
ROOT
HETATM    1  N   UNL     1     -20.879  -7.547  -3.226  1.00  0.00    -0.357 N 
HETATM    2  C   UNL     1     -21.801  -6.591  -3.583  1.00  0.00     0.217 C 
HETATM    3  O   UNL     1     -22.414  -5.909  -2.769  1.00  0.00    -0.274 OA
HETATM    4  H   UNL     1     -20.427  -8.105  -3.937  1.00  0.00     0.162 HD
ENDROOT
BRANCH   1   5
HETATM    5  C   UNL     1     -20.539  -7.795  -1.843  1.00  0.00     0.161 C 
BRANCH   5   6
HETATM    6  C   UNL     1     -21.399  -8.874  -1.234  1.00  0.00    -0.038 A 
HETATM    7  C   UNL     1     -21.178 -10.226  -1.547  1.00  0.00     0.048 A 
HETATM    8  C   UNL     1     -22.002 -11.234  -1.032  1.00  0.00     0.101 A 
HETATM    9  C   UNL     1     -23.066 -10.873  -0.194  1.00  0.00     0.099 A 
HETATM   10  C   UNL     1     -23.305  -9.535   0.125  1.00  0.00     0.040 A 
HETATM   11  C   UNL     1     -22.474  -8.541  -0.396  1.00  0.00     0.012 A 
BRANCH   8  12
HETATM   12  O   UNL     1     -21.860 -12.573  -1.289  1.00  0.00    -0.353 OA
HETATM   13  C   UNL     1     -20.817 -13.261  -0.612  1.00  0.00     0.210 C 
ENDBRANCH   8  12
BRANCH   9  14
HETATM   14  O   UNL     1     -23.887 -11.847   0.310  1.00  0.00    -0.358 OA
HETATM   15  H   UNL     1     -23.566 -12.108   1.187  1.00  0.00     0.217 HD
ENDBRANCH   9  14
ENDBRANCH   5   6
ENDBRANCH   1   5
BRANCH   2  16
HETATM   16  C   UNL     1     -22.011  -6.474  -5.080  1.00  0.00     0.103 C 
BRANCH  16  17
HETATM   17  C   UNL     1     -20.691  -6.303  -5.833  1.00  0.00     0.010 C 
BRANCH  17  18
HETATM   18  C   UNL     1     -20.316  -4.828  -6.009  1.00  0.00     0.004 C 
BRANCH  18  19
HETATM   19  C   UNL     1     -19.324  -4.647  -7.155  1.00  0.00     0.027 C 
BRANCH  19  20
HETATM   20  C   UNL     1     -20.011  -4.779  -8.484  1.00  0.00    -0.030 C 
HETATM   21  C   UNL     1     -21.143  -4.136  -8.803  1.00  0.00    -0.027 C 
BRANCH  21  22
HETATM   22  C   UNL     1     -21.839  -4.270 -10.133  1.00  0.00    -0.001 C 
HETATM   23  C   UNL     1     -23.253  -3.697 -10.047  1.00  0.00     0.013 C 
HETATM   24  C   UNL     1     -21.038  -3.562 -11.224  1.00  0.00     0.013 C 
ENDBRANCH  21  22
ENDBRANCH  19  20
ENDBRANCH  18  19
ENDBRANCH  17  18
ENDBRANCH  16  17
ENDBRANCH   2  16
TORSDOF 10
ENDMDL
MODEL 8
REMARK VINA RESULT:      -6.6     11.766     14.023
REMARK  10 active torsions:
REMARK  status: ('A' for Active; 'I' for Inactive)
REMARK    1  A    between atoms: O_2  and  C_3 
REMARK    2  A    between atoms: C_5  and  C_6 
REMARK    3  A    between atoms: C_6  and  N_7 
REMARK       I    between atoms: N_7  and  C_8 
REMARK    4  A    between atoms: C_8  and  C_10 
REMARK    5  A    between atoms: C_10  and  C_11 
REMARK    6  A    between atoms: C_11  and  C_12 
REMARK    7  A    between atoms: C_12  and  C_13 
REMARK    8  A    between atoms: C_13  and  C_14 
REMARK    9  A    between atoms: C_15  and  C_16 
REMARK   10  A    between atoms: C_21  and  O_22 
ROOT
HETATM    1  N   UNL     1     -30.448  -5.327 -17.669  1.00  0.00    -0.357 N 
HETATM    2  C   UNL     1     -31.237  -4.271 -17.280  1.00  0.00     0.217 C 
HETATM    3  O   UNL     1     -30.911  -3.097 -17.421  1.00  0.00    -0.274 OA
HETATM    4  H   UNL     1     -30.752  -6.276 -17.499  1.00  0.00     0.162 HD
ENDROOT
BRANCH   1   5
HETATM    5  C   UNL     1     -29.168  -5.123 -18.310  1.00  0.00     0.161 C 
BRANCH   5   6
HETATM    6  C   UNL     1     -28.031  -5.682 -17.493  1.00  0.00    -0.038 A 
HETATM    7  C   UNL     1     -26.786  -5.951 -18.090  1.00  0.00     0.048 A 
HETATM    8  C   UNL     1     -25.738  -6.520 -17.357  1.00  0.00     0.101 A 
HETATM    9  C   UNL     1     -25.949  -6.827 -16.006  1.00  0.00     0.099 A 
HETATM   10  C   UNL     1     -27.178  -6.571 -15.396  1.00  0.00     0.040 A 
HETATM   11  C   UNL     1     -28.215  -6.003 -16.140  1.00  0.00     0.012 A 
BRANCH   8  12
HETATM   12  O   UNL     1     -24.498  -6.817 -17.860  1.00  0.00    -0.353 OA
HETATM   13  C   UNL     1     -24.410  -7.115 -19.246  1.00  0.00     0.210 C 
ENDBRANCH   8  12
BRANCH   9  14
HETATM   14  O   UNL     1     -24.936  -7.392 -15.278  1.00  0.00    -0.358 OA
HETATM   15  H   UNL     1     -25.264  -8.200 -14.853  1.00  0.00     0.217 HD
ENDBRANCH   9  14
ENDBRANCH   5   6
ENDBRANCH   1   5
BRANCH   2  16
HETATM   16  C   UNL     1     -32.546  -4.689 -16.637  1.00  0.00     0.103 C 
BRANCH  16  17
HETATM   17  C   UNL     1     -33.618  -3.607 -16.760  1.00  0.00     0.010 C 
BRANCH  17  18
HETATM   18  C   UNL     1     -34.422  -3.444 -15.465  1.00  0.00     0.004 C 
BRANCH  18  19
HETATM   19  C   UNL     1     -34.573  -4.780 -14.742  1.00  0.00     0.027 C 
BRANCH  19  20
HETATM   20  C   UNL     1     -34.359  -4.617 -13.264  1.00  0.00    -0.030 C 
HETATM   21  C   UNL     1     -33.408  -3.834 -12.733  1.00  0.00    -0.027 C 
BRANCH  21  22
HETATM   22  C   UNL     1     -33.186  -3.671 -11.251  1.00  0.00    -0.001 C 
HETATM   23  C   UNL     1     -33.464  -2.228 -10.834  1.00  0.00     0.013 C 
HETATM   24  C   UNL     1     -34.078  -4.637 -10.472  1.00  0.00     0.013 C 
ENDBRANCH  21  22
ENDBRANCH  19  20
ENDBRANCH  18  19
ENDBRANCH  17  18
ENDBRANCH  16  17
ENDBRANCH   2  16
TORSDOF 10
ENDMDL
MODEL 9
REMARK VINA RESULT:      -6.6     12.642     15.708
REMARK  10 active torsions:
REMARK  status: ('A' for Active; 'I' for Inactive)
REMARK    1  A    between atoms: O_2  and  C_3 
REMARK    2  A    between atoms: C_5  and  C_6 
REMARK    3  A    between atoms: C_6  and  N_7 
REMARK       I    between atoms: N_7  and  C_8 
REMARK    4  A    between atoms: C_8  and  C_10 
REMARK    5  A    between atoms: C_10  and  C_11 
REMARK    6  A    between atoms: C_11  and  C_12 
REMARK    7  A    between atoms: C_12  and  C_13 
REMARK    8  A    between atoms: C_13  and  C_14 
REMARK    9  A    between atoms: C_15  and  C_16 
REMARK   10  A    between atoms: C_21  and  O_22 
ROOT
HETATM    1  N   UNL     1     -33.500  -3.990 -14.338  1.00  0.00    -0.357 N 
HETATM    2  C   UNL     1     -34.045  -4.449 -15.514  1.00  0.00     0.217 C 
HETATM    3  O   UNL     1     -35.054  -5.144 -15.564  1.00  0.00    -0.274 OA
HETATM    4  H   UNL     1     -32.646  -3.449 -14.353  1.00  0.00     0.162 HD
ENDROOT
BRANCH   1   5
HETATM    5  C   UNL     1     -34.110  -4.273 -13.058  1.00  0.00     0.161 C 
BRANCH   5   6
HETATM    6  C   UNL     1     -34.737  -3.046 -12.446  1.00  0.00    -0.038 A 
HETATM    7  C   UNL     1     -34.966  -1.896 -13.223  1.00  0.00     0.048 A 
HETATM    8  C   UNL     1     -35.497  -0.732 -12.657  1.00  0.00     0.101 A 
HETATM    9  C   UNL     1     -35.797  -0.724 -11.288  1.00  0.00     0.099 A 
HETATM   10  C   UNL     1     -35.573  -1.853 -10.499  1.00  0.00     0.040 A 
HETATM   11  C   UNL     1     -35.042  -3.008 -11.078  1.00  0.00     0.012 A 
BRANCH   8  12
HETATM   12  O   UNL     1     -35.748   0.430 -13.339  1.00  0.00    -0.353 OA
HETATM   13  C   UNL     1     -34.637   1.101 -13.917  1.00  0.00     0.210 C 
ENDBRANCH   8  12
BRANCH   9  14
HETATM   14  O   UNL     1     -36.309   0.411 -10.717  1.00  0.00    -0.358 OA
HETATM   15  H   UNL     1     -37.276   0.344 -10.691  1.00  0.00     0.217 HD
ENDBRANCH   9  14
ENDBRANCH   5   6
ENDBRANCH   1   5
BRANCH   2  16
HETATM   16  C   UNL     1     -33.267  -4.038 -16.749  1.00  0.00     0.103 C 
BRANCH  16  17
HETATM   17  C   UNL     1     -31.786  -4.404 -16.644  1.00  0.00     0.010 C 
BRANCH  17  18
HETATM   18  C   UNL     1     -30.935  -3.663 -17.680  1.00  0.00     0.004 C 
BRANCH  18  19
HETATM   19  C   UNL     1     -29.484  -3.549 -17.218  1.00  0.00     0.027 C 
BRANCH  19  20
HETATM   20  C   UNL     1     -28.946  -4.890 -16.809  1.00  0.00    -0.030 C 
HETATM   21  C   UNL     1     -27.658  -5.242 -16.932  1.00  0.00    -0.027 C 
BRANCH  21  22
HETATM   22  C   UNL     1     -27.114  -6.589 -16.528  1.00  0.00    -0.001 C 
HETATM   23  C   UNL     1     -25.719  -6.432 -15.923  1.00  0.00     0.013 C 
HETATM   24  C   UNL     1     -28.058  -7.265 -15.534  1.00  0.00     0.013 C 
ENDBRANCH  21  22
ENDBRANCH  19  20
ENDBRANCH  18  19
ENDBRANCH  17  18
ENDBRANCH  16  17
ENDBRANCH   2  16
TORSDOF 10
ENDMDL
