REMARK  10 active torsions:
REMARK  status: ('A' for Active; 'I' for Inactive)
REMARK    1  A    between atoms: O_2  and  C_3 
REMARK    2  A    between atoms: C_5  and  C_6 
REMARK    3  A    between atoms: C_6  and  N_7 
REMARK       I    between atoms: N_7  and  C_8 
REMARK    4  A    between atoms: C_8  and  C_10 
REMARK    5  A    between atoms: C_10  and  C_11 
REMARK    6  A    between atoms: C_11  and  C_12 
REMARK    7  A    between atoms: C_12  and  C_13 
REMARK    8  A    between atoms: C_13  and  C_14 
REMARK    9  A    between atoms: C_15  and  C_16 
REMARK   10  A    between atoms: C_21  and  O_22 
ROOT
HETATM    1  N   UNL     1       1.057   4.942  -0.611  1.00  0.00    -0.357 N 
HETATM    2  C   UNL     1       0.356   5.927   0.044  1.00  0.00     0.217 C 
HETATM    3  O   UNL     1       0.891   6.885   0.592  1.00  0.00    -0.274 OA
HETATM    4  H   UNL     1       0.567   4.156  -1.016  1.00  0.00     0.162 HD
ENDROOT
BRANCH   1   5
HETATM    5  C   UNL     1       2.497   4.985  -0.728  1.00  0.00     0.161 C 
BRANCH   5   6
HETATM    6  C   UNL     1       2.948   4.988  -2.167  1.00  0.00    -0.038 A 
HETATM    7  C   UNL     1       3.803   3.982  -2.651  1.00  0.00     0.048 A 
HETATM    8  C   UNL     1       4.273   4.002  -3.969  1.00  0.00     0.101 A 
HETATM    9  C   UNL     1       3.880   5.052  -4.810  1.00  0.00     0.099 A 
HETATM   10  C   UNL     1       3.035   6.062  -4.347  1.00  0.00     0.040 A 
HETATM   11  C   UNL     1       2.574   6.029  -3.029  1.00  0.00     0.012 A 
BRANCH   8  12
HETATM   12  O   UNL     1       5.110   3.066  -4.519  1.00  0.00    -0.353 OA
HETATM   13  C   UNL     1       5.532   1.996  -3.685  1.00  0.00     0.210 C 
ENDBRANCH   8  12
BRANCH   9  14
HETATM   14  O   UNL     1       4.339   5.090  -6.100  1.00  0.00    -0.358 OA
HETATM   15  H   UNL     1       4.004   5.891  -6.531  1.00  0.00     0.217 HD
ENDBRANCH   9  14
ENDBRANCH   5   6
ENDBRANCH   1   5
BRANCH   2  16
HETATM   16  C   UNL     1      -1.145   5.709   0.049  1.00  0.00     0.103 C 
BRANCH  16  17
HETATM   17  C   UNL     1      -1.917   7.028   0.083  1.00  0.00     0.010 C 
BRANCH  17  18
HETATM   18  C   UNL     1      -1.652   7.882  -1.161  1.00  0.00     0.004 C 
BRANCH  18  19
HETATM   19  C   UNL     1      -2.436   9.191  -1.105  1.00  0.00     0.027 C 
BRANCH  19  20
HETATM   20  C   UNL     1      -2.162  10.032  -2.319  1.00  0.00    -0.030 C 
HETATM   21  C   UNL     1      -3.111  10.422  -3.182  1.00  0.00    -0.027 C 
BRANCH  21  22
HETATM   22  C   UNL     1      -2.840  11.261  -4.405  1.00  0.00    -0.001 C 
HETATM   23  C   UNL     1      -3.270  10.509  -5.664  1.00  0.00     0.013 C 
HETATM   24  C   UNL     1      -3.571  12.599  -4.302  1.00  0.00     0.013 C 
ENDBRANCH  21  22
ENDBRANCH  19  20
ENDBRANCH  18  19
ENDBRANCH  17  18
ENDBRANCH  16  17
ENDBRANCH   2  16
TORSDOF 10
