MODEL 1
REMARK VINA RESULT:      -7.0      0.000      0.000
REMARK  10 active torsions:
REMARK  status: ('A' for Active; 'I' for Inactive)
REMARK    1  A    between atoms: N_7  and  C_21 
REMARK       I    between atoms: N_7  and  C_8 
REMARK    2  A    between atoms: C_8  and  C_9 
REMARK    3  A    between atoms: C_9  and  C_10 
REMARK    4  A    between atoms: C_9  and  N_14 
REMARK    5  A    between atoms: C_10  and  C_11 
REMARK       I    between atoms: C_11  and  N_12 
REMARK    6  A    between atoms: C_19  and  C_21 
REMARK    7  A    between atoms: C_21  and  C_22 
REMARK    8  A    between atoms: C_22  and  O_23 
REMARK    9  A    between atoms: O_23  and  P_24 
REMARK   10  A    between atoms: P_24  and  O_26 
ROOT
HETATM    1  N           1     -34.905  -1.732 -13.011  0.00  0.00    -0.343 N 
HETATM    2  C           1     -34.199  -2.595 -12.218  0.00  0.00     0.249 C 
HETATM    3  O           1     -33.666  -2.192 -11.211  0.00  0.00    -0.271 OA
HETATM    4  H           1     -35.352  -2.070 -13.854  0.00  0.00     0.163 HD
ENDROOT
BRANCH   1   5
HETATM    5  C           1     -35.016  -0.335 -12.642  0.00  0.00     0.210 C 
BRANCH   5   6
HETATM    6  C           1     -36.241  -0.137 -11.782  0.00  0.00     0.198 C 
HETATM    7  O           1     -36.161   0.524 -10.724  0.00  0.00    -0.646 OA
HETATM    8  O           1     -37.333  -0.635 -12.127  0.00  0.00    -0.646 OA
ENDBRANCH   5   6
BRANCH   5   9
HETATM    9  C           1     -35.139   0.513 -13.902  0.00  0.00     0.217 C 
BRANCH   9  10
HETATM   10  O           1     -35.233  -0.324 -15.023  0.00  0.00    -0.287 OA
BRANCH  10  11
HETATM   11  P           1     -36.553  -0.140 -15.936  0.00  0.00     0.406 P 
HETATM   12  O           1     -37.706  -0.789 -15.273  0.00  0.00    -0.624 OA
HETATM   13  O           1     -36.833   1.302 -16.114  0.00  0.00    -0.624 OA
BRANCH  11  14
HETATM   14  O           1     -36.306  -0.822 -17.379  0.00  0.00    -0.300 OA
HETATM   15  H           1     -36.549  -1.726 -17.266  0.00  0.00     0.223 HD
ENDBRANCH  11  14
ENDBRANCH  10  11
ENDBRANCH   9  10
ENDBRANCH   5   9
ENDBRANCH   1   5
BRANCH   2  16
HETATM   16  C           1     -34.083  -4.050 -12.602  0.00  0.00     0.283 C 
BRANCH  16  17
HETATM   17  C           1     -33.087  -4.742 -11.679  0.00  0.00     0.145 C 
BRANCH  17  18
HETATM   18  C           1     -33.783  -5.853 -10.931  0.00  0.00     0.217 C 
HETATM   19  N           1     -33.229  -7.104 -10.893  0.00  0.00    -0.370 N 
HETATM   20  H           1     -33.695  -7.849 -10.391  0.00  0.00     0.159 HD
HETATM   21  H           1     -32.353  -7.284 -11.367  0.00  0.00     0.159 HD
HETATM   22  O           1     -34.829  -5.638 -10.366  0.00  0.00    -0.274 OA
ENDBRANCH  17  18
ENDBRANCH  16  17
BRANCH  16  23
HETATM   23  N           1     -33.606  -4.156 -14.020  0.00  0.00    -0.066 N 
HETATM   24  H           1     -33.160  -5.090 -14.168  0.00  0.00     0.275 HD
HETATM   25  H           1     -34.419  -4.052 -14.668  0.00  0.00     0.275 HD
HETATM   26  H           1     -32.909  -3.403 -14.211  0.00  0.00     0.275 HD
ENDBRANCH  16  23
ENDBRANCH   2  16
TORSDOF 10
ENDMDL
MODEL 2
REMARK VINA RESULT:      -6.9      9.544     11.551
REMARK  10 active torsions:
REMARK  status: ('A' for Active; 'I' for Inactive)
REMARK    1  A    between atoms: N_7  and  C_21 
REMARK       I    between atoms: N_7  and  C_8 
REMARK    2  A    between atoms: C_8  and  C_9 
REMARK    3  A    between atoms: C_9  and  C_10 
REMARK    4  A    between atoms: C_9  and  N_14 
REMARK    5  A    between atoms: C_10  and  C_11 
REMARK       I    between atoms: C_11  and  N_12 
REMARK    6  A    between atoms: C_19  and  C_21 
REMARK    7  A    between atoms: C_21  and  C_22 
REMARK    8  A    between atoms: C_22  and  O_23 
REMARK    9  A    between atoms: O_23  and  P_24 
REMARK   10  A    between atoms: P_24  and  O_26 
ROOT
HETATM    1  N           1     -27.983  -7.023 -18.947  0.00  0.00    -0.343 N 
HETATM    2  C           1     -28.865  -6.014 -18.669  0.00  0.00     0.249 C 
HETATM    3  O           1     -28.629  -4.887 -19.036  0.00  0.00    -0.271 OA
HETATM    4  H           1     -28.182  -7.966 -18.640  0.00  0.00     0.163 HD
ENDROOT
BRANCH   1   5
HETATM    5  C           1     -26.766  -6.740 -19.681  0.00  0.00     0.210 C 
BRANCH   5   6
HETATM    6  C           1     -26.549  -7.808 -20.725  0.00  0.00     0.198 C 
HETATM    7  O           1     -27.521  -8.458 -21.166  0.00  0.00    -0.646 OA
HETATM    8  O           1     -25.397  -8.043 -21.147  0.00  0.00    -0.646 OA
ENDBRANCH   5   6
BRANCH   5   9
HETATM    9  C           1     -25.586  -6.724 -18.718  0.00  0.00     0.217 C 
BRANCH   9  10
HETATM   10  O           1     -25.983  -6.153 -17.500  0.00  0.00    -0.287 OA
BRANCH  10  11
HETATM   11  P           1     -25.363  -6.824 -16.168  0.00  0.00     0.406 P 
HETATM   12  O           1     -26.452  -7.423 -15.365  0.00  0.00    -0.624 OA
HETATM   13  O           1     -24.395  -7.875 -16.549  0.00  0.00    -0.624 OA
BRANCH  11  14
HETATM   14  O           1     -24.611  -5.690 -15.297  0.00  0.00    -0.300 OA
HETATM   15  H           1     -24.111  -5.194 -15.923  0.00  0.00     0.223 HD
ENDBRANCH  11  14
ENDBRANCH  10  11
ENDBRANCH   9  10
ENDBRANCH   5   9
ENDBRANCH   1   5
BRANCH   2  16
HETATM   16  C           1     -30.133  -6.308 -17.905  0.00  0.00     0.283 C 
BRANCH  16  17
HETATM   17  C           1     -30.227  -5.382 -16.699  0.00  0.00     0.145 C 
BRANCH  17  18
HETATM   18  C           1     -31.255  -4.310 -16.966  0.00  0.00     0.217 C 
HETATM   19  N           1     -30.926  -3.222 -17.728  0.00  0.00    -0.370 N 
HETATM   20  H           1     -31.616  -2.503 -17.908  0.00  0.00     0.159 HD
HETATM   21  H           1     -29.994  -3.135 -18.111  0.00  0.00     0.159 HD
HETATM   22  O           1     -32.369  -4.414 -16.509  0.00  0.00    -0.274 OA
ENDBRANCH  17  18
ENDBRANCH  16  17
BRANCH  16  23
HETATM   23  N           1     -30.116  -7.734 -17.439  0.00  0.00    -0.066 N 
HETATM   24  H           1     -31.072  -8.006 -17.116  0.00  0.00     0.275 HD
HETATM   25  H           1     -29.825  -8.354 -18.228  0.00  0.00     0.275 HD
HETATM   26  H           1     -29.440  -7.834 -16.649  0.00  0.00     0.275 HD
ENDBRANCH  16  23
ENDBRANCH   2  16
TORSDOF 10
ENDMDL
MODEL 3
REMARK VINA RESULT:      -6.7      2.672      5.528
REMARK  10 active torsions:
REMARK  status: ('A' for Active; 'I' for Inactive)
REMARK    1  A    between atoms: N_7  and  C_21 
REMARK       I    between atoms: N_7  and  C_8 
REMARK    2  A    between atoms: C_8  and  C_9 
REMARK    3  A    between atoms: C_9  and  C_10 
REMARK    4  A    between atoms: C_9  and  N_14 
REMARK    5  A    between atoms: C_10  and  C_11 
REMARK       I    between atoms: C_11  and  N_12 
REMARK    6  A    between atoms: C_19  and  C_21 
REMARK    7  A    between atoms: C_21  and  C_22 
REMARK    8  A    between atoms: C_22  and  O_23 
REMARK    9  A    between atoms: O_23  and  P_24 
REMARK   10  A    between atoms: P_24  and  O_26 
ROOT
HETATM    1  N           1     -34.754  -1.820 -13.000  0.00  0.00    -0.343 N 
HETATM    2  C           1     -35.818  -0.979 -12.822  0.00  0.00     0.249 C 
HETATM    3  O           1     -36.655  -1.232 -11.987  0.00  0.00    -0.271 OA
HETATM    4  H           1     -34.053  -1.608 -13.700  0.00  0.00     0.163 HD
ENDROOT
BRANCH   1   5
HETATM    5  C           1     -34.627  -3.013 -12.187  0.00  0.00     0.210 C 
BRANCH   5   6
HETATM    6  C           1     -33.437  -2.872 -11.270  0.00  0.00     0.198 C 
HETATM    7  O           1     -33.327  -1.865 -10.538  0.00  0.00    -0.646 OA
HETATM    8  O           1     -32.561  -3.763 -11.242  0.00  0.00    -0.646 OA
ENDBRANCH   5   6
BRANCH   5   9
HETATM    9  C           1     -34.432  -4.223 -13.091  0.00  0.00     0.217 C 
BRANCH   9  10
HETATM   10  O           1     -33.524  -3.905 -14.110  0.00  0.00    -0.287 OA
BRANCH  10  11
HETATM   11  P           1     -34.075  -4.053 -15.622  0.00  0.00     0.406 P 
HETATM   12  O           1     -34.896  -2.871 -15.966  0.00  0.00    -0.624 OA
HETATM   13  O           1     -32.932  -4.150 -16.556  0.00  0.00    -0.624 OA
BRANCH  11  14
HETATM   14  O           1     -34.976  -5.388 -15.736  0.00  0.00    -0.300 OA
HETATM   15  H           1     -35.282  -5.551 -14.859  0.00  0.00     0.223 HD
ENDBRANCH  11  14
ENDBRANCH  10  11
ENDBRANCH   9  10
ENDBRANCH   5   9
ENDBRANCH   1   5
BRANCH   2  16
HETATM   16  C           1     -35.950   0.263 -13.669  0.00  0.00     0.283 C 
BRANCH  16  17
HETATM   17  C           1     -37.083   0.078 -14.671  0.00  0.00     0.145 C 
BRANCH  17  18
HETATM   18  C           1     -36.599   0.452 -16.051  0.00  0.00     0.217 C 
HETATM   19  N           1     -36.411  -0.520 -16.996  0.00  0.00    -0.370 N 
HETATM   20  H           1     -36.088  -0.269 -17.922  0.00  0.00     0.159 HD
HETATM   21  H           1     -36.596  -1.489 -16.770  0.00  0.00     0.159 HD
HETATM   22  O           1     -36.379   1.609 -16.321  0.00  0.00    -0.274 OA
ENDBRANCH  17  18
ENDBRANCH  16  17
BRANCH  16  23
HETATM   23  N           1     -34.666   0.503 -14.406  0.00  0.00    -0.066 N 
HETATM   24  H           1     -34.863   1.038 -15.283  0.00  0.00     0.275 HD
HETATM   25  H           1     -34.016   1.054 -13.801  0.00  0.00     0.275 HD
HETATM   26  H           1     -34.226  -0.412 -14.648  0.00  0.00     0.275 HD
ENDBRANCH  16  23
ENDBRANCH   2  16
TORSDOF 10
ENDMDL
MODEL 4
REMARK VINA RESULT:      -6.5      3.316      5.372
REMARK  10 active torsions:
REMARK  status: ('A' for Active; 'I' for Inactive)
REMARK    1  A    between atoms: N_7  and  C_21 
REMARK       I    between atoms: N_7  and  C_8 
REMARK    2  A    between atoms: C_8  and  C_9 
REMARK    3  A    between atoms: C_9  and  C_10 
REMARK    4  A    between atoms: C_9  and  N_14 
REMARK    5  A    between atoms: C_10  and  C_11 
REMARK       I    between atoms: C_11  and  N_12 
REMARK    6  A    between atoms: C_19  and  C_21 
REMARK    7  A    between atoms: C_21  and  C_22 
REMARK    8  A    between atoms: C_22  and  O_23 
REMARK    9  A    between atoms: O_23  and  P_24 
REMARK   10  A    between atoms: P_24  and  O_26 
ROOT
HETATM    1  N           1     -35.928  -0.041 -12.304  0.00  0.00    -0.343 N 
HETATM    2  C           1     -36.444  -0.111 -13.570  0.00  0.00     0.249 C 
HETATM    3  O           1     -37.419  -0.790 -13.788  0.00  0.00    -0.271 OA
HETATM    4  H           1     -35.111   0.529 -12.122  0.00  0.00     0.163 HD
ENDROOT
BRANCH   1   5
HETATM    5  C           1     -36.552  -0.779 -11.225  0.00  0.00     0.210 C 
BRANCH   5   6
HETATM    6  C           1     -36.943   0.175 -10.123  0.00  0.00     0.198 C 
HETATM    7  O           1     -36.254   0.246  -9.083  0.00  0.00    -0.646 OA
HETATM    8  O           1     -37.957   0.895 -10.251  0.00  0.00    -0.646 OA
ENDBRANCH   5   6
BRANCH   5   9
HETATM    9  C           1     -35.570  -1.808 -10.681  0.00  0.00     0.217 C 
BRANCH   9  10
HETATM   10  O           1     -35.753  -3.028 -11.346  0.00  0.00    -0.287 OA
BRANCH  10  11
HETATM   11  P           1     -34.454  -3.627 -12.098  0.00  0.00     0.406 P 
HETATM   12  O           1     -33.228  -3.124 -11.441  0.00  0.00    -0.624 OA
HETATM   13  O           1     -34.482  -5.105 -12.028  0.00  0.00    -0.624 OA
BRANCH  11  14
HETATM   14  O           1     -34.468  -3.162 -13.645  0.00  0.00    -0.300 OA
HETATM   15  H           1     -33.603  -2.826 -13.805  0.00  0.00     0.223 HD
ENDBRANCH  11  14
ENDBRANCH  10  11
ENDBRANCH   9  10
ENDBRANCH   5   9
ENDBRANCH   1   5
BRANCH   2  16
HETATM   16  C           1     -35.794   0.658 -14.694  0.00  0.00     0.283 C 
BRANCH  16  17
HETATM   17  C           1     -34.772  -0.229 -15.394  0.00  0.00     0.145 C 
BRANCH  17  18
HETATM   18  C           1     -35.484  -1.174 -16.332  0.00  0.00     0.217 C 
HETATM   19  N           1     -36.541  -0.728 -17.078  0.00  0.00    -0.370 N 
HETATM   20  H           1     -37.018  -1.361 -17.707  0.00  0.00     0.159 HD
HETATM   21  H           1     -36.846   0.234 -17.000  0.00  0.00     0.159 HD
HETATM   22  O           1     -35.119  -2.322 -16.424  0.00  0.00    -0.274 OA
ENDBRANCH  17  18
ENDBRANCH  16  17
BRANCH  16  23
HETATM   23  N           1     -35.105   1.869 -14.138  0.00  0.00    -0.066 N 
HETATM   24  H           1     -34.117   1.629 -13.898  0.00  0.00     0.275 HD
HETATM   25  H           1     -35.114   2.632 -14.853  0.00  0.00     0.275 HD
HETATM   26  H           1     -35.605   2.191 -13.279  0.00  0.00     0.275 HD
ENDBRANCH  16  23
ENDBRANCH   2  16
TORSDOF 10
ENDMDL
MODEL 5
REMARK VINA RESULT:      -6.5      3.485      5.719
REMARK  10 active torsions:
REMARK  status: ('A' for Active; 'I' for Inactive)
REMARK    1  A    between atoms: N_7  and  C_21 
REMARK       I    between atoms: N_7  and  C_8 
REMARK    2  A    between atoms: C_8  and  C_9 
REMARK    3  A    between atoms: C_9  and  C_10 
REMARK    4  A    between atoms: C_9  and  N_14 
REMARK    5  A    between atoms: C_10  and  C_11 
REMARK       I    between atoms: C_11  and  N_12 
REMARK    6  A    between atoms: C_19  and  C_21 
REMARK    7  A    between atoms: C_21  and  C_22 
REMARK    8  A    between atoms: C_22  and  O_23 
REMARK    9  A    between atoms: O_23  and  P_24 
REMARK   10  A    between atoms: P_24  and  O_26 
ROOT
HETATM    1  N           1     -36.061   0.099 -11.713  0.00  0.00    -0.343 N 
HETATM    2  C           1     -36.549  -0.070 -12.980  0.00  0.00     0.249 C 
HETATM    3  O           1     -37.539  -0.738 -13.162  0.00  0.00    -0.271 OA
HETATM    4  H           1     -35.231   0.659 -11.561  0.00  0.00     0.163 HD
ENDROOT
BRANCH   1   5
HETATM    5  C           1     -36.732  -0.523 -10.588  0.00  0.00     0.210 C 
BRANCH   5   6
HETATM    6  C           1     -36.931   0.499  -9.495  0.00  0.00     0.198 C 
HETATM    7  O           1     -37.780   1.405  -9.634  0.00  0.00    -0.646 OA
HETATM    8  O           1     -36.247   0.437  -8.451  0.00  0.00    -0.646 OA
ENDBRANCH   5   6
BRANCH   5   9
HETATM    9  C           1     -35.881  -1.671 -10.062  0.00  0.00     0.217 C 
BRANCH   9  10
HETATM   10  O           1     -36.052  -2.795 -10.882  0.00  0.00    -0.287 OA
BRANCH  10  11
HETATM   11  P           1     -34.709  -3.398 -11.547  0.00  0.00     0.406 P 
HETATM   12  O           1     -34.247  -2.498 -12.628  0.00  0.00    -0.624 OA
HETATM   13  O           1     -33.655  -3.512 -10.515  0.00  0.00    -0.624 OA
BRANCH  11  14
HETATM   14  O           1     -35.023  -4.860 -12.158  0.00  0.00    -0.300 OA
HETATM   15  H           1     -34.402  -5.435 -11.744  0.00  0.00     0.223 HD
ENDBRANCH  11  14
ENDBRANCH  10  11
ENDBRANCH   9  10
ENDBRANCH   5   9
ENDBRANCH   1   5
BRANCH   2  16
HETATM   16  C           1     -35.850   0.577 -14.150  0.00  0.00     0.283 C 
BRANCH  16  17
HETATM   17  C           1     -35.606  -0.464 -15.237  0.00  0.00     0.145 C 
BRANCH  17  18
HETATM   18  C           1     -36.675  -0.344 -16.296  0.00  0.00     0.217 C 
HETATM   19  N           1     -37.742   0.491 -16.100  0.00  0.00    -0.370 N 
HETATM   20  H           1     -38.458   0.572 -16.811  0.00  0.00     0.159 HD
HETATM   21  H           1     -37.814   1.028 -15.246  0.00  0.00     0.159 HD
HETATM   22  O           1     -36.588  -0.985 -17.317  0.00  0.00    -0.274 OA
ENDBRANCH  17  18
ENDBRANCH  16  17
BRANCH  16  23
HETATM   23  N           1     -34.536   1.142 -13.698  0.00  0.00    -0.066 N 
HETATM   24  H           1     -33.908   0.364 -13.394  0.00  0.00     0.275 HD
HETATM   25  H           1     -34.091   1.660 -14.489  0.00  0.00     0.275 HD
HETATM   26  H           1     -34.694   1.794 -12.898  0.00  0.00     0.275 HD
ENDBRANCH  16  23
ENDBRANCH   2  16
TORSDOF 10
ENDMDL
MODEL 6
REMARK VINA RESULT:      -6.5     10.441     11.842
REMARK  10 active torsions:
REMARK  status: ('A' for Active; 'I' for Inactive)
REMARK    1  A    between atoms: N_7  and  C_21 
REMARK       I    between atoms: N_7  and  C_8 
REMARK    2  A    between atoms: C_8  and  C_9 
REMARK    3  A    between atoms: C_9  and  C_10 
REMARK    4  A    between atoms: C_9  and  N_14 
REMARK    5  A    between atoms: C_10  and  C_11 
REMARK       I    between atoms: C_11  and  N_12 
REMARK    6  A    between atoms: C_19  and  C_21 
REMARK    7  A    between atoms: C_21  and  C_22 
REMARK    8  A    between atoms: C_22  and  O_23 
REMARK    9  A    between atoms: O_23  and  P_24 
REMARK   10  A    between atoms: P_24  and  O_26 
ROOT
HETATM    1  N           1     -26.563  -6.698 -18.144  0.00  0.00    -0.343 N 
HETATM    2  C           1     -25.486  -6.861 -18.972  0.00  0.00     0.249 C 
HETATM    3  O           1     -24.412  -6.398 -18.666  0.00  0.00    -0.271 OA
HETATM    4  H           1     -27.461  -7.086 -18.401  0.00  0.00     0.163 HD
ENDROOT
BRANCH   1   5
HETATM    5  C           1     -26.417  -5.971 -16.899  0.00  0.00     0.210 C 
BRANCH   5   6
HETATM    6  C           1     -26.368  -6.947 -15.749  0.00  0.00     0.198 C 
HETATM    7  O           1     -25.274  -7.432 -15.386  0.00  0.00    -0.646 OA
HETATM    8  O           1     -27.421  -7.271 -15.160  0.00  0.00    -0.646 OA
ENDBRANCH   5   6
BRANCH   5   9
HETATM    9  C           1     -27.603  -5.032 -16.719  0.00  0.00     0.217 C 
BRANCH   9  10
HETATM   10  O           1     -28.608  -5.366 -17.637  0.00  0.00    -0.287 OA
BRANCH  10  11
HETATM   11  P           1     -30.108  -5.453 -17.045  0.00  0.00     0.406 P 
HETATM   12  O           1     -30.873  -4.256 -17.459  0.00  0.00    -0.624 OA
HETATM   13  O           1     -30.774  -6.668 -17.565  0.00  0.00    -0.624 OA
BRANCH  11  14
HETATM   14  O           1     -30.045  -5.524 -15.433  0.00  0.00    -0.300 OA
HETATM   15  H           1     -30.246  -6.420 -15.220  0.00  0.00     0.223 HD
ENDBRANCH  11  14
ENDBRANCH  10  11
ENDBRANCH   9  10
ENDBRANCH   5   9
ENDBRANCH   1   5
BRANCH   2  16
HETATM   16  C           1     -25.638  -7.618 -20.269  0.00  0.00     0.283 C 
BRANCH  16  17
HETATM   17  C           1     -24.650  -7.076 -21.294  0.00  0.00     0.145 C 
BRANCH  17  18
HETATM   18  C           1     -23.768  -8.198 -21.785  0.00  0.00     0.217 C 
HETATM   19  N           1     -22.797  -8.712 -20.969  0.00  0.00    -0.370 N 
HETATM   20  H           1     -22.206  -9.465 -21.298  0.00  0.00     0.159 HD
HETATM   21  H           1     -22.669  -8.339 -20.037  0.00  0.00     0.159 HD
HETATM   22  O           1     -23.921  -8.643 -22.898  0.00  0.00    -0.274 OA
ENDBRANCH  17  18
ENDBRANCH  16  17
BRANCH  16  23
HETATM   23  N           1     -27.036  -7.448 -20.785  0.00  0.00    -0.066 N 
HETATM   24  H           1     -27.615  -6.956 -20.068  0.00  0.00     0.275 HD
HETATM   25  H           1     -27.015  -6.883 -21.664  0.00  0.00     0.275 HD
HETATM   26  H           1     -27.450  -8.386 -20.983  0.00  0.00     0.275 HD
ENDBRANCH  16  23
ENDBRANCH   2  16
TORSDOF 10
ENDMDL
MODEL 7
REMARK VINA RESULT:      -6.1     13.303     15.412
REMARK  10 active torsions:
REMARK  status: ('A' for Active; 'I' for Inactive)
REMARK    1  A    between atoms: N_7  and  C_21 
REMARK       I    between atoms: N_7  and  C_8 
REMARK    2  A    between atoms: C_8  and  C_9 
REMARK    3  A    between atoms: C_9  and  C_10 
REMARK    4  A    between atoms: C_9  and  N_14 
REMARK    5  A    between atoms: C_10  and  C_11 
REMARK       I    between atoms: C_11  and  N_12 
REMARK    6  A    between atoms: C_19  and  C_21 
REMARK    7  A    between atoms: C_21  and  C_22 
REMARK    8  A    between atoms: C_22  and  O_23 
REMARK    9  A    between atoms: O_23  and  P_24 
REMARK   10  A    between atoms: P_24  and  O_26 
ROOT
HETATM    1  N           1     -21.327  -5.046  -6.488  0.00  0.00    -0.343 N 
HETATM    2  C           1     -21.185  -6.303  -5.966  0.00  0.00     0.249 C 
HETATM    3  O           1     -21.224  -7.267  -6.693  0.00  0.00    -0.271 OA
HETATM    4  H           1     -21.295  -4.239  -5.879  0.00  0.00     0.163 HD
ENDROOT
BRANCH   1   5
HETATM    5  C           1     -21.523  -4.870  -7.913  0.00  0.00     0.210 C 
BRANCH   5   6
HETATM    6  C           1     -20.192  -4.604  -8.574  0.00  0.00     0.198 C 
HETATM    7  O           1     -19.199  -4.298  -7.879  0.00  0.00    -0.646 OA
HETATM    8  O           1     -20.084  -4.688  -9.816  0.00  0.00    -0.646 OA
ENDBRANCH   5   6
BRANCH   5   9
HETATM    9  C           1     -22.455  -3.691  -8.155  0.00  0.00     0.217 C 
BRANCH   9  10
HETATM   10  O           1     -23.650  -4.148  -8.728  0.00  0.00    -0.287 OA
BRANCH  10  11
HETATM   11  P           1     -23.777  -3.979 -10.330  0.00  0.00     0.406 P 
HETATM   12  O           1     -23.824  -5.315 -10.965  0.00  0.00    -0.624 OA
HETATM   13  O           1     -25.016  -3.236 -10.651  0.00  0.00    -0.624 OA
BRANCH  11  14
HETATM   14  O           1     -22.501  -3.162 -10.887  0.00  0.00    -0.300 OA
HETATM   15  H           1     -22.688  -2.258 -10.695  0.00  0.00     0.223 HD
ENDBRANCH  11  14
ENDBRANCH  10  11
ENDBRANCH   9  10
ENDBRANCH   5   9
ENDBRANCH   1   5
BRANCH   2  16
HETATM   16  C           1     -20.982  -6.486  -4.482  0.00  0.00     0.283 C 
BRANCH  16  17
HETATM   17  C           1     -20.591  -7.930  -4.195  0.00  0.00     0.145 C 
BRANCH  17  18
HETATM   18  C           1     -20.927  -8.267  -2.763  0.00  0.00     0.217 C 
HETATM   19  N           1     -21.674  -9.379  -2.480  0.00  0.00    -0.370 N 
HETATM   20  H           1     -21.900  -9.606  -1.519  0.00  0.00     0.159 HD
HETATM   21  H           1     -22.001  -9.974  -3.230  0.00  0.00     0.159 HD
HETATM   22  O           1     -20.537  -7.557  -1.868  0.00  0.00    -0.274 OA
ENDBRANCH  17  18
ENDBRANCH  16  17
BRANCH  16  23
HETATM   23  N           1     -22.256  -6.161  -3.759  0.00  0.00    -0.066 N 
HETATM   24  H           1     -22.399  -5.126  -3.754  0.00  0.00     0.275 HD
HETATM   25  H           1     -23.058  -6.620  -4.246  0.00  0.00     0.275 HD
HETATM   26  H           1     -22.198  -6.510  -2.777  0.00  0.00     0.275 HD
ENDBRANCH  16  23
ENDBRANCH   2  16
TORSDOF 10
ENDMDL
MODEL 8
REMARK VINA RESULT:      -5.8     25.459     26.550
REMARK  10 active torsions:
REMARK  status: ('A' for Active; 'I' for Inactive)
REMARK    1  A    between atoms: N_7  and  C_21 
REMARK       I    between atoms: N_7  and  C_8 
REMARK    2  A    between atoms: C_8  and  C_9 
REMARK    3  A    between atoms: C_9  and  C_10 
REMARK    4  A    between atoms: C_9  and  N_14 
REMARK    5  A    between atoms: C_10  and  C_11 
REMARK       I    between atoms: C_11  and  N_12 
REMARK    6  A    between atoms: C_19  and  C_21 
REMARK    7  A    between atoms: C_21  and  C_22 
REMARK    8  A    between atoms: C_22  and  O_23 
REMARK    9  A    between atoms: O_23  and  P_24 
REMARK   10  A    between atoms: P_24  and  O_26 
ROOT
HETATM    1  N           1     -11.201   5.229 -21.373  0.00  0.00    -0.343 N 
HETATM    2  C           1     -11.606   4.009 -21.841  0.00  0.00     0.249 C 
HETATM    3  O           1     -11.001   3.011 -21.529  0.00  0.00    -0.271 OA
HETATM    4  H           1     -11.708   6.065 -21.634  0.00  0.00     0.163 HD
ENDROOT
BRANCH   1   5
HETATM    5  C           1     -10.047   5.325 -20.502  0.00  0.00     0.210 C 
BRANCH   5   6
HETATM    6  C           1     -10.507   5.470 -19.071  0.00  0.00     0.198 C 
HETATM    7  O           1      -9.683   5.752 -18.175  0.00  0.00    -0.646 OA
HETATM    8  O           1     -11.712   5.308 -18.784  0.00  0.00    -0.646 OA
ENDBRANCH   5   6
BRANCH   5   9
HETATM    9  C           1      -9.216   6.539 -20.894  0.00  0.00     0.217 C 
BRANCH   9  10
HETATM   10  O           1     -10.059   7.546 -21.383  0.00  0.00    -0.287 OA
BRANCH  10  11
HETATM   11  P           1      -9.936   8.986 -20.661  0.00  0.00     0.406 P 
HETATM   12  O           1      -8.711   9.671 -21.130  0.00  0.00    -0.624 OA
HETATM   13  O           1     -11.120   9.808 -20.995  0.00  0.00    -0.624 OA
BRANCH  11  14
HETATM   14  O           1      -9.861   8.779 -19.061  0.00  0.00    -0.300 OA
HETATM   15  H           1      -9.257   8.066 -18.936  0.00  0.00     0.223 HD
ENDBRANCH  11  14
ENDBRANCH  10  11
ENDBRANCH   9  10
ENDBRANCH   5   9
ENDBRANCH   1   5
BRANCH   2  16
HETATM   16  C           1     -12.808   3.910 -22.748  0.00  0.00     0.283 C 
BRANCH  16  17
HETATM   17  C           1     -13.447   5.285 -22.899  0.00  0.00     0.145 C 
BRANCH  17  18
HETATM   18  C           1     -14.654   5.380 -21.997  0.00  0.00     0.217 C 
HETATM   19  N           1     -15.909   5.455 -22.540  0.00  0.00    -0.370 N 
HETATM   20  H           1     -16.718   5.518 -21.935  0.00  0.00     0.159 HD
HETATM   21  H           1     -16.027   5.447 -23.544  0.00  0.00     0.159 HD
HETATM   22  O           1     -14.512   5.389 -20.797  0.00  0.00    -0.274 OA
ENDBRANCH  17  18
ENDBRANCH  16  17
BRANCH  16  23
HETATM   23  N           1     -13.805   2.959 -22.156  0.00  0.00    -0.066 N 
HETATM   24  H           1     -13.801   3.053 -21.115  0.00  0.00     0.275 HD
HETATM   25  H           1     -14.758   3.182 -22.521  0.00  0.00     0.275 HD
HETATM   26  H           1     -13.552   1.980 -22.417  0.00  0.00     0.275 HD
ENDBRANCH  16  23
ENDBRANCH   2  16
TORSDOF 10
ENDMDL
MODEL 9
REMARK VINA RESULT:      -5.7     25.582     26.896
REMARK  10 active torsions:
REMARK  status: ('A' for Active; 'I' for Inactive)
REMARK    1  A    between atoms: N_7  and  C_21 
REMARK       I    between atoms: N_7  and  C_8 
REMARK    2  A    between atoms: C_8  and  C_9 
REMARK    3  A    between atoms: C_9  and  C_10 
REMARK    4  A    between atoms: C_9  and  N_14 
REMARK    5  A    between atoms: C_10  and  C_11 
REMARK       I    between atoms: C_11  and  N_12 
REMARK    6  A    between atoms: C_19  and  C_21 
REMARK    7  A    between atoms: C_21  and  C_22 
REMARK    8  A    between atoms: C_22  and  O_23 
REMARK    9  A    between atoms: O_23  and  P_24 
REMARK   10  A    between atoms: P_24  and  O_26 
ROOT
HETATM    1  N           1     -12.753   7.154 -21.265  0.00  0.00    -0.343 N 
HETATM    2  C           1     -11.860   7.922 -21.962  0.00  0.00     0.249 C 
HETATM    3  O           1     -11.059   7.398 -22.700  0.00  0.00    -0.271 OA
HETATM    4  H           1     -13.424   7.593 -20.648  0.00  0.00     0.163 HD
ENDROOT
BRANCH   1   5
HETATM    5  C           1     -12.739   5.712 -21.412  0.00  0.00     0.210 C 
BRANCH   5   6
HETATM    6  C           1     -14.065   5.251 -21.968  0.00  0.00     0.198 C 
HETATM    7  O           1     -14.317   4.029 -22.049  0.00  0.00    -0.646 OA
HETATM    8  O           1     -14.909   6.090 -22.346  0.00  0.00    -0.646 OA
ENDBRANCH   5   6
BRANCH   5   9
HETATM    9  C           1     -12.505   5.066 -20.053  0.00  0.00     0.217 C 
BRANCH   9  10
HETATM   10  O           1     -11.652   5.876 -19.290  0.00  0.00    -0.287 OA
BRANCH  10  11
HETATM   11  P           1     -10.107   5.411 -19.223  0.00  0.00     0.406 P 
HETATM   12  O           1     -10.017   3.957 -19.483  0.00  0.00    -0.624 OA
HETATM   13  O           1      -9.325   6.144 -20.243  0.00  0.00    -0.624 OA
BRANCH  11  14
HETATM   14  O           1      -9.513   5.735 -17.756  0.00  0.00    -0.300 OA
HETATM   15  H           1     -10.270   5.861 -17.209  0.00  0.00     0.223 HD
ENDBRANCH  11  14
ENDBRANCH  10  11
ENDBRANCH   9  10
ENDBRANCH   5   9
ENDBRANCH   1   5
BRANCH   2  16
HETATM   16  C           1     -11.875   9.423 -21.808  0.00  0.00     0.283 C 
BRANCH  16  17
HETATM   17  C           1     -11.755   9.785 -20.333  0.00  0.00     0.145 C 
BRANCH  17  18
HETATM   18  C           1     -10.377   9.421 -19.836  0.00  0.00     0.217 C 
HETATM   19  N           1     -10.231   8.768 -18.642  0.00  0.00    -0.370 N 
HETATM   20  H           1      -9.307   8.524 -18.309  0.00  0.00     0.159 HD
HETATM   21  H           1     -11.046   8.529 -18.093  0.00  0.00     0.159 HD
HETATM   22  O           1      -9.403   9.706 -20.493  0.00  0.00    -0.274 OA
ENDBRANCH  17  18
ENDBRANCH  16  17
BRANCH  16  23
HETATM   23  N           1     -13.161   9.969 -22.353  0.00  0.00    -0.066 N 
HETATM   24  H           1     -13.023  10.262 -23.346  0.00  0.00     0.275 HD
HETATM   25  H           1     -13.899   9.230 -22.308  0.00  0.00     0.275 HD
HETATM   26  H           1     -13.458  10.793 -21.785  0.00  0.00     0.275 HD
ENDBRANCH  16  23
ENDBRANCH   2  16
TORSDOF 10
ENDMDL
