MODEL 1
REMARK VINA RESULT:      -4.7      0.000      0.000
REMARK  6 active torsions:
REMARK  status: ('A' for Active; 'I' for Inactive)
REMARK    1  A    between atoms: C_5  and  C_6 
REMARK    2  A    between atoms: C_5  and  C_12 
REMARK    3  A    between atoms: C_5  and  N_14 
REMARK       I    between atoms: C_6  and  N_7 
REMARK    4  A    between atoms: N_7  and  C_8 
REMARK    5  A    between atoms: C_8  and  C_10 
REMARK    6  A    between atoms: C_12  and  Se_13 
ROOT
HETATM    1  C           1     -34.537  -1.544 -11.519  0.00  0.00     0.274 C 
ENDROOT
BRANCH   1   2
HETATM    2  C           1     -34.912  -0.618 -12.649  0.00  0.00     0.248 C 
HETATM    3  N           1     -35.130  -1.122 -13.904  0.00  0.00    -0.349 N 
HETATM    4  H           1     -35.040  -2.116 -14.072  0.00  0.00     0.163 HD
HETATM    5  O           1     -35.020   0.568 -12.448  0.00  0.00    -0.271 OA
BRANCH   3   6
HETATM    6  C           1     -35.491  -0.232 -14.990  0.00  0.00     0.235 C 
BRANCH   6   7
HETATM    7  C           1     -35.747  -1.040 -16.238  0.00  0.00     0.191 C 
HETATM    8  O           1     -35.087  -2.080 -16.457  0.00  0.00    -0.647 OA
HETATM    9  O           1     -36.618  -0.670 -17.055  0.00  0.00    -0.647 OA
ENDBRANCH   6   7
ENDBRANCH   3   6
ENDBRANCH   1   2
BRANCH   1  10
HETATM   10  C           1     -34.674  -2.990 -11.979  0.00  0.00     0.045 C 
BRANCH  10  11
HETATM   11 Se           1     -32.971  -3.909 -11.750  0.00  0.00     0.000 Se
HETATM   12  H           1     -32.300  -2.756 -11.127  0.00  0.00     0.000 HD
ENDBRANCH  10  11
ENDBRANCH   1  10
BRANCH   1  13
HETATM   13  N           1     -35.449  -1.304 -10.352  0.00  0.00    -0.067 N 
HETATM   14  H           1     -34.882  -1.045  -9.513  0.00  0.00     0.275 HD
HETATM   15  H           1     -36.108  -0.525 -10.580  0.00  0.00     0.275 HD
HETATM   16  H           1     -35.993  -2.173 -10.151  0.00  0.00     0.275 HD
ENDBRANCH   1  13
TORSDOF 6
ENDMDL
MODEL 2
REMARK VINA RESULT:      -4.6     13.674     14.446
REMARK  6 active torsions:
REMARK  status: ('A' for Active; 'I' for Inactive)
REMARK    1  A    between atoms: C_5  and  C_6 
REMARK    2  A    between atoms: C_5  and  C_12 
REMARK    3  A    between atoms: C_5  and  N_14 
REMARK       I    between atoms: C_6  and  N_7 
REMARK    4  A    between atoms: N_7  and  C_8 
REMARK    5  A    between atoms: C_8  and  C_10 
REMARK    6  A    between atoms: C_12  and  Se_13 
ROOT
HETATM    1  C           1     -21.166  -5.670  -6.771  0.00  0.00     0.274 C 
ENDROOT
BRANCH   1   2
HETATM    2  C           1     -21.727  -4.478  -7.506  0.00  0.00     0.248 C 
HETATM    3  N           1     -22.558  -4.665  -8.579  0.00  0.00    -0.349 N 
HETATM    4  H           1     -22.795  -5.602  -8.878  0.00  0.00     0.163 HD
HETATM    5  O           1     -21.444  -3.359  -7.149  0.00  0.00    -0.271 OA
BRANCH   3   6
HETATM    6  C           1     -23.097  -3.519  -9.286  0.00  0.00     0.235 C 
BRANCH   6   7
HETATM    7  C           1     -24.042  -3.993 -10.363  0.00  0.00     0.191 C 
HETATM    8  O           1     -23.895  -5.127 -10.870  0.00  0.00    -0.647 OA
HETATM    9  O           1     -24.971  -3.251 -10.750  0.00  0.00    -0.647 OA
ENDBRANCH   6   7
ENDBRANCH   3   6
ENDBRANCH   1   2
BRANCH   1  10
HETATM   10  C           1     -20.756  -5.252  -5.365  0.00  0.00     0.045 C 
BRANCH  10  11
HETATM   11 Se           1     -21.545  -6.473  -4.067  0.00  0.00     0.000 Se
HETATM   12  H           1     -22.870  -5.831  -4.096  0.00  0.00     0.000 HD
ENDBRANCH  10  11
ENDBRANCH   1  10
BRANCH   1  13
HETATM   13  N           1     -19.968  -6.192  -7.506  0.00  0.00    -0.067 N 
HETATM   14  H           1     -20.267  -6.582  -8.428  0.00  0.00     0.275 HD
HETATM   15  H           1     -19.288  -5.414  -7.662  0.00  0.00     0.275 HD
HETATM   16  H           1     -19.513  -6.945  -6.940  0.00  0.00     0.275 HD
ENDBRANCH   1  13
TORSDOF 6
ENDMDL
MODEL 3
REMARK VINA RESULT:      -4.5      8.697      9.736
REMARK  6 active torsions:
REMARK  status: ('A' for Active; 'I' for Inactive)
REMARK    1  A    between atoms: C_5  and  C_6 
REMARK    2  A    between atoms: C_5  and  C_12 
REMARK    3  A    between atoms: C_5  and  N_14 
REMARK       I    between atoms: C_6  and  N_7 
REMARK    4  A    between atoms: N_7  and  C_8 
REMARK    5  A    between atoms: C_8  and  C_10 
REMARK    6  A    between atoms: C_12  and  Se_13 
ROOT
HETATM    1  C           1     -29.928  -5.680 -17.437  0.00  0.00     0.274 C 
ENDROOT
BRANCH   1   2
HETATM    2  C           1     -28.916  -5.975 -16.357  0.00  0.00     0.248 C 
HETATM    3  N           1     -28.019  -6.997 -16.519  0.00  0.00    -0.349 N 
HETATM    4  H           1     -28.036  -7.555 -17.364  0.00  0.00     0.163 HD
HETATM    5  O           1     -28.897  -5.309 -15.349  0.00  0.00    -0.271 OA
BRANCH   3   6
HETATM    6  C           1     -27.048  -7.280 -15.482  0.00  0.00     0.235 C 
BRANCH   6   7
HETATM    7  C           1     -25.679  -6.841 -15.941  0.00  0.00     0.191 C 
HETATM    8  O           1     -24.775  -7.688 -16.113  0.00  0.00    -0.647 OA
HETATM    9  O           1     -25.448  -5.630 -16.150  0.00  0.00    -0.647 OA
ENDBRANCH   6   7
ENDBRANCH   3   6
ENDBRANCH   1   2
BRANCH   1  10
HETATM   10  C           1     -30.205  -4.183 -17.478  0.00  0.00     0.045 C 
BRANCH  10  11
HETATM   11 Se           1     -32.126  -3.875 -17.358  0.00  0.00     0.000 Se
HETATM   12  H           1     -32.487  -5.259 -17.705  0.00  0.00     0.000 HD
ENDBRANCH  10  11
ENDBRANCH   1  10
BRANCH   1  13
HETATM   13  N           1     -31.201  -6.416 -17.143  0.00  0.00    -0.067 N 
HETATM   14  H           1     -31.759  -6.513 -18.021  0.00  0.00     0.275 HD
HETATM   15  H           1     -30.976  -7.365 -16.767  0.00  0.00     0.275 HD
HETATM   16  H           1     -31.755  -5.883 -16.435  0.00  0.00     0.275 HD
ENDBRANCH   1  13
TORSDOF 6
ENDMDL
MODEL 4
REMARK VINA RESULT:      -4.5     10.579     11.382
REMARK  6 active torsions:
REMARK  status: ('A' for Active; 'I' for Inactive)
REMARK    1  A    between atoms: C_5  and  C_6 
REMARK    2  A    between atoms: C_5  and  C_12 
REMARK    3  A    between atoms: C_5  and  N_14 
REMARK       I    between atoms: C_6  and  N_7 
REMARK    4  A    between atoms: N_7  and  C_8 
REMARK    5  A    between atoms: C_8  and  C_10 
REMARK    6  A    between atoms: C_12  and  Se_13 
ROOT
HETATM    1  C           1     -28.977  -6.471 -18.081  0.00  0.00     0.274 C 
ENDROOT
BRANCH   1   2
HETATM    2  C           1     -27.524  -6.391 -18.478  0.00  0.00     0.248 C 
HETATM    3  N           1     -27.128  -6.819 -19.717  0.00  0.00    -0.349 N 
HETATM    4  H           1     -27.810  -7.189 -20.366  0.00  0.00     0.163 HD
HETATM    5  O           1     -26.709  -5.948 -17.703  0.00  0.00    -0.271 OA
BRANCH   3   6
HETATM    6  C           1     -25.731  -6.741 -20.098  0.00  0.00     0.235 C 
BRANCH   6   7
HETATM    7  C           1     -25.396  -7.891 -21.016  0.00  0.00     0.191 C 
HETATM    8  O           1     -24.205  -8.125 -21.316  0.00  0.00    -0.647 OA
HETATM    9  O           1     -26.309  -8.610 -21.478  0.00  0.00    -0.647 OA
ENDBRANCH   6   7
ENDBRANCH   3   6
ENDBRANCH   1   2
BRANCH   1  10
HETATM   10  C           1     -29.213  -5.618 -16.841  0.00  0.00     0.045 C 
BRANCH  10  11
HETATM   11 Se           1     -31.032  -4.918 -16.872  0.00  0.00     0.000 Se
HETATM   12  H           1     -31.643  -6.160 -16.370  0.00  0.00     0.000 HD
ENDBRANCH  10  11
ENDBRANCH   1  10
BRANCH   1  13
HETATM   13  N           1     -29.335  -7.897 -17.782  0.00  0.00    -0.067 N 
HETATM   14  H           1     -30.055  -8.226 -18.463  0.00  0.00     0.275 HD
HETATM   15  H           1     -28.481  -8.494 -17.861  0.00  0.00     0.275 HD
HETATM   16  H           1     -29.718  -7.963 -16.811  0.00  0.00     0.275 HD
ENDBRANCH   1  13
TORSDOF 6
ENDMDL
MODEL 5
REMARK VINA RESULT:      -4.4     13.537     14.338
REMARK  6 active torsions:
REMARK  status: ('A' for Active; 'I' for Inactive)
REMARK    1  A    between atoms: C_5  and  C_6 
REMARK    2  A    between atoms: C_5  and  C_12 
REMARK    3  A    between atoms: C_5  and  N_14 
REMARK       I    between atoms: C_6  and  N_7 
REMARK    4  A    between atoms: N_7  and  C_8 
REMARK    5  A    between atoms: C_8  and  C_10 
REMARK    6  A    between atoms: C_12  and  Se_13 
ROOT
HETATM    1  C           1     -20.750  -5.410  -7.387  0.00  0.00     0.274 C 
ENDROOT
BRANCH   1   2
HETATM    2  C           1     -21.197  -4.724  -8.654  0.00  0.00     0.248 C 
HETATM    3  N           1     -22.464  -4.214  -8.746  0.00  0.00    -0.349 N 
HETATM    4  H           1     -23.100  -4.297  -7.963  0.00  0.00     0.163 HD
HETATM    5  O           1     -20.437  -4.625  -9.588  0.00  0.00    -0.271 OA
BRANCH   3   6
HETATM    6  C           1     -22.894  -3.555  -9.964  0.00  0.00     0.235 C 
BRANCH   6   7
HETATM    7  C           1     -24.338  -3.898 -10.239  0.00  0.00     0.191 C 
HETATM    8  O           1     -25.033  -3.147 -10.957  0.00  0.00    -0.647 OA
HETATM    9  O           1     -24.839  -4.933  -9.749  0.00  0.00    -0.647 OA
ENDBRANCH   6   7
ENDBRANCH   3   6
ENDBRANCH   1   2
BRANCH   1  10
HETATM   10  C           1     -21.862  -5.338  -6.350  0.00  0.00     0.045 C 
BRANCH  10  11
HETATM   11 Se           1     -21.584  -6.716  -5.001  0.00  0.00     0.000 Se
HETATM   12  H           1     -21.310  -5.761  -3.914  0.00  0.00     0.000 HD
ENDBRANCH  10  11
ENDBRANCH   1  10
BRANCH   1  13
HETATM   13  N           1     -19.526  -4.726  -6.854  0.00  0.00    -0.067 N 
HETATM   14  H           1     -19.370  -5.013  -5.862  0.00  0.00     0.275 HD
HETATM   15  H           1     -18.696  -4.998  -7.429  0.00  0.00     0.275 HD
HETATM   16  H           1     -19.658  -3.690  -6.901  0.00  0.00     0.275 HD
ENDBRANCH   1  13
TORSDOF 6
ENDMDL
MODEL 6
REMARK VINA RESULT:      -4.3      2.636      3.855
REMARK  6 active torsions:
REMARK  status: ('A' for Active; 'I' for Inactive)
REMARK    1  A    between atoms: C_5  and  C_6 
REMARK    2  A    between atoms: C_5  and  C_12 
REMARK    3  A    between atoms: C_5  and  N_14 
REMARK       I    between atoms: C_6  and  N_7 
REMARK    4  A    between atoms: N_7  and  C_8 
REMARK    5  A    between atoms: C_8  and  C_10 
REMARK    6  A    between atoms: C_12  and  Se_13 
ROOT
HETATM    1  C           1     -33.758  -2.849 -11.867  0.00  0.00     0.274 C 
ENDROOT
BRANCH   1   2
HETATM    2  C           1     -34.766  -1.812 -12.298  0.00  0.00     0.248 C 
HETATM    3  N           1     -35.143  -0.822 -11.431  0.00  0.00    -0.349 N 
HETATM    4  H           1     -34.747  -0.786 -10.501  0.00  0.00     0.163 HD
HETATM    5  O           1     -35.239  -1.855 -13.409  0.00  0.00    -0.271 OA
BRANCH   3   6
HETATM    6  C           1     -36.112   0.174 -11.846  0.00  0.00     0.235 C 
BRANCH   6   7
HETATM    7  C           1     -37.374   0.017 -11.034  0.00  0.00     0.191 C 
HETATM    8  O           1     -37.728   0.921 -10.247  0.00  0.00    -0.647 OA
HETATM    9  O           1     -38.067  -1.017 -11.150  0.00  0.00    -0.647 OA
ENDBRANCH   6   7
ENDBRANCH   3   6
ENDBRANCH   1   2
BRANCH   1  10
HETATM   10  C           1     -33.910  -4.095 -12.729  0.00  0.00     0.045 C 
BRANCH  10  11
HETATM   11 Se           1     -34.617  -5.552 -11.646  0.00  0.00     0.000 Se
HETATM   12  H           1     -33.683  -6.557 -12.180  0.00  0.00     0.000 HD
ENDBRANCH  10  11
ENDBRANCH   1  10
BRANCH   1  13
HETATM   13  N           1     -33.992  -3.205 -10.429  0.00  0.00    -0.067 N 
HETATM   14  H           1     -34.879  -2.762 -10.099  0.00  0.00     0.275 HD
HETATM   15  H           1     -34.065  -4.243 -10.335  0.00  0.00     0.275 HD
HETATM   16  H           1     -33.193  -2.858  -9.850  0.00  0.00     0.275 HD
ENDBRANCH   1  13
TORSDOF 6
ENDMDL
MODEL 7
REMARK VINA RESULT:      -4.2     14.570     15.834
REMARK  6 active torsions:
REMARK  status: ('A' for Active; 'I' for Inactive)
REMARK    1  A    between atoms: C_5  and  C_6 
REMARK    2  A    between atoms: C_5  and  C_12 
REMARK    3  A    between atoms: C_5  and  N_14 
REMARK       I    between atoms: C_6  and  N_7 
REMARK    4  A    between atoms: N_7  and  C_8 
REMARK    5  A    between atoms: C_8  and  C_10 
REMARK    6  A    between atoms: C_12  and  Se_13 
ROOT
HETATM    1  C           1     -22.893  -4.357  -9.110  0.00  0.00     0.274 C 
ENDROOT
BRANCH   1   2
HETATM    2  C           1     -21.837  -4.438  -8.036  0.00  0.00     0.248 C 
HETATM    3  N           1     -21.186  -5.620  -7.804  0.00  0.00    -0.349 N 
HETATM    4  H           1     -21.413  -6.439  -8.352  0.00  0.00     0.163 HD
HETATM    5  O           1     -21.565  -3.460  -7.381  0.00  0.00    -0.271 OA
BRANCH   3   6
HETATM    6  C           1     -20.171  -5.697  -6.771  0.00  0.00     0.235 C 
BRANCH   6   7
HETATM    7  C           1     -20.664  -6.573  -5.645  0.00  0.00     0.191 C 
HETATM    8  O           1     -20.938  -6.067  -4.535  0.00  0.00    -0.647 OA
HETATM    9  O           1     -20.798  -7.803  -5.822  0.00  0.00    -0.647 OA
ENDBRANCH   6   7
ENDBRANCH   3   6
ENDBRANCH   1   2
BRANCH   1  10
HETATM   10  C           1     -22.420  -3.427 -10.220  0.00  0.00     0.045 C 
BRANCH  10  11
HETATM   11 Se           1     -20.805  -4.153 -11.033  0.00  0.00     0.000 Se
HETATM   12  H           1     -20.273  -4.693  -9.770  0.00  0.00     0.000 HD
ENDBRANCH  10  11
ENDBRANCH   1  10
BRANCH   1  13
HETATM   13  N           1     -24.166  -3.825  -8.521  0.00  0.00    -0.067 N 
HETATM   14  H           1     -24.809  -3.529  -9.289  0.00  0.00     0.275 HD
HETATM   15  H           1     -24.624  -4.572  -7.951  0.00  0.00     0.275 HD
HETATM   16  H           1     -23.950  -3.004  -7.911  0.00  0.00     0.275 HD
ENDBRANCH   1  13
TORSDOF 6
ENDMDL
MODEL 8
REMARK VINA RESULT:      -4.2     14.900     16.193
REMARK  6 active torsions:
REMARK  status: ('A' for Active; 'I' for Inactive)
REMARK    1  A    between atoms: C_5  and  C_6 
REMARK    2  A    between atoms: C_5  and  C_12 
REMARK    3  A    between atoms: C_5  and  N_14 
REMARK       I    between atoms: C_6  and  N_7 
REMARK    4  A    between atoms: N_7  and  C_8 
REMARK    5  A    between atoms: C_8  and  C_10 
REMARK    6  A    between atoms: C_12  and  Se_13 
ROOT
HETATM    1  C           1     -22.301  -4.816  -8.604  0.00  0.00     0.274 C 
ENDROOT
BRANCH   1   2
HETATM    2  C           1     -21.419  -5.366  -7.510  0.00  0.00     0.248 C 
HETATM    3  N           1     -21.761  -5.182  -6.197  0.00  0.00    -0.349 N 
HETATM    4  H           1     -22.605  -4.677  -5.961  0.00  0.00     0.163 HD
HETATM    5  O           1     -20.411  -5.968  -7.793  0.00  0.00    -0.271 OA
BRANCH   3   6
HETATM    6  C           1     -20.913  -5.710  -5.147  0.00  0.00     0.235 C 
BRANCH   6   7
HETATM    7  C           1     -21.738  -6.564  -4.215  0.00  0.00     0.191 C 
HETATM    8  O           1     -21.904  -7.778  -4.463  0.00  0.00    -0.647 OA
HETATM    9  O           1     -22.256  -6.057  -3.197  0.00  0.00    -0.647 OA
ENDBRANCH   6   7
ENDBRANCH   3   6
ENDBRANCH   1   2
BRANCH   1  10
HETATM   10  C           1     -21.499  -3.853  -9.469  0.00  0.00     0.045 C 
BRANCH  10  11
HETATM   11 Se           1     -21.747  -4.308 -11.348  0.00  0.00     0.000 Se
HETATM   12  H           1     -21.740  -2.908 -11.807  0.00  0.00     0.000 HD
ENDBRANCH  10  11
ENDBRANCH   1  10
BRANCH   1  13
HETATM   13  N           1     -23.462  -4.089  -7.991  0.00  0.00    -0.067 N 
HETATM   14  H           1     -23.485  -4.272  -6.963  0.00  0.00     0.275 HD
HETATM   15  H           1     -23.358  -3.063  -8.160  0.00  0.00     0.275 HD
HETATM   16  H           1     -24.351  -4.426  -8.425  0.00  0.00     0.275 HD
ENDBRANCH   1  13
TORSDOF 6
ENDMDL
MODEL 9
REMARK VINA RESULT:      -4.1      1.899      2.231
REMARK  6 active torsions:
REMARK  status: ('A' for Active; 'I' for Inactive)
REMARK    1  A    between atoms: C_5  and  C_6 
REMARK    2  A    between atoms: C_5  and  C_12 
REMARK    3  A    between atoms: C_5  and  N_14 
REMARK       I    between atoms: C_6  and  N_7 
REMARK    4  A    between atoms: N_7  and  C_8 
REMARK    5  A    between atoms: C_8  and  C_10 
REMARK    6  A    between atoms: C_12  and  Se_13 
ROOT
HETATM    1  C           1     -33.505  -2.596 -11.312  0.00  0.00     0.274 C 
ENDROOT
BRANCH   1   2
HETATM    2  C           1     -34.621  -1.950 -12.096  0.00  0.00     0.248 C 
HETATM    3  N           1     -34.693  -0.586 -12.186  0.00  0.00    -0.349 N 
HETATM    4  H           1     -33.998  -0.011 -11.727  0.00  0.00     0.163 HD
HETATM    5  O           1     -35.450  -2.637 -12.644  0.00  0.00    -0.271 OA
BRANCH   3   6
HETATM    6  C           1     -35.766   0.035 -12.940  0.00  0.00     0.235 C 
BRANCH   6   7
HETATM    7  C           1     -35.463  -0.059 -14.415  0.00  0.00     0.191 C 
HETATM    8  O           1     -36.262  -0.639 -15.182  0.00  0.00    -0.647 OA
HETATM    9  O           1     -34.413   0.444 -14.872  0.00  0.00    -0.647 OA
ENDBRANCH   6   7
ENDBRANCH   3   6
ENDBRANCH   1   2
BRANCH   1  10
HETATM   10  C           1     -33.149  -3.935 -11.943  0.00  0.00     0.045 C 
BRANCH  10  11
HETATM   11 Se           1     -33.946  -5.377 -10.902  0.00  0.00     0.000 Se
HETATM   12  H           1     -33.461  -4.867  -9.609  0.00  0.00     0.000 HD
ENDBRANCH  10  11
ENDBRANCH   1  10
BRANCH   1  13
HETATM   13  N           1     -33.950  -2.814  -9.896  0.00  0.00    -0.067 N 
HETATM   14  H           1     -34.516  -1.995  -9.578  0.00  0.00     0.275 HD
HETATM   15  H           1     -34.531  -3.681  -9.843  0.00  0.00     0.275 HD
HETATM   16  H           1     -33.111  -2.918  -9.281  0.00  0.00     0.275 HD
ENDBRANCH   1  13
TORSDOF 6
ENDMDL
