MODEL 1
REMARK VINA RESULT:      -6.4      0.000      0.000
REMARK  11 active torsions:
REMARK  status: ('A' for Active; 'I' for Inactive)
REMARK    1  A    between atoms: C_1  and  C_16 
REMARK    2  A    between atoms: C_5  and  C_16 
REMARK    3  A    between atoms: C_5  and  C_12 
REMARK    4  A    between atoms: C_5  and  N_21 
REMARK    5  A    between atoms: N_10  and  C_19 
REMARK    6  A    between atoms: N_11  and  C_23 
REMARK    7  A    between atoms: C_18  and  C_19 
REMARK    8  A    between atoms: C_18  and  C_25 
REMARK    9  A    between atoms: C_19  and  C_20 
REMARK       I    between atoms: C_20  and  N_21 
REMARK   10  A    between atoms: C_23  and  C_24 
REMARK   11  A    between atoms: C_24  and  C_25 
ROOT
HETATM    1  C           1     -25.654  -7.430 -20.232  0.00  0.00     0.274 C 
ENDROOT
BRANCH   1   2
HETATM    2  N           1     -27.077  -7.809 -20.520  0.00  0.00    -0.067 N 
HETATM    3  H           1     -27.322  -7.528 -21.496  0.00  0.00     0.275 HD
HETATM    4  H           1     -27.189  -8.843 -20.416  0.00  0.00     0.275 HD
HETATM    5  H           1     -27.710  -7.321 -19.847  0.00  0.00     0.275 HD
ENDBRANCH   1   2
BRANCH   1   6
HETATM    6  C           1     -25.174  -6.434 -21.279  0.00  0.00     0.042 C 
BRANCH   6   7
HETATM    7  C           1     -24.281  -7.145 -22.286  0.00  0.00     0.004 C 
BRANCH   7   8
HETATM    8  C           1     -23.831  -8.482 -21.712  0.00  0.00     0.027 C 
BRANCH   8   9
HETATM    9  C           1     -22.347  -8.680 -21.987  0.00  0.00     0.229 C 
BRANCH   9  10
HETATM   10  N           1     -21.580  -8.574 -20.702  0.00  0.00    -0.079 N 
HETATM   11  H           1     -20.687  -9.110 -20.784  0.00  0.00     0.274 HD
HETATM   12  H           1     -22.153  -8.966 -19.921  0.00  0.00     0.274 HD
HETATM   13  H           1     -21.368  -7.569 -20.506  0.00  0.00     0.274 HD
ENDBRANCH   9  10
ENDBRANCH   8   9
ENDBRANCH   7   8
ENDBRANCH   6   7
ENDBRANCH   1   6
BRANCH   1  14
HETATM   14  C           1     -25.569  -6.803 -18.862  0.00  0.00     0.249 C 
HETATM   15  O           1     -24.497  -6.466 -18.418  0.00  0.00    -0.271 OA
HETATM   16  N           1     -26.706  -6.616 -18.122  0.00  0.00    -0.345 N 
HETATM   17  H           1     -27.604  -6.899 -18.495  0.00  0.00     0.163 HD
BRANCH  16  18
HETATM   18  C           1     -26.624  -6.015 -16.806  0.00  0.00     0.185 C 
BRANCH  18  19
HETATM   19  C           1     -27.908  -5.248 -16.518  0.00  0.00     0.040 C 
BRANCH  19  20
HETATM   20  C           1     -28.942  -5.570 -17.590  0.00  0.00    -0.020 C 
HETATM   21  C           1     -30.120  -6.299 -16.956  0.00  0.00     0.009 C 
HETATM   22  C           1     -29.430  -4.276 -18.229  0.00  0.00     0.009 C 
ENDBRANCH  19  20
ENDBRANCH  18  19
BRANCH  18  23
HETATM   23  C           1     -26.440  -7.096 -15.770  0.00  0.00     0.196 C 
HETATM   24  O           1     -27.434  -7.578 -15.186  0.00  0.00    -0.646 OA
HETATM   25  O           1     -25.293  -7.510 -15.496  0.00  0.00    -0.646 OA
ENDBRANCH  18  23
ENDBRANCH  16  18
ENDBRANCH   1  14
TORSDOF 11
ENDMDL
MODEL 2
REMARK VINA RESULT:      -5.9     11.583     13.863
REMARK  11 active torsions:
REMARK  status: ('A' for Active; 'I' for Inactive)
REMARK    1  A    between atoms: C_1  and  C_16 
REMARK    2  A    between atoms: C_5  and  C_16 
REMARK    3  A    between atoms: C_5  and  C_12 
REMARK    4  A    between atoms: C_5  and  N_21 
REMARK    5  A    between atoms: N_10  and  C_19 
REMARK    6  A    between atoms: N_11  and  C_23 
REMARK    7  A    between atoms: C_18  and  C_19 
REMARK    8  A    between atoms: C_18  and  C_25 
REMARK    9  A    between atoms: C_19  and  C_20 
REMARK       I    between atoms: C_20  and  N_21 
REMARK   10  A    between atoms: C_23  and  C_24 
REMARK   11  A    between atoms: C_24  and  C_25 
ROOT
HETATM    1  C           1     -21.305  -4.915  -7.770  0.00  0.00     0.274 C 
ENDROOT
BRANCH   1   2
HETATM    2  N           1     -22.405  -3.928  -7.511  0.00  0.00    -0.067 N 
HETATM    3  H           1     -22.174  -3.020  -7.973  0.00  0.00     0.275 HD
HETATM    4  H           1     -23.301  -4.298  -7.899  0.00  0.00     0.275 HD
HETATM    5  H           1     -22.505  -3.780  -6.481  0.00  0.00     0.275 HD
ENDBRANCH   1   2
BRANCH   1   6
HETATM    6  C           1     -20.152  -4.214  -8.477  0.00  0.00     0.042 C 
BRANCH   6   7
HETATM    7  C           1     -20.107  -4.653  -9.934  0.00  0.00     0.004 C 
BRANCH   7   8
HETATM    8  C           1     -20.868  -3.652 -10.791  0.00  0.00     0.027 C 
BRANCH   8   9
HETATM    9  C           1     -21.851  -4.392 -11.688  0.00  0.00     0.229 C 
BRANCH   9  10
HETATM   10  N           1     -23.170  -4.520 -10.987  0.00  0.00    -0.079 N 
HETATM   11  H           1     -23.866  -3.883 -11.436  0.00  0.00     0.274 HD
HETATM   12  H           1     -23.057  -4.260  -9.981  0.00  0.00     0.274 HD
HETATM   13  H           1     -23.506  -5.509 -11.055  0.00  0.00     0.274 HD
ENDBRANCH   9  10
ENDBRANCH   8   9
ENDBRANCH   7   8
ENDBRANCH   6   7
ENDBRANCH   1   6
BRANCH   1  14
HETATM   14  C           1     -20.820  -5.483  -6.458  0.00  0.00     0.249 C 
HETATM   15  O           1     -20.349  -4.750  -5.620  0.00  0.00    -0.271 OA
HETATM   16  N           1     -20.914  -6.827  -6.217  0.00  0.00    -0.345 N 
HETATM   17  H           1     -21.309  -7.441  -6.920  0.00  0.00     0.163 HD
BRANCH  16  18
HETATM   18  C           1     -20.448  -7.373  -4.958  0.00  0.00     0.185 C 
BRANCH  18  19
HETATM   19  C           1     -21.617  -7.477  -3.987  0.00  0.00     0.040 C 
BRANCH  19  20
HETATM   20  C           1     -21.155  -7.079  -2.591  0.00  0.00    -0.020 C 
HETATM   21  C           1     -22.176  -6.136  -1.969  0.00  0.00     0.009 C 
HETATM   22  C           1     -21.022  -8.326  -1.727  0.00  0.00     0.009 C 
ENDBRANCH  19  20
ENDBRANCH  18  19
BRANCH  18  23
HETATM   23  C           1     -19.862  -8.743  -5.190  0.00  0.00     0.196 C 
HETATM   24  O           1     -20.527  -9.614  -5.790  0.00  0.00    -0.646 OA
HETATM   25  O           1     -18.710  -9.007  -4.783  0.00  0.00    -0.646 OA
ENDBRANCH  18  23
ENDBRANCH  16  18
ENDBRANCH   1  14
TORSDOF 11
ENDMDL
MODEL 3
REMARK VINA RESULT:      -5.6      1.831      2.098
REMARK  11 active torsions:
REMARK  status: ('A' for Active; 'I' for Inactive)
REMARK    1  A    between atoms: C_1  and  C_16 
REMARK    2  A    between atoms: C_5  and  C_16 
REMARK    3  A    between atoms: C_5  and  C_12 
REMARK    4  A    between atoms: C_5  and  N_21 
REMARK    5  A    between atoms: N_10  and  C_19 
REMARK    6  A    between atoms: N_11  and  C_23 
REMARK    7  A    between atoms: C_18  and  C_19 
REMARK    8  A    between atoms: C_18  and  C_25 
REMARK    9  A    between atoms: C_19  and  C_20 
REMARK       I    between atoms: C_20  and  N_21 
REMARK   10  A    between atoms: C_23  and  C_24 
REMARK   11  A    between atoms: C_24  and  C_25 
ROOT
HETATM    1  C           1     -25.686  -7.562 -20.457  0.00  0.00     0.274 C 
ENDROOT
BRANCH   1   2
HETATM    2  N           1     -26.392  -8.626 -21.244  0.00  0.00    -0.067 N 
HETATM    3  H           1     -26.121  -8.553 -22.250  0.00  0.00     0.275 HD
HETATM    4  H           1     -26.120  -9.566 -20.878  0.00  0.00     0.275 HD
HETATM    5  H           1     -27.425  -8.501 -21.151  0.00  0.00     0.275 HD
ENDBRANCH   1   2
BRANCH   1   6
HETATM    6  C           1     -24.814  -6.734 -21.393  0.00  0.00     0.042 C 
BRANCH   6   7
HETATM    7  C           1     -24.137  -7.653 -22.401  0.00  0.00     0.004 C 
BRANCH   7   8
HETATM    8  C           1     -22.951  -8.345 -21.742  0.00  0.00     0.027 C 
BRANCH   8   9
HETATM    9  C           1     -22.027  -8.905 -22.815  0.00  0.00     0.229 C 
BRANCH   9  10
HETATM   10  N           1     -22.198 -10.393 -22.896  0.00  0.00    -0.079 N 
HETATM   11  H           1     -21.262 -10.845 -22.999  0.00  0.00     0.274 HD
HETATM   12  H           1     -22.794 -10.631 -23.721  0.00  0.00     0.274 HD
HETATM   13  H           1     -22.659 -10.739 -22.023  0.00  0.00     0.274 HD
ENDBRANCH   9  10
ENDBRANCH   8   9
ENDBRANCH   7   8
ENDBRANCH   6   7
ENDBRANCH   1   6
BRANCH   1  14
HETATM   14  C           1     -26.705  -6.667 -19.795  0.00  0.00     0.249 C 
HETATM   15  O           1     -27.372  -5.914 -20.464  0.00  0.00    -0.271 OA
HETATM   16  N           1     -26.874  -6.709 -18.437  0.00  0.00    -0.345 N 
HETATM   17  H           1     -26.314  -7.340 -17.877  0.00  0.00     0.163 HD
BRANCH  16  18
HETATM   18  C           1     -27.852  -5.848 -17.801  0.00  0.00     0.185 C 
BRANCH  18  19
HETATM   19  C           1     -28.954  -6.702 -17.187  0.00  0.00     0.040 C 
BRANCH  19  20
HETATM   20  C           1     -30.155  -6.732 -18.124  0.00  0.00    -0.020 C 
HETATM   21  C           1     -30.180  -8.057 -18.874  0.00  0.00     0.009 C 
HETATM   22  C           1     -31.435  -6.582 -17.313  0.00  0.00     0.009 C 
ENDBRANCH  19  20
ENDBRANCH  18  19
BRANCH  18  23
HETATM   23  C           1     -27.181  -5.037 -16.721  0.00  0.00     0.196 C 
HETATM   24  O           1     -27.710  -3.981 -16.313  0.00  0.00    -0.646 OA
HETATM   25  O           1     -26.097  -5.422 -16.233  0.00  0.00    -0.646 OA
ENDBRANCH  18  23
ENDBRANCH  16  18
ENDBRANCH   1  14
TORSDOF 11
ENDMDL
MODEL 4
REMARK VINA RESULT:      -5.6     11.940     13.832
REMARK  11 active torsions:
REMARK  status: ('A' for Active; 'I' for Inactive)
REMARK    1  A    between atoms: C_1  and  C_16 
REMARK    2  A    between atoms: C_5  and  C_16 
REMARK    3  A    between atoms: C_5  and  C_12 
REMARK    4  A    between atoms: C_5  and  N_21 
REMARK    5  A    between atoms: N_10  and  C_19 
REMARK    6  A    between atoms: N_11  and  C_23 
REMARK    7  A    between atoms: C_18  and  C_19 
REMARK    8  A    between atoms: C_18  and  C_25 
REMARK    9  A    between atoms: C_19  and  C_20 
REMARK       I    between atoms: C_20  and  N_21 
REMARK   10  A    between atoms: C_23  and  C_24 
REMARK   11  A    between atoms: C_24  and  C_25 
ROOT
HETATM    1  C           1     -33.962  -3.294 -11.092  0.00  0.00     0.274 C 
ENDROOT
BRANCH   1   2
HETATM    2  N           1     -32.975  -2.290 -10.573  0.00  0.00    -0.067 N 
HETATM    3  H           1     -32.333  -2.001 -11.344  0.00  0.00     0.275 HD
HETATM    4  H           1     -33.488  -1.453 -10.214  0.00  0.00     0.275 HD
HETATM    5  H           1     -32.419  -2.717  -9.797  0.00  0.00     0.275 HD
ENDBRANCH   1   2
BRANCH   1   6
HETATM    6  C           1     -33.983  -4.506 -10.171  0.00  0.00     0.042 C 
BRANCH   6   7
HETATM    7  C           1     -33.773  -5.772 -10.992  0.00  0.00     0.004 C 
BRANCH   7   8
HETATM    8  C           1     -34.728  -6.855 -10.509  0.00  0.00     0.027 C 
BRANCH   8   9
HETATM    9  C           1     -33.989  -7.806  -9.577  0.00  0.00     0.229 C 
BRANCH   9  10
HETATM   10  N           1     -33.586  -9.037 -10.335  0.00  0.00    -0.079 N 
HETATM   11  H           1     -32.701  -8.849 -10.858  0.00  0.00     0.274 HD
HETATM   12  H           1     -34.342  -9.295 -11.009  0.00  0.00     0.274 HD
HETATM   13  H           1     -33.435  -9.825  -9.664  0.00  0.00     0.274 HD
ENDBRANCH   9  10
ENDBRANCH   8   9
ENDBRANCH   7   8
ENDBRANCH   6   7
ENDBRANCH   1   6
BRANCH   1  14
HETATM   14  C           1     -35.336  -2.670 -11.137  0.00  0.00     0.249 C 
HETATM   15  O           1     -36.314  -3.352 -10.943  0.00  0.00    -0.271 OA
HETATM   16  N           1     -35.473  -1.334 -11.397  0.00  0.00    -0.345 N 
HETATM   17  H           1     -34.653  -0.762 -11.559  0.00  0.00     0.163 HD
BRANCH  16  18
HETATM   18  C           1     -36.793  -0.735 -11.441  0.00  0.00     0.185 C 
BRANCH  18  19
HETATM   19  C           1     -36.786   0.565 -10.648  0.00  0.00     0.040 C 
BRANCH  19  20
HETATM   20  C           1     -37.801   0.474  -9.515  0.00  0.00    -0.020 C 
HETATM   21  C           1     -37.307  -0.518  -8.470  0.00  0.00     0.009 C 
HETATM   22  C           1     -37.970   1.845  -8.874  0.00  0.00     0.009 C 
ENDBRANCH  19  20
ENDBRANCH  18  19
BRANCH  18  23
HETATM   23  C           1     -37.168  -0.450 -12.873  0.00  0.00     0.196 C 
HETATM   24  O           1     -36.572  -1.034 -13.804  0.00  0.00    -0.646 OA
HETATM   25  O           1     -38.075   0.371 -13.131  0.00  0.00    -0.646 OA
ENDBRANCH  18  23
ENDBRANCH  16  18
ENDBRANCH   1  14
TORSDOF 11
ENDMDL
MODEL 5
REMARK VINA RESULT:      -5.5     12.175     14.744
REMARK  11 active torsions:
REMARK  status: ('A' for Active; 'I' for Inactive)
REMARK    1  A    between atoms: C_1  and  C_16 
REMARK    2  A    between atoms: C_5  and  C_16 
REMARK    3  A    between atoms: C_5  and  C_12 
REMARK    4  A    between atoms: C_5  and  N_21 
REMARK    5  A    between atoms: N_10  and  C_19 
REMARK    6  A    between atoms: N_11  and  C_23 
REMARK    7  A    between atoms: C_18  and  C_19 
REMARK    8  A    between atoms: C_18  and  C_25 
REMARK    9  A    between atoms: C_19  and  C_20 
REMARK       I    between atoms: C_20  and  N_21 
REMARK   10  A    between atoms: C_23  and  C_24 
REMARK   11  A    between atoms: C_24  and  C_25 
ROOT
HETATM    1  C           1     -20.681  -5.115  -6.479  0.00  0.00     0.274 C 
ENDROOT
BRANCH   1   2
HETATM    2  N           1     -19.988  -6.031  -7.444  0.00  0.00    -0.067 N 
HETATM    3  H           1     -19.870  -6.973  -7.008  0.00  0.00     0.275 HD
HETATM    4  H           1     -20.563  -6.119  -8.313  0.00  0.00     0.275 HD
HETATM    5  H           1     -19.050  -5.638  -7.685  0.00  0.00     0.275 HD
ENDBRANCH   1   2
BRANCH   1   6
HETATM    6  C           1     -21.594  -4.167  -7.247  0.00  0.00     0.042 C 
BRANCH   6   7
HETATM    7  C           1     -21.207  -4.171  -8.720  0.00  0.00     0.004 C 
BRANCH   7   8
HETATM    8  C           1     -22.457  -4.335  -9.573  0.00  0.00     0.027 C 
BRANCH   8   9
HETATM    9  C           1     -23.693  -4.085  -8.719  0.00  0.00     0.229 C 
BRANCH   9  10
HETATM   10  N           1     -24.919  -4.158  -9.580  0.00  0.00    -0.079 N 
HETATM   11  H           1     -25.633  -3.481  -9.226  0.00  0.00     0.274 HD
HETATM   12  H           1     -25.311  -5.126  -9.549  0.00  0.00     0.274 HD
HETATM   13  H           1     -24.667  -3.916 -10.566  0.00  0.00     0.274 HD
ENDBRANCH   9  10
ENDBRANCH   8   9
ENDBRANCH   7   8
ENDBRANCH   6   7
ENDBRANCH   1   6
BRANCH   1  14
HETATM   14  C           1     -21.503  -5.933  -5.512  0.00  0.00     0.249 C 
HETATM   15  O           1     -22.707  -5.841  -5.516  0.00  0.00    -0.271 OA
HETATM   16  N           1     -20.883  -6.778  -4.631  0.00  0.00    -0.345 N 
HETATM   17  H           1     -19.873  -6.854  -4.628  0.00  0.00     0.163 HD
BRANCH  16  18
HETATM   18  C           1     -21.672  -7.562  -3.702  0.00  0.00     0.185 C 
BRANCH  18  19
HETATM   19  C           1     -21.074  -8.958  -3.582  0.00  0.00     0.040 C 
BRANCH  19  20
HETATM   20  C           1     -19.702  -8.980  -4.243  0.00  0.00    -0.020 C 
HETATM   21  C           1     -18.635  -9.250  -3.189  0.00  0.00     0.009 C 
HETATM   22  C           1     -19.665 -10.080  -5.296  0.00  0.00     0.009 C 
ENDBRANCH  19  20
ENDBRANCH  18  19
BRANCH  18  23
HETATM   23  C           1     -21.668  -6.894  -2.350  0.00  0.00     0.196 C 
HETATM   24  O           1     -21.041  -7.409  -1.400  0.00  0.00    -0.646 OA
HETATM   25  O           1     -22.291  -5.824  -2.180  0.00  0.00    -0.646 OA
ENDBRANCH  18  23
ENDBRANCH  16  18
ENDBRANCH   1  14
TORSDOF 11
ENDMDL
MODEL 6
REMARK VINA RESULT:      -5.5     13.320     15.765
REMARK  11 active torsions:
REMARK  status: ('A' for Active; 'I' for Inactive)
REMARK    1  A    between atoms: C_1  and  C_16 
REMARK    2  A    between atoms: C_5  and  C_16 
REMARK    3  A    between atoms: C_5  and  C_12 
REMARK    4  A    between atoms: C_5  and  N_21 
REMARK    5  A    between atoms: N_10  and  C_19 
REMARK    6  A    between atoms: N_11  and  C_23 
REMARK    7  A    between atoms: C_18  and  C_19 
REMARK    8  A    between atoms: C_18  and  C_25 
REMARK    9  A    between atoms: C_19  and  C_20 
REMARK       I    between atoms: C_20  and  N_21 
REMARK   10  A    between atoms: C_23  and  C_24 
REMARK   11  A    between atoms: C_24  and  C_25 
ROOT
HETATM    1  C           1     -21.436  -6.589  -5.642  0.00  0.00     0.274 C 
ENDROOT
BRANCH   1   2
HETATM    2  N           1     -22.759  -6.189  -5.057  0.00  0.00    -0.067 N 
HETATM    3  H           1     -23.465  -6.101  -5.821  0.00  0.00     0.275 HD
HETATM    4  H           1     -23.071  -6.917  -4.375  0.00  0.00     0.275 HD
HETATM    5  H           1     -22.659  -5.272  -4.566  0.00  0.00     0.275 HD
ENDBRANCH   1   2
BRANCH   1   6
HETATM    6  C           1     -20.553  -5.356  -5.788  0.00  0.00     0.042 C 
BRANCH   6   7
HETATM    7  C           1     -20.510  -4.933  -7.250  0.00  0.00     0.004 C 
BRANCH   7   8
HETATM    8  C           1     -21.298  -3.643  -7.430  0.00  0.00     0.027 C 
BRANCH   8   9
HETATM    9  C           1     -22.406  -3.861  -8.452  0.00  0.00     0.229 C 
BRANCH   9  10
HETATM   10  N           1     -23.688  -4.176  -7.740  0.00  0.00    -0.079 N 
HETATM   11  H           1     -24.114  -3.291  -7.382  0.00  0.00     0.274 HD
HETATM   12  H           1     -23.494  -4.819  -6.939  0.00  0.00     0.274 HD
HETATM   13  H           1     -24.351  -4.638  -8.405  0.00  0.00     0.274 HD
ENDBRANCH   9  10
ENDBRANCH   8   9
ENDBRANCH   7   8
ENDBRANCH   6   7
ENDBRANCH   1   6
BRANCH   1  14
HETATM   14  C           1     -20.764  -7.585  -4.728  0.00  0.00     0.249 C 
HETATM   15  O           1     -19.648  -7.976  -4.978  0.00  0.00    -0.271 OA
HETATM   16  N           1     -21.418  -8.045  -3.618  0.00  0.00    -0.345 N 
HETATM   17  H           1     -22.353  -7.718  -3.409  0.00  0.00     0.163 HD
BRANCH  16  18
HETATM   18  C           1     -20.773  -9.003  -2.741  0.00  0.00     0.185 C 
BRANCH  18  19
HETATM   19  C           1     -20.736  -8.447  -1.324  0.00  0.00     0.040 C 
BRANCH  19  20
HETATM   20  C           1     -22.133  -7.991  -0.921  0.00  0.00    -0.020 C 
HETATM   21  C           1     -22.374  -8.331   0.544  0.00  0.00     0.009 C 
HETATM   22  C           1     -22.250  -6.485  -1.119  0.00  0.00     0.009 C 
ENDBRANCH  19  20
ENDBRANCH  18  19
BRANCH  18  23
HETATM   23  C           1     -21.546 -10.298  -2.755  0.00  0.00     0.196 C 
HETATM   24  O           1     -21.242 -11.216  -1.964  0.00  0.00    -0.646 OA
HETATM   25  O           1     -22.492 -10.452  -3.557  0.00  0.00    -0.646 OA
ENDBRANCH  18  23
ENDBRANCH  16  18
ENDBRANCH   1  14
TORSDOF 11
ENDMDL
MODEL 7
REMARK VINA RESULT:      -5.5     13.734     16.234
REMARK  11 active torsions:
REMARK  status: ('A' for Active; 'I' for Inactive)
REMARK    1  A    between atoms: C_1  and  C_16 
REMARK    2  A    between atoms: C_5  and  C_16 
REMARK    3  A    between atoms: C_5  and  C_12 
REMARK    4  A    between atoms: C_5  and  N_21 
REMARK    5  A    between atoms: N_10  and  C_19 
REMARK    6  A    between atoms: N_11  and  C_23 
REMARK    7  A    between atoms: C_18  and  C_19 
REMARK    8  A    between atoms: C_18  and  C_25 
REMARK    9  A    between atoms: C_19  and  C_20 
REMARK       I    between atoms: C_20  and  N_21 
REMARK   10  A    between atoms: C_23  and  C_24 
REMARK   11  A    between atoms: C_24  and  C_25 
ROOT
HETATM    1  C           1     -21.735  -6.499  -5.054  0.00  0.00     0.274 C 
ENDROOT
BRANCH   1   2
HETATM    2  N           1     -23.173  -6.081  -5.146  0.00  0.00    -0.067 N 
HETATM    3  H           1     -23.229  -5.040  -5.215  0.00  0.00     0.275 HD
HETATM    4  H           1     -23.606  -6.510  -5.995  0.00  0.00     0.275 HD
HETATM    5  H           1     -23.685  -6.402  -4.294  0.00  0.00     0.275 HD
ENDBRANCH   1   2
BRANCH   1   6
HETATM    6  C           1     -20.840  -5.290  -5.292  0.00  0.00     0.042 C 
BRANCH   6   7
HETATM    7  C           1     -20.704  -5.045  -6.789  0.00  0.00     0.004 C 
BRANCH   7   8
HETATM    8  C           1     -21.322  -3.699  -7.142  0.00  0.00     0.027 C 
BRANCH   8   9
HETATM    9  C           1     -22.200  -3.851  -8.377  0.00  0.00     0.229 C 
BRANCH   9  10
HETATM   10  N           1     -23.626  -4.054  -7.955  0.00  0.00    -0.079 N 
HETATM   11  H           1     -23.859  -5.071  -7.997  0.00  0.00     0.274 HD
HETATM   12  H           1     -24.258  -3.524  -8.597  0.00  0.00     0.274 HD
HETATM   13  H           1     -23.752  -3.705  -6.977  0.00  0.00     0.274 HD
ENDBRANCH   9  10
ENDBRANCH   8   9
ENDBRANCH   7   8
ENDBRANCH   6   7
ENDBRANCH   1   6
BRANCH   1  14
HETATM   14  C           1     -21.464  -7.065  -3.681  0.00  0.00     0.249 C 
HETATM   15  O           1     -21.427  -6.330  -2.723  0.00  0.00    -0.271 OA
HETATM   16  N           1     -21.259  -8.408  -3.523  0.00  0.00    -0.345 N 
HETATM   17  H           1     -21.289  -9.024  -4.326  0.00  0.00     0.163 HD
BRANCH  16  18
HETATM   18  C           1     -20.997  -8.952  -2.204  0.00  0.00     0.185 C 
BRANCH  18  19
HETATM   19  C           1     -22.102  -9.930  -1.830  0.00  0.00     0.040 C 
BRANCH  19  20
HETATM   20  C           1     -22.485  -9.729  -0.369  0.00  0.00    -0.020 C 
HETATM   21  C           1     -22.687  -8.244  -0.098  0.00  0.00     0.009 C 
HETATM   22  C           1     -23.778 -10.479  -0.077  0.00  0.00     0.009 C 
ENDBRANCH  19  20
ENDBRANCH  18  19
BRANCH  18  23
HETATM   23  C           1     -19.670  -9.669  -2.211  0.00  0.00     0.196 C 
HETATM   24  O           1     -19.585 -10.830  -1.755  0.00  0.00    -0.646 OA
HETATM   25  O           1     -18.656  -9.104  -2.672  0.00  0.00    -0.646 OA
ENDBRANCH  18  23
ENDBRANCH  16  18
ENDBRANCH   1  14
TORSDOF 11
ENDMDL
MODEL 8
REMARK VINA RESULT:      -5.5     11.466     12.640
REMARK  11 active torsions:
REMARK  status: ('A' for Active; 'I' for Inactive)
REMARK    1  A    between atoms: C_1  and  C_16 
REMARK    2  A    between atoms: C_5  and  C_16 
REMARK    3  A    between atoms: C_5  and  C_12 
REMARK    4  A    between atoms: C_5  and  N_21 
REMARK    5  A    between atoms: N_10  and  C_19 
REMARK    6  A    between atoms: N_11  and  C_23 
REMARK    7  A    between atoms: C_18  and  C_19 
REMARK    8  A    between atoms: C_18  and  C_25 
REMARK    9  A    between atoms: C_19  and  C_20 
REMARK       I    between atoms: C_20  and  N_21 
REMARK   10  A    between atoms: C_23  and  C_24 
REMARK   11  A    between atoms: C_24  and  C_25 
ROOT
HETATM    1  C           1     -34.112  -2.546 -11.803  0.00  0.00     0.274 C 
ENDROOT
BRANCH   1   2
HETATM    2  N           1     -33.595  -1.464 -10.900  0.00  0.00    -0.067 N 
HETATM    3  H           1     -34.138  -1.467 -10.008  0.00  0.00     0.275 HD
HETATM    4  H           1     -32.586  -1.638 -10.695  0.00  0.00     0.275 HD
HETATM    5  H           1     -33.701  -0.538 -11.371  0.00  0.00     0.275 HD
ENDBRANCH   1   2
BRANCH   1   6
HETATM    6  C           1     -34.634  -3.702 -10.960  0.00  0.00     0.042 C 
BRANCH   6   7
HETATM    7  C           1     -34.536  -4.996 -11.757  0.00  0.00     0.004 C 
BRANCH   7   8
HETATM    8  C           1     -33.719  -6.015 -10.973  0.00  0.00     0.027 C 
BRANCH   8   9
HETATM    9  C           1     -34.655  -7.011 -10.302  0.00  0.00     0.229 C 
BRANCH   9  10
HETATM   10  N           1     -34.066  -8.388 -10.387  0.00  0.00    -0.079 N 
HETATM   11  H           1     -33.041  -8.340 -10.188  0.00  0.00     0.274 HD
HETATM   12  H           1     -34.217  -8.773 -11.347  0.00  0.00     0.274 HD
HETATM   13  H           1     -34.530  -9.009  -9.686  0.00  0.00     0.274 HD
ENDBRANCH   9  10
ENDBRANCH   8   9
ENDBRANCH   7   8
ENDBRANCH   6   7
ENDBRANCH   1   6
BRANCH   1  14
HETATM   14  C           1     -35.232  -1.997 -12.654  0.00  0.00     0.249 C 
HETATM   15  O           1     -36.319  -1.799 -12.166  0.00  0.00    -0.271 OA
HETATM   16  N           1     -35.015  -1.724 -13.978  0.00  0.00    -0.345 N 
HETATM   17  H           1     -34.103  -1.890 -14.386  0.00  0.00     0.163 HD
BRANCH  16  18
HETATM   18  C           1     -36.090  -1.198 -14.795  0.00  0.00     0.185 C 
BRANCH  18  19
HETATM   19  C           1     -36.346   0.256 -14.422  0.00  0.00     0.040 C 
BRANCH  19  20
HETATM   20  C           1     -35.152   1.105 -14.840  0.00  0.00    -0.020 C 
HETATM   21  C           1     -35.634   2.280 -15.681  0.00  0.00     0.009 C 
HETATM   22  C           1     -34.441   1.627 -13.598  0.00  0.00     0.009 C 
ENDBRANCH  19  20
ENDBRANCH  18  19
BRANCH  18  23
HETATM   23  C           1     -35.703  -1.284 -16.251  0.00  0.00     0.196 C 
HETATM   24  O           1     -36.491  -0.877 -17.132  0.00  0.00    -0.646 OA
HETATM   25  O           1     -34.595  -1.761 -16.576  0.00  0.00    -0.646 OA
ENDBRANCH  18  23
ENDBRANCH  16  18
ENDBRANCH   1  14
TORSDOF 11
ENDMDL
MODEL 9
REMARK VINA RESULT:      -5.4     14.196     16.652
REMARK  11 active torsions:
REMARK  status: ('A' for Active; 'I' for Inactive)
REMARK    1  A    between atoms: C_1  and  C_16 
REMARK    2  A    between atoms: C_5  and  C_16 
REMARK    3  A    between atoms: C_5  and  C_12 
REMARK    4  A    between atoms: C_5  and  N_21 
REMARK    5  A    between atoms: N_10  and  C_19 
REMARK    6  A    between atoms: N_11  and  C_23 
REMARK    7  A    between atoms: C_18  and  C_19 
REMARK    8  A    between atoms: C_18  and  C_25 
REMARK    9  A    between atoms: C_19  and  C_20 
REMARK       I    between atoms: C_20  and  N_21 
REMARK   10  A    between atoms: C_23  and  C_24 
REMARK   11  A    between atoms: C_24  and  C_25 
ROOT
HETATM    1  C           1     -19.883  -7.859  -4.954  0.00  0.00     0.274 C 
ENDROOT
BRANCH   1   2
HETATM    2  N           1     -19.418  -9.088  -5.677  0.00  0.00    -0.067 N 
HETATM    3  H           1     -19.644  -9.934  -5.107  0.00  0.00     0.275 HD
HETATM    4  H           1     -19.902  -9.151  -6.601  0.00  0.00     0.275 HD
HETATM    5  H           1     -18.385  -9.034  -5.827  0.00  0.00     0.275 HD
ENDBRANCH   1   2
BRANCH   1   6
HETATM    6  C           1     -20.507  -6.891  -5.951  0.00  0.00     0.042 C 
BRANCH   6   7
HETATM    7  C           1     -20.648  -5.518  -5.307  0.00  0.00     0.004 C 
BRANCH   7   8
HETATM    8  C           1     -20.532  -4.441  -6.377  0.00  0.00     0.027 C 
BRANCH   8   9
HETATM    9  C           1     -21.491  -4.751  -7.518  0.00  0.00     0.229 C 
BRANCH   9  10
HETATM   10  N           1     -22.370  -3.561  -7.771  0.00  0.00    -0.079 N 
HETATM   11  H           1     -23.098  -3.503  -7.024  0.00  0.00     0.274 HD
HETATM   12  H           1     -22.833  -3.661  -8.702  0.00  0.00     0.274 HD
HETATM   13  H           1     -21.790  -2.691  -7.762  0.00  0.00     0.274 HD
ENDBRANCH   9  10
ENDBRANCH   8   9
ENDBRANCH   7   8
ENDBRANCH   6   7
ENDBRANCH   1   6
BRANCH   1  14
HETATM   14  C           1     -20.910  -8.244  -3.916  0.00  0.00     0.249 C 
HETATM   15  O           1     -21.880  -8.888  -4.237  0.00  0.00    -0.271 OA
HETATM   16  N           1     -20.740  -7.865  -2.612  0.00  0.00    -0.345 N 
HETATM   17  H           1     -19.927  -7.325  -2.343  0.00  0.00     0.163 HD
BRANCH  16  18
HETATM   18  C           1     -21.727  -8.234  -1.616  0.00  0.00     0.185 C 
BRANCH  18  19
HETATM   19  C           1     -21.031  -8.905  -0.439  0.00  0.00     0.040 C 
BRANCH  19  20
HETATM   20  C           1     -21.415 -10.379  -0.396  0.00  0.00    -0.020 C 
HETATM   21  C           1     -20.760 -11.038   0.810  0.00  0.00     0.009 C 
HETATM   22  C           1     -22.929 -10.505  -0.284  0.00  0.00     0.009 C 
ENDBRANCH  19  20
ENDBRANCH  18  19
BRANCH  18  23
HETATM   23  C           1     -22.445  -6.997  -1.137  0.00  0.00     0.196 C 
HETATM   24  O           1     -22.447  -5.963  -1.841  0.00  0.00    -0.646 OA
HETATM   25  O           1     -23.039  -7.005  -0.038  0.00  0.00    -0.646 OA
ENDBRANCH  18  23
ENDBRANCH  16  18
ENDBRANCH   1  14
TORSDOF 11
ENDMDL
