MODEL 1
REMARK VINA RESULT:      -6.0      0.000      0.000
REMARK  9 active torsions:
REMARK  status: ('A' for Active; 'I' for Inactive)
REMARK    1  A    between atoms: C_2  and  C_15 
REMARK    2  A    between atoms: C_2  and  C_4 
REMARK    3  A    between atoms: C_6  and  C_14 
REMARK    4  A    between atoms: C_6  and  C_7 
REMARK    5  A    between atoms: C_7  and  C_8 
REMARK    6  A    between atoms: C_7  and  N_17 
REMARK    7  A    between atoms: N_10  and  C_15 
REMARK    8  A    between atoms: C_14  and  S_19 
REMARK    9  A    between atoms: C_15  and  C_16 
REMARK       I    between atoms: C_16  and  N_17 
ROOT
HETATM    1  O           1     -33.247  -2.012 -10.764  0.00  0.00    -0.271 OA
HETATM    2  C           1     -33.915  -2.552 -11.614  0.00  0.00     0.249 C 
HETATM    3  N           1     -34.826  -1.826 -12.332  0.00  0.00    -0.345 N 
HETATM    4  H           1     -35.385  -2.278 -13.044  0.00  0.00     0.163 HD
ENDROOT
BRANCH   2   5
HETATM    5  C           1     -33.743  -4.026 -11.884  0.00  0.00     0.278 C 
BRANCH   5   6
HETATM    6  C           1     -34.219  -4.825 -10.677  0.00  0.00     0.021 C 
HETATM    7  C           1     -35.733  -4.709 -10.557  0.00  0.00     0.012 C 
BRANCH   6   8
HETATM    8  C           1     -33.834  -6.287 -10.853  0.00  0.00     0.002 C 
HETATM    9  C           1     -34.769  -7.162 -10.028  0.00  0.00     0.005 C 
ENDBRANCH   6   8
ENDBRANCH   5   6
BRANCH   5  10
HETATM   10  N           1     -32.294  -4.322 -12.139  0.00  0.00    -0.066 N 
HETATM   11  H           1     -31.846  -4.655 -11.255  0.00  0.00     0.275 HD
HETATM   12  H           1     -32.214  -5.064 -12.871  0.00  0.00     0.275 HD
HETATM   13  H           1     -31.814  -3.454 -12.466  0.00  0.00     0.275 HD
ENDBRANCH   5  10
ENDBRANCH   2   5
BRANCH   3  14
HETATM   14  C           1     -34.991  -0.409 -12.072  0.00  0.00     0.186 C 
BRANCH  14  15
HETATM   15  C           1     -35.016   0.349 -13.392  0.00  0.00     0.046 C 
BRANCH  15  16
HETATM   16  C           1     -35.447  -0.591 -14.510  0.00  0.00     0.076 C 
BRANCH  16  17
HETATM   17  S           1     -36.463   0.319 -15.708  0.00  0.00    -0.173 SA
HETATM   18  C           1     -38.066  -0.088 -14.961  0.00  0.00     0.089 C 
ENDBRANCH  16  17
ENDBRANCH  15  16
ENDBRANCH  14  15
BRANCH  14  19
HETATM   19  C           1     -36.288  -0.180 -11.336  0.00  0.00     0.196 C 
HETATM   20  O           1     -36.356   0.696 -10.447  0.00  0.00    -0.646 OA
HETATM   21  O           1     -37.294  -0.868 -11.614  0.00  0.00    -0.646 OA
ENDBRANCH  14  19
ENDBRANCH   3  14
TORSDOF 9
ENDMDL
MODEL 2
REMARK VINA RESULT:      -5.9      2.519      3.448
REMARK  9 active torsions:
REMARK  status: ('A' for Active; 'I' for Inactive)
REMARK    1  A    between atoms: C_2  and  C_15 
REMARK    2  A    between atoms: C_2  and  C_4 
REMARK    3  A    between atoms: C_6  and  C_14 
REMARK    4  A    between atoms: C_6  and  C_7 
REMARK    5  A    between atoms: C_7  and  C_8 
REMARK    6  A    between atoms: C_7  and  N_17 
REMARK    7  A    between atoms: N_10  and  C_15 
REMARK    8  A    between atoms: C_14  and  S_19 
REMARK    9  A    between atoms: C_15  and  C_16 
REMARK       I    between atoms: C_16  and  N_17 
ROOT
HETATM    1  O           1     -34.796  -2.662 -13.717  0.00  0.00    -0.271 OA
HETATM    2  C           1     -34.633  -2.159 -12.630  0.00  0.00     0.249 C 
HETATM    3  N           1     -35.415  -1.106 -12.239  0.00  0.00    -0.345 N 
HETATM    4  H           1     -35.278  -0.684 -11.330  0.00  0.00     0.163 HD
ENDROOT
BRANCH   2   5
HETATM    5  C           1     -33.567  -2.691 -11.705  0.00  0.00     0.278 C 
BRANCH   5   6
HETATM    6  C           1     -33.579  -4.214 -11.736  0.00  0.00     0.021 C 
HETATM    7  C           1     -32.174  -4.727 -12.023  0.00  0.00     0.012 C 
BRANCH   6   8
HETATM    8  C           1     -34.047  -4.744 -10.387  0.00  0.00     0.002 C 
HETATM    9  C           1     -34.353  -6.232 -10.505  0.00  0.00     0.005 C 
ENDBRANCH   6   8
ENDBRANCH   5   6
BRANCH   5  10
HETATM   10  N           1     -33.838  -2.218 -10.307  0.00  0.00    -0.066 N 
HETATM   11  H           1     -34.001  -3.042  -9.685  0.00  0.00     0.275 HD
HETATM   12  H           1     -33.015  -1.675  -9.958  0.00  0.00     0.275 HD
HETATM   13  H           1     -34.686  -1.607 -10.304  0.00  0.00     0.275 HD
ENDBRANCH   5  10
ENDBRANCH   2   5
BRANCH   3  14
HETATM   14  C           1     -36.440  -0.595 -13.130  0.00  0.00     0.186 C 
BRANCH  14  15
HETATM   15  C           1     -37.580  -0.010 -12.307  0.00  0.00     0.046 C 
BRANCH  15  16
HETATM   16  C           1     -37.517  -0.561 -10.888  0.00  0.00     0.076 C 
BRANCH  16  17
HETATM   17  S           1     -37.398   0.814  -9.710  0.00  0.00    -0.173 SA
HETATM   18  C           1     -37.408  -0.207  -8.209  0.00  0.00     0.089 C 
ENDBRANCH  16  17
ENDBRANCH  15  16
ENDBRANCH  14  15
BRANCH  14  19
HETATM   19  C           1     -35.851   0.480 -14.009  0.00  0.00     0.196 C 
HETATM   20  O           1     -36.344   0.706 -15.135  0.00  0.00    -0.646 OA
HETATM   21  O           1     -34.869   1.145 -13.613  0.00  0.00    -0.646 OA
ENDBRANCH  14  19
ENDBRANCH   3  14
TORSDOF 9
ENDMDL
MODEL 3
REMARK VINA RESULT:      -5.5     14.206     16.036
REMARK  9 active torsions:
REMARK  status: ('A' for Active; 'I' for Inactive)
REMARK    1  A    between atoms: C_2  and  C_15 
REMARK    2  A    between atoms: C_2  and  C_4 
REMARK    3  A    between atoms: C_6  and  C_14 
REMARK    4  A    between atoms: C_6  and  C_7 
REMARK    5  A    between atoms: C_7  and  C_8 
REMARK    6  A    between atoms: C_7  and  N_17 
REMARK    7  A    between atoms: N_10  and  C_15 
REMARK    8  A    between atoms: C_14  and  S_19 
REMARK    9  A    between atoms: C_15  and  C_16 
REMARK       I    between atoms: C_16  and  N_17 
ROOT
HETATM    1  O           1     -22.097  -7.505  -4.724  0.00  0.00    -0.271 OA
HETATM    2  C           1     -21.527  -6.580  -4.196  0.00  0.00     0.249 C 
HETATM    3  N           1     -21.076  -5.532  -4.952  0.00  0.00    -0.345 N 
HETATM    4  H           1     -20.599  -4.757  -4.510  0.00  0.00     0.163 HD
ENDROOT
BRANCH   2   5
HETATM    5  C           1     -21.313  -6.579  -2.702  0.00  0.00     0.278 C 
BRANCH   5   6
HETATM    6  C           1     -21.459  -7.998  -2.166  0.00  0.00     0.021 C 
HETATM    7  C           1     -20.080  -8.623  -2.003  0.00  0.00     0.012 C 
BRANCH   6   8
HETATM    8  C           1     -22.160  -7.958  -0.815  0.00  0.00     0.002 C 
HETATM    9  C           1     -22.649  -9.355  -0.456  0.00  0.00     0.005 C 
ENDBRANCH   6   8
ENDBRANCH   5   6
BRANCH   5  10
HETATM   10  N           1     -22.333  -5.692  -2.051  0.00  0.00    -0.066 N 
HETATM   11  H           1     -21.880  -5.140  -1.288  0.00  0.00     0.275 HD
HETATM   12  H           1     -22.731  -5.039  -2.764  0.00  0.00     0.275 HD
HETATM   13  H           1     -23.098  -6.279  -1.649  0.00  0.00     0.275 HD
ENDBRANCH   5  10
ENDBRANCH   2   5
BRANCH   3  14
HETATM   14  C           1     -21.282  -5.533  -6.388  0.00  0.00     0.186 C 
BRANCH  14  15
HETATM   15  C           1     -21.807  -4.172  -6.825  0.00  0.00     0.046 C 
BRANCH  15  16
HETATM   16  C           1     -23.086  -4.356  -7.631  0.00  0.00     0.076 C 
BRANCH  16  17
HETATM   17  S           1     -22.800  -3.842  -9.348  0.00  0.00    -0.173 SA
HETATM   18  C           1     -24.526  -3.426  -9.723  0.00  0.00     0.089 C 
ENDBRANCH  16  17
ENDBRANCH  15  16
ENDBRANCH  14  15
BRANCH  14  19
HETATM   19  C           1     -19.974  -5.816  -7.084  0.00  0.00     0.196 C 
HETATM   20  O           1     -19.427  -6.932  -6.956  0.00  0.00    -0.646 OA
HETATM   21  O           1     -19.435  -4.932  -7.786  0.00  0.00    -0.646 OA
ENDBRANCH  14  19
ENDBRANCH   3  14
TORSDOF 9
ENDMDL
MODEL 4
REMARK VINA RESULT:      -5.4     14.269     16.559
REMARK  9 active torsions:
REMARK  status: ('A' for Active; 'I' for Inactive)
REMARK    1  A    between atoms: C_2  and  C_15 
REMARK    2  A    between atoms: C_2  and  C_4 
REMARK    3  A    between atoms: C_6  and  C_14 
REMARK    4  A    between atoms: C_6  and  C_7 
REMARK    5  A    between atoms: C_7  and  C_8 
REMARK    6  A    between atoms: C_7  and  N_17 
REMARK    7  A    between atoms: N_10  and  C_15 
REMARK    8  A    between atoms: C_14  and  S_19 
REMARK    9  A    between atoms: C_15  and  C_16 
REMARK       I    between atoms: C_16  and  N_17 
ROOT
HETATM    1  O           1     -21.100  -4.233  -6.303  0.00  0.00    -0.271 OA
HETATM    2  C           1     -21.618  -5.118  -6.941  0.00  0.00     0.249 C 
HETATM    3  N           1     -21.621  -6.399  -6.459  0.00  0.00    -0.345 N 
HETATM    4  H           1     -22.055  -7.140  -6.993  0.00  0.00     0.163 HD
ENDROOT
BRANCH   2   5
HETATM    5  C           1     -22.264  -4.811  -8.270  0.00  0.00     0.278 C 
BRANCH   5   6
HETATM    6  C           1     -21.328  -3.943  -9.103  0.00  0.00     0.021 C 
HETATM    7  C           1     -20.088  -4.746  -9.474  0.00  0.00     0.012 C 
BRANCH   6   8
HETATM    8  C           1     -22.044  -3.501 -10.372  0.00  0.00     0.002 C 
HETATM    9  C           1     -21.529  -4.311 -11.554  0.00  0.00     0.005 C 
ENDBRANCH   6   8
ENDBRANCH   5   6
BRANCH   5  10
HETATM   10  N           1     -23.553  -4.078  -8.042  0.00  0.00    -0.066 N 
HETATM   11  H           1     -24.341  -4.617  -8.468  0.00  0.00     0.275 HD
HETATM   12  H           1     -23.717  -3.974  -7.015  0.00  0.00     0.275 HD
HETATM   13  H           1     -23.499  -3.133  -8.485  0.00  0.00     0.275 HD
ENDBRANCH   5  10
ENDBRANCH   2   5
BRANCH   3  14
HETATM   14  C           1     -21.000  -6.693  -5.182  0.00  0.00     0.186 C 
BRANCH  14  15
HETATM   15  C           1     -22.047  -6.607  -4.078  0.00  0.00     0.046 C 
BRANCH  15  16
HETATM   16  C           1     -21.402  -6.068  -2.808  0.00  0.00     0.076 C 
BRANCH  16  17
HETATM   17  S           1     -22.169  -6.851  -1.361  0.00  0.00    -0.173 SA
HETATM   18  C           1     -20.879  -8.102  -1.104  0.00  0.00     0.089 C 
ENDBRANCH  16  17
ENDBRANCH  15  16
ENDBRANCH  14  15
BRANCH  14  19
HETATM   19  C           1     -20.417  -8.084  -5.215  0.00  0.00     0.196 C 
HETATM   20  O           1     -21.000  -8.991  -5.846  0.00  0.00    -0.646 OA
HETATM   21  O           1     -19.350  -8.329  -4.610  0.00  0.00    -0.646 OA
ENDBRANCH  14  19
ENDBRANCH   3  14
TORSDOF 9
ENDMDL
MODEL 5
REMARK VINA RESULT:      -5.2     14.764     17.103
REMARK  9 active torsions:
REMARK  status: ('A' for Active; 'I' for Inactive)
REMARK    1  A    between atoms: C_2  and  C_15 
REMARK    2  A    between atoms: C_2  and  C_4 
REMARK    3  A    between atoms: C_6  and  C_14 
REMARK    4  A    between atoms: C_6  and  C_7 
REMARK    5  A    between atoms: C_7  and  C_8 
REMARK    6  A    between atoms: C_7  and  N_17 
REMARK    7  A    between atoms: N_10  and  C_15 
REMARK    8  A    between atoms: C_14  and  S_19 
REMARK    9  A    between atoms: C_15  and  C_16 
REMARK       I    between atoms: C_16  and  N_17 
ROOT
HETATM    1  O           1     -22.926  -5.531  -5.855  0.00  0.00    -0.271 OA
HETATM    2  C           1     -21.718  -5.515  -5.877  0.00  0.00     0.249 C 
HETATM    3  N           1     -21.008  -6.380  -5.090  0.00  0.00    -0.345 N 
HETATM    4  H           1     -19.996  -6.367  -5.108  0.00  0.00     0.163 HD
ENDROOT
BRANCH   2   5
HETATM    5  C           1     -20.993  -4.542  -6.774  0.00  0.00     0.278 C 
BRANCH   5   6
HETATM    6  C           1     -21.368  -4.810  -8.226  0.00  0.00     0.021 C 
HETATM    7  C           1     -22.380  -3.771  -8.689  0.00  0.00     0.012 C 
BRANCH   6   8
HETATM    8  C           1     -20.120  -4.725  -9.095  0.00  0.00     0.002 C 
HETATM    9  C           1     -20.513  -4.315 -10.508  0.00  0.00     0.005 C 
ENDBRANCH   6   8
ENDBRANCH   5   6
BRANCH   5  10
HETATM   10  N           1     -19.512  -4.712  -6.601  0.00  0.00    -0.066 N 
HETATM   11  H           1     -19.023  -4.427  -7.480  0.00  0.00     0.275 HD
HETATM   12  H           1     -19.184  -4.113  -5.809  0.00  0.00     0.275 HD
HETATM   13  H           1     -19.299  -5.713  -6.394  0.00  0.00     0.275 HD
ENDBRANCH   5  10
ENDBRANCH   2   5
BRANCH   3  14
HETATM   14  C           1     -21.705  -7.315  -4.228  0.00  0.00     0.186 C 
BRANCH  14  15
HETATM   15  C           1     -21.050  -8.686  -4.332  0.00  0.00     0.046 C 
BRANCH  15  16
HETATM   16  C           1     -19.690  -8.548  -5.005  0.00  0.00     0.076 C 
BRANCH  16  17
HETATM   17  S           1     -18.435  -9.404  -4.012  0.00  0.00    -0.173 SA
HETATM   18  C           1     -19.583 -10.521  -3.157  0.00  0.00     0.089 C 
ENDBRANCH  16  17
ENDBRANCH  15  16
ENDBRANCH  14  15
BRANCH  14  19
HETATM   19  C           1     -21.637  -6.831  -2.801  0.00  0.00     0.196 C 
HETATM   20  O           1     -22.388  -5.909  -2.417  0.00  0.00    -0.646 OA
HETATM   21  O           1     -20.827  -7.351  -2.003  0.00  0.00    -0.646 OA
ENDBRANCH  14  19
ENDBRANCH   3  14
TORSDOF 9
ENDMDL
MODEL 6
REMARK VINA RESULT:      -5.1     16.184     17.950
REMARK  9 active torsions:
REMARK  status: ('A' for Active; 'I' for Inactive)
REMARK    1  A    between atoms: C_2  and  C_15 
REMARK    2  A    between atoms: C_2  and  C_4 
REMARK    3  A    between atoms: C_6  and  C_14 
REMARK    4  A    between atoms: C_6  and  C_7 
REMARK    5  A    between atoms: C_7  and  C_8 
REMARK    6  A    between atoms: C_7  and  N_17 
REMARK    7  A    between atoms: N_10  and  C_15 
REMARK    8  A    between atoms: C_14  and  S_19 
REMARK    9  A    between atoms: C_15  and  C_16 
REMARK       I    between atoms: C_16  and  N_17 
ROOT
HETATM    1  O           1     -21.623  -9.639  -2.496  0.00  0.00    -0.271 OA
HETATM    2  C           1     -21.306  -8.488  -2.313  0.00  0.00     0.249 C 
HETATM    3  N           1     -20.859  -7.727  -3.360  0.00  0.00    -0.345 N 
HETATM    4  H           1     -20.593  -6.762  -3.207  0.00  0.00     0.163 HD
ENDROOT
BRANCH   2   5
HETATM    5  C           1     -21.404  -7.888  -0.932  0.00  0.00     0.278 C 
BRANCH   5   6
HETATM    6  C           1     -21.785  -8.972   0.068  0.00  0.00     0.021 C 
HETATM    7  C           1     -21.085  -8.709   1.394  0.00  0.00     0.012 C 
BRANCH   6   8
HETATM    8  C           1     -23.293  -8.958   0.280  0.00  0.00     0.002 C 
HETATM    9  C           1     -23.858 -10.346   0.007  0.00  0.00     0.005 C 
ENDBRANCH   6   8
ENDBRANCH   5   6
BRANCH   5  10
HETATM   10  N           1     -22.451  -6.814  -0.927  0.00  0.00    -0.066 N 
HETATM   11  H           1     -22.013  -5.898  -1.176  0.00  0.00     0.275 HD
HETATM   12  H           1     -23.193  -7.048  -1.626  0.00  0.00     0.275 HD
HETATM   13  H           1     -22.877  -6.748   0.025  0.00  0.00     0.275 HD
ENDBRANCH   5  10
ENDBRANCH   2   5
BRANCH   3  14
HETATM   14  C           1     -20.764  -8.303  -4.687  0.00  0.00     0.186 C 
BRANCH  14  15
HETATM   15  C           1     -21.238  -7.286  -5.716  0.00  0.00     0.046 C 
BRANCH  15  16
HETATM   16  C           1     -21.244  -5.897  -5.091  0.00  0.00     0.076 C 
BRANCH  16  17
HETATM   17  S           1     -20.096  -4.821  -5.996  0.00  0.00    -0.173 SA
HETATM   18  C           1     -21.339  -4.075  -7.088  0.00  0.00     0.089 C 
ENDBRANCH  16  17
ENDBRANCH  15  16
ENDBRANCH  14  15
BRANCH  14  19
HETATM   19  C           1     -19.331  -8.678  -4.972  0.00  0.00     0.196 C 
HETATM   20  O           1     -18.890  -8.618  -6.140  0.00  0.00    -0.646 OA
HETATM   21  O           1     -18.584  -9.049  -4.040  0.00  0.00    -0.646 OA
ENDBRANCH  14  19
ENDBRANCH   3  14
TORSDOF 9
ENDMDL
MODEL 7
REMARK VINA RESULT:      -4.9     17.150     18.504
REMARK  9 active torsions:
REMARK  status: ('A' for Active; 'I' for Inactive)
REMARK    1  A    between atoms: C_2  and  C_15 
REMARK    2  A    between atoms: C_2  and  C_4 
REMARK    3  A    between atoms: C_6  and  C_14 
REMARK    4  A    between atoms: C_6  and  C_7 
REMARK    5  A    between atoms: C_7  and  C_8 
REMARK    6  A    between atoms: C_7  and  N_17 
REMARK    7  A    between atoms: N_10  and  C_15 
REMARK    8  A    between atoms: C_14  and  S_19 
REMARK    9  A    between atoms: C_15  and  C_16 
REMARK       I    between atoms: C_16  and  N_17 
ROOT
HETATM    1  O           1     -19.587  -8.723  -2.077  0.00  0.00    -0.271 OA
HETATM    2  C           1     -20.577  -8.029  -2.084  0.00  0.00     0.249 C 
HETATM    3  N           1     -21.085  -7.574  -3.271  0.00  0.00    -0.345 N 
HETATM    4  H           1     -21.913  -6.993  -3.278  0.00  0.00     0.163 HD
ENDROOT
BRANCH   2   5
HETATM    5  C           1     -21.253  -7.665  -0.785  0.00  0.00     0.278 C 
BRANCH   5   6
HETATM    6  C           1     -21.632  -8.936  -0.035  0.00  0.00     0.021 C 
HETATM    7  C           1     -21.021  -8.903   1.360  0.00  0.00     0.012 C 
BRANCH   6   8
HETATM    8  C           1     -23.148  -9.023   0.077  0.00  0.00     0.002 C 
HETATM    9  C           1     -23.602 -10.437  -0.263  0.00  0.00     0.005 C 
ENDBRANCH   6   8
ENDBRANCH   5   6
BRANCH   5  10
HETATM   10  N           1     -22.490  -6.867  -1.073  0.00  0.00    -0.066 N 
HETATM   11  H           1     -23.082  -7.378  -1.765  0.00  0.00     0.275 HD
HETATM   12  H           1     -23.028  -6.729  -0.187  0.00  0.00     0.275 HD
HETATM   13  H           1     -22.220  -5.937  -1.466  0.00  0.00     0.275 HD
ENDBRANCH   5  10
ENDBRANCH   2   5
BRANCH   3  14
HETATM   14  C           1     -20.434  -7.924  -4.519  0.00  0.00     0.186 C 
BRANCH  14  15
HETATM   15  C           1     -21.205  -9.051  -5.193  0.00  0.00     0.046 C 
BRANCH  15  16
HETATM   16  C           1     -20.412 -10.346  -5.084  0.00  0.00     0.076 C 
BRANCH  16  17
HETATM   17  S           1     -18.647  -9.997  -5.326  0.00  0.00    -0.173 SA
HETATM   18  C           1     -18.036 -11.213  -4.126  0.00  0.00     0.089 C 
ENDBRANCH  16  17
ENDBRANCH  15  16
ENDBRANCH  14  15
BRANCH  14  19
HETATM   19  C           1     -20.407  -6.719  -5.427  0.00  0.00     0.196 C 
HETATM   20  O           1     -20.779  -5.605  -4.999  0.00  0.00    -0.646 OA
HETATM   21  O           1     -20.013  -6.835  -6.608  0.00  0.00    -0.646 OA
ENDBRANCH  14  19
ENDBRANCH   3  14
TORSDOF 9
ENDMDL
MODEL 8
REMARK VINA RESULT:      -4.9     16.531     18.192
REMARK  9 active torsions:
REMARK  status: ('A' for Active; 'I' for Inactive)
REMARK    1  A    between atoms: C_2  and  C_15 
REMARK    2  A    between atoms: C_2  and  C_4 
REMARK    3  A    between atoms: C_6  and  C_14 
REMARK    4  A    between atoms: C_6  and  C_7 
REMARK    5  A    between atoms: C_7  and  C_8 
REMARK    6  A    between atoms: C_7  and  N_17 
REMARK    7  A    between atoms: N_10  and  C_15 
REMARK    8  A    between atoms: C_14  and  S_19 
REMARK    9  A    between atoms: C_15  and  C_16 
REMARK       I    between atoms: C_16  and  N_17 
ROOT
HETATM    1  O           1     -21.778  -9.259  -4.136  0.00  0.00    -0.271 OA
HETATM    2  C           1     -21.001  -8.392  -3.812  0.00  0.00     0.249 C 
HETATM    3  N           1     -20.930  -7.989  -2.506  0.00  0.00    -0.345 N 
HETATM    4  H           1     -20.280  -7.263  -2.235  0.00  0.00     0.163 HD
ENDROOT
BRANCH   2   5
HETATM    5  C           1     -20.110  -7.753  -4.848  0.00  0.00     0.278 C 
BRANCH   5   6
HETATM    6  C           1     -20.962  -6.986  -5.851  0.00  0.00     0.021 C 
HETATM    7  C           1     -21.968  -6.119  -5.104  0.00  0.00     0.012 C 
BRANCH   6   8
HETATM    8  C           1     -20.065  -6.100  -6.705  0.00  0.00     0.002 C 
HETATM    9  C           1     -19.942  -4.727  -6.058  0.00  0.00     0.005 C 
ENDBRANCH   6   8
ENDBRANCH   5   6
BRANCH   5  10
HETATM   10  N           1     -19.334  -8.818  -5.565  0.00  0.00    -0.066 N 
HETATM   11  H           1     -19.932  -9.246  -6.307  0.00  0.00     0.275 HD
HETATM   12  H           1     -18.485  -8.395  -6.004  0.00  0.00     0.275 HD
HETATM   13  H           1     -19.044  -9.556  -4.884  0.00  0.00     0.275 HD
ENDBRANCH   5  10
ENDBRANCH   2   5
BRANCH   3  14
HETATM   14  C           1     -21.787  -8.604  -1.511  0.00  0.00     0.186 C 
BRANCH  14  15
HETATM   15  C           1     -20.947  -9.475  -0.587  0.00  0.00     0.046 C 
BRANCH  15  16
HETATM   16  C           1     -21.328 -10.937  -0.783  0.00  0.00     0.076 C 
BRANCH  16  17
HETATM   17  S           1     -22.976 -11.037  -1.537  0.00  0.00    -0.173 SA
HETATM   18  C           1     -23.881 -11.357   0.004  0.00  0.00     0.089 C 
ENDBRANCH  16  17
ENDBRANCH  15  16
ENDBRANCH  14  15
BRANCH  14  19
HETATM   19  C           1     -22.471  -7.528  -0.703  0.00  0.00     0.196 C 
HETATM   20  O           1     -23.030  -7.818   0.377  0.00  0.00    -0.646 OA
HETATM   21  O           1     -22.480  -6.348  -1.115  0.00  0.00    -0.646 OA
ENDBRANCH  14  19
ENDBRANCH   3  14
TORSDOF 9
ENDMDL
MODEL 9
REMARK VINA RESULT:      -4.8     16.748     18.400
REMARK  9 active torsions:
REMARK  status: ('A' for Active; 'I' for Inactive)
REMARK    1  A    between atoms: C_2  and  C_15 
REMARK    2  A    between atoms: C_2  and  C_4 
REMARK    3  A    between atoms: C_6  and  C_14 
REMARK    4  A    between atoms: C_6  and  C_7 
REMARK    5  A    between atoms: C_7  and  C_8 
REMARK    6  A    between atoms: C_7  and  N_17 
REMARK    7  A    between atoms: N_10  and  C_15 
REMARK    8  A    between atoms: C_14  and  S_19 
REMARK    9  A    between atoms: C_15  and  C_16 
REMARK       I    between atoms: C_16  and  N_17 
ROOT
HETATM    1  O           1     -19.914  -9.365  -1.776  0.00  0.00    -0.271 OA
HETATM    2  C           1     -21.068  -9.584  -2.061  0.00  0.00     0.249 C 
HETATM    3  N           1     -21.694  -8.826  -3.013  0.00  0.00    -0.345 N 
HETATM    4  H           1     -22.660  -9.010  -3.251  0.00  0.00     0.163 HD
ENDROOT
BRANCH   2   5
HETATM    5  C           1     -21.818 -10.694  -1.367  0.00  0.00     0.278 C 
BRANCH   5   6
HETATM    6  C           1     -23.029 -10.117  -0.645  0.00  0.00     0.021 C 
HETATM    7  C           1     -23.903 -11.254  -0.130  0.00  0.00     0.012 C 
BRANCH   6   8
HETATM    8  C           1     -22.562  -9.266   0.527  0.00  0.00     0.002 C 
HETATM    9  C           1     -23.186  -7.880   0.430  0.00  0.00     0.005 C 
ENDBRANCH   6   8
ENDBRANCH   5   6
BRANCH   5  10
HETATM   10  N           1     -20.915 -11.361  -0.371  0.00  0.00    -0.066 N 
HETATM   11  H           1     -20.560 -12.260  -0.768  0.00  0.00     0.275 HD
HETATM   12  H           1     -20.108 -10.732  -0.158  0.00  0.00     0.275 HD
HETATM   13  H           1     -21.448 -11.555   0.506  0.00  0.00     0.275 HD
ENDBRANCH   5  10
ENDBRANCH   2   5
BRANCH   3  14
HETATM   14  C           1     -20.973  -7.759  -3.680  0.00  0.00     0.186 C 
BRANCH  14  15
HETATM   15  C           1     -20.664  -8.175  -5.112  0.00  0.00     0.046 C 
BRANCH  15  16
HETATM   16  C           1     -19.244  -8.720  -5.188  0.00  0.00     0.076 C 
BRANCH  16  17
HETATM   17  S           1     -19.297 -10.528  -5.336  0.00  0.00    -0.173 SA
HETATM   18  C           1     -17.860 -10.857  -4.277  0.00  0.00     0.089 C 
ENDBRANCH  16  17
ENDBRANCH  15  16
ENDBRANCH  14  15
BRANCH  14  19
HETATM   19  C           1     -21.818  -6.510  -3.689  0.00  0.00     0.196 C 
HETATM   20  O           1     -22.189  -5.999  -2.610  0.00  0.00    -0.646 OA
HETATM   21  O           1     -22.149  -5.987  -4.775  0.00  0.00    -0.646 OA
ENDBRANCH  14  19
ENDBRANCH   3  14
TORSDOF 9
ENDMDL
