MODEL 1
REMARK VINA RESULT:      -6.6      0.000      0.000
REMARK  8 active torsions:
REMARK  status: ('A' for Active; 'I' for Inactive)
REMARK    1  A    between atoms: C_2  and  C_3 
REMARK    2  A    between atoms: C_3  and  C_23 
REMARK    3  A    between atoms: C_4  and  C_5 
REMARK    4  A    between atoms: C_4  and  C_11 
REMARK    5  A    between atoms: C_4  and  N_21 
REMARK       I    between atoms: C_5  and  N_17 
REMARK    6  A    between atoms: O_8  and  C_11 
REMARK    7  A    between atoms: C_13  and  C_23 
REMARK    8  A    between atoms: N_17  and  C_23 
ROOT
HETATM    1  C           1     -25.105  -6.729 -19.549  0.00  0.00     0.251 C 
HETATM    2  O           1     -24.065  -6.259 -19.157  0.00  0.00    -0.271 OA
HETATM    3  H           1     -26.048  -8.087 -18.304  0.00  0.00     0.163 HD
HETATM    4  N           1     -26.054  -7.136 -18.650  0.00  0.00    -0.344 N 
ENDROOT
BRANCH   4   5
HETATM    5  C           1     -27.068  -6.206 -18.194  0.00  0.00     0.189 C 
BRANCH   5   6
HETATM    6  C           1     -28.448  -6.746 -18.547  0.00  0.00     0.074 C 
BRANCH   6   7
HETATM    7  C           1     -29.496  -5.792 -18.063  0.00  0.00    -0.056 A 
HETATM    8  C           1     -29.372  -4.428 -18.324  0.00  0.00     0.007 A 
HETATM    9  C           1     -30.349  -3.541 -17.873  0.00  0.00     0.001 A 
HETATM   10  C           1     -31.449  -4.017 -17.160  0.00  0.00     0.000 A 
HETATM   11  C           1     -31.573  -5.382 -16.900  0.00  0.00     0.001 A 
HETATM   12  C           1     -30.596  -6.269 -17.351  0.00  0.00     0.007 A 
ENDBRANCH   6   7
ENDBRANCH   5   6
BRANCH   5  13
HETATM   13  C           1     -26.960  -6.038 -16.698  0.00  0.00     0.197 C 
HETATM   14  O           1     -27.204  -7.003 -15.942  0.00  0.00    -0.646 OA
HETATM   15  O           1     -26.626  -4.934 -16.216  0.00  0.00    -0.646 OA
ENDBRANCH   5  13
ENDBRANCH   4   5
BRANCH   1  16
HETATM   16  C           1     -25.361  -6.869 -21.029  0.00  0.00     0.302 C 
BRANCH  16  17
HETATM   17  C           1     -24.601  -8.076 -21.565  0.00  0.00     0.153 C 
HETATM   18  C           1     -23.768  -7.659 -22.769  0.00  0.00     0.042 C 
BRANCH  17  19
HETATM   19  O           1     -23.757  -8.579 -20.565  0.00  0.00    -0.393 OA
HETATM   20  H           1     -24.256  -9.213 -20.079  0.00  0.00     0.210 HD
ENDBRANCH  17  19
ENDBRANCH  16  17
BRANCH  16  21
HETATM   21  N           1     -24.892  -5.632 -21.737  0.00  0.00    -0.064 N 
HETATM   22  H           1     -25.633  -5.305 -22.397  0.00  0.00     0.275 HD
HETATM   23  H           1     -24.020  -5.845 -22.271  0.00  0.00     0.275 HD
HETATM   24  H           1     -24.697  -4.883 -21.035  0.00  0.00     0.275 HD
ENDBRANCH  16  21
ENDBRANCH   1  16
TORSDOF 8
ENDMDL
MODEL 2
REMARK VINA RESULT:      -6.4     13.383     15.863
REMARK  8 active torsions:
REMARK  status: ('A' for Active; 'I' for Inactive)
REMARK    1  A    between atoms: C_2  and  C_3 
REMARK    2  A    between atoms: C_3  and  C_23 
REMARK    3  A    between atoms: C_4  and  C_5 
REMARK    4  A    between atoms: C_4  and  C_11 
REMARK    5  A    between atoms: C_4  and  N_21 
REMARK       I    between atoms: C_5  and  N_17 
REMARK    6  A    between atoms: O_8  and  C_11 
REMARK    7  A    between atoms: C_13  and  C_23 
REMARK    8  A    between atoms: N_17  and  C_23 
ROOT
HETATM    1  C           1     -21.561  -6.535  -3.136  0.00  0.00     0.251 C 
HETATM    2  O           1     -20.981  -5.601  -2.639  0.00  0.00    -0.271 OA
HETATM    3  H           1     -23.330  -6.123  -4.128  0.00  0.00     0.163 HD
HETATM    4  N           1     -22.349  -6.345  -4.239  0.00  0.00    -0.344 N 
ENDROOT
BRANCH   4   5
HETATM    5  C           1     -21.779  -6.461  -5.567  0.00  0.00     0.189 C 
BRANCH   5   6
HETATM    6  C           1     -20.900  -5.249  -5.849  0.00  0.00     0.074 C 
BRANCH   6   7
HETATM    7  C           1     -21.116  -4.793  -7.258  0.00  0.00    -0.056 A 
HETATM    8  C           1     -20.079  -4.881  -8.186  0.00  0.00     0.007 A 
HETATM    9  C           1     -20.280  -4.456  -9.499  0.00  0.00     0.001 A 
HETATM   10  C           1     -21.519  -3.942  -9.884  0.00  0.00     0.000 A 
HETATM   11  C           1     -22.556  -3.855  -8.956  0.00  0.00     0.001 A 
HETATM   12  C           1     -22.354  -4.280  -7.643  0.00  0.00     0.007 A 
ENDBRANCH   6   7
ENDBRANCH   5   6
BRANCH   5  13
HETATM   13  C           1     -20.947  -7.717  -5.649  0.00  0.00     0.197 C 
HETATM   14  O           1     -19.701  -7.647  -5.573  0.00  0.00    -0.646 OA
HETATM   15  O           1     -21.503  -8.827  -5.793  0.00  0.00    -0.646 OA
ENDBRANCH   5  13
ENDBRANCH   4   5
BRANCH   1  16
HETATM   16  C           1     -21.417  -7.915  -2.542  0.00  0.00     0.302 C 
BRANCH  16  17
HETATM   17  C           1     -22.147  -7.972  -1.206  0.00  0.00     0.153 C 
HETATM   18  C           1     -21.151  -8.283  -0.097  0.00  0.00     0.042 C 
BRANCH  17  19
HETATM   19  O           1     -22.756  -6.735  -0.952  0.00  0.00    -0.393 OA
HETATM   20  H           1     -22.285  -6.090  -1.452  0.00  0.00     0.210 HD
ENDBRANCH  17  19
ENDBRANCH  16  17
BRANCH  16  21
HETATM   21  N           1     -19.964  -8.219  -2.330  0.00  0.00    -0.064 N 
HETATM   22  H           1     -19.581  -8.702  -3.173  0.00  0.00     0.275 HD
HETATM   23  H           1     -19.856  -8.839  -1.496  0.00  0.00     0.275 HD
HETATM   24  H           1     -19.442  -7.328  -2.172  0.00  0.00     0.275 HD
ENDBRANCH  16  21
ENDBRANCH   1  16
TORSDOF 8
ENDMDL
MODEL 3
REMARK VINA RESULT:      -6.2     11.915     14.276
REMARK  8 active torsions:
REMARK  status: ('A' for Active; 'I' for Inactive)
REMARK    1  A    between atoms: C_2  and  C_3 
REMARK    2  A    between atoms: C_3  and  C_23 
REMARK    3  A    between atoms: C_4  and  C_5 
REMARK    4  A    between atoms: C_4  and  C_11 
REMARK    5  A    between atoms: C_4  and  N_21 
REMARK       I    between atoms: C_5  and  N_17 
REMARK    6  A    between atoms: O_8  and  C_11 
REMARK    7  A    between atoms: C_13  and  C_23 
REMARK    8  A    between atoms: N_17  and  C_23 
ROOT
HETATM    1  C           1     -21.705  -6.485  -4.623  0.00  0.00     0.251 C 
HETATM    2  O           1     -21.049  -5.923  -3.780  0.00  0.00    -0.271 OA
HETATM    3  H           1     -23.207  -5.386  -5.529  0.00  0.00     0.163 HD
HETATM    4  N           1     -22.275  -5.766  -5.639  0.00  0.00    -0.344 N 
ENDROOT
BRANCH   4   5
HETATM    5  C           1     -21.544  -5.546  -6.872  0.00  0.00     0.189 C 
BRANCH   5   6
HETATM    6  C           1     -21.910  -4.182  -7.441  0.00  0.00     0.074 C 
BRANCH   6   7
HETATM    7  C           1     -21.872  -4.238  -8.937  0.00  0.00    -0.056 A 
HETATM    8  C           1     -23.038  -4.497  -9.655  0.00  0.00     0.007 A 
HETATM    9  C           1     -23.003  -4.550 -11.048  0.00  0.00     0.001 A 
HETATM   10  C           1     -21.799  -4.345 -11.723  0.00  0.00     0.000 A 
HETATM   11  C           1     -20.632  -4.086 -11.005  0.00  0.00     0.001 A 
HETATM   12  C           1     -20.668  -4.033  -9.611  0.00  0.00     0.007 A 
ENDBRANCH   6   7
ENDBRANCH   5   6
BRANCH   5  13
HETATM   13  C           1     -20.062  -5.595  -6.593  0.00  0.00     0.197 C 
HETATM   14  O           1     -19.417  -6.640  -6.825  0.00  0.00    -0.646 OA
HETATM   15  O           1     -19.479  -4.590  -6.131  0.00  0.00    -0.646 OA
ENDBRANCH   5  13
ENDBRANCH   4   5
BRANCH   1  16
HETATM   16  C           1     -21.896  -7.980  -4.560  0.00  0.00     0.302 C 
BRANCH  16  17
HETATM   17  C           1     -21.369  -8.504  -3.230  0.00  0.00     0.153 C 
HETATM   18  C           1     -21.855  -9.931  -3.018  0.00  0.00     0.042 C 
BRANCH  17  19
HETATM   19  O           1     -19.967  -8.486  -3.243  0.00  0.00    -0.393 OA
HETATM   20  H           1     -19.686  -8.370  -2.351  0.00  0.00     0.210 HD
ENDBRANCH  17  19
ENDBRANCH  16  17
BRANCH  16  21
HETATM   21  N           1     -21.145  -8.629  -5.684  0.00  0.00    -0.064 N 
HETATM   22  H           1     -20.129  -8.400  -5.604  0.00  0.00     0.275 HD
HETATM   23  H           1     -21.510  -8.275  -6.597  0.00  0.00     0.275 HD
HETATM   24  H           1     -21.273  -9.664  -5.636  0.00  0.00     0.275 HD
ENDBRANCH  16  21
ENDBRANCH   1  16
TORSDOF 8
ENDMDL
MODEL 4
REMARK VINA RESULT:      -6.2      2.426      6.162
REMARK  8 active torsions:
REMARK  status: ('A' for Active; 'I' for Inactive)
REMARK    1  A    between atoms: C_2  and  C_3 
REMARK    2  A    between atoms: C_3  and  C_23 
REMARK    3  A    between atoms: C_4  and  C_5 
REMARK    4  A    between atoms: C_4  and  C_11 
REMARK    5  A    between atoms: C_4  and  N_21 
REMARK       I    between atoms: C_5  and  N_17 
REMARK    6  A    between atoms: O_8  and  C_11 
REMARK    7  A    between atoms: C_13  and  C_23 
REMARK    8  A    between atoms: N_17  and  C_23 
ROOT
HETATM    1  C           1     -28.271  -5.097 -16.508  0.00  0.00     0.251 C 
HETATM    2  O           1     -28.321  -4.782 -15.344  0.00  0.00    -0.271 OA
HETATM    3  H           1     -26.606  -4.486 -17.574  0.00  0.00     0.163 HD
HETATM    4  N           1     -27.059  -5.268 -17.120  0.00  0.00    -0.344 N 
ENDROOT
BRANCH   4   5
HETATM    5  C           1     -26.422  -6.571 -17.115  0.00  0.00     0.189 C 
BRANCH   5   6
HETATM    6  C           1     -25.007  -6.445 -17.666  0.00  0.00     0.074 C 
BRANCH   6   7
HETATM    7  C           1     -24.965  -6.987 -19.061  0.00  0.00    -0.056 A 
HETATM    8  C           1     -26.101  -6.933 -19.866  0.00  0.00     0.007 A 
HETATM    9  C           1     -26.061  -7.437 -21.165  0.00  0.00     0.001 A 
HETATM   10  C           1     -24.883  -7.998 -21.660  0.00  0.00     0.000 A 
HETATM   11  C           1     -23.745  -8.052 -20.854  0.00  0.00     0.001 A 
HETATM   12  C           1     -23.786  -7.547 -19.555  0.00  0.00     0.007 A 
ENDBRANCH   6   7
ENDBRANCH   5   6
BRANCH   5  13
HETATM   13  C           1     -26.368  -7.100 -15.703  0.00  0.00     0.197 C 
HETATM   14  O           1     -25.339  -6.936 -15.014  0.00  0.00    -0.646 OA
HETATM   15  O           1     -27.353  -7.702 -15.224  0.00  0.00    -0.646 OA
ENDBRANCH   5  13
ENDBRANCH   4   5
BRANCH   1  16
HETATM   16  C           1     -29.545  -5.302 -17.290  0.00  0.00     0.302 C 
BRANCH  16  17
HETATM   17  C           1     -29.957  -3.990 -17.946  0.00  0.00     0.153 C 
HETATM   18  C           1     -31.371  -3.628 -17.514  0.00  0.00     0.042 C 
BRANCH  17  19
HETATM   19  O           1     -29.074  -2.974 -17.554  0.00  0.00    -0.393 OA
HETATM   20  H           1     -29.207  -2.837 -16.631  0.00  0.00     0.210 HD
ENDBRANCH  17  19
ENDBRANCH  16  17
BRANCH  16  21
HETATM   21  N           1     -30.633  -5.758 -16.363  0.00  0.00    -0.064 N 
HETATM   22  H           1     -31.563  -5.490 -16.757  0.00  0.00     0.275 HD
HETATM   23  H           1     -30.507  -5.306 -15.430  0.00  0.00     0.275 HD
HETATM   24  H           1     -30.586  -6.796 -16.257  0.00  0.00     0.275 HD
ENDBRANCH  16  21
ENDBRANCH   1  16
TORSDOF 8
ENDMDL
MODEL 5
REMARK VINA RESULT:      -6.2     15.943     17.874
REMARK  8 active torsions:
REMARK  status: ('A' for Active; 'I' for Inactive)
REMARK    1  A    between atoms: C_2  and  C_3 
REMARK    2  A    between atoms: C_3  and  C_23 
REMARK    3  A    between atoms: C_4  and  C_5 
REMARK    4  A    between atoms: C_4  and  C_11 
REMARK    5  A    between atoms: C_4  and  N_21 
REMARK       I    between atoms: C_5  and  N_17 
REMARK    6  A    between atoms: O_8  and  C_11 
REMARK    7  A    between atoms: C_13  and  C_23 
REMARK    8  A    between atoms: N_17  and  C_23 
ROOT
HETATM    1  C           1     -19.022  -9.603  -3.969  0.00  0.00     0.251 C 
HETATM    2  O           1     -19.155 -10.602  -4.633  0.00  0.00    -0.271 OA
HETATM    3  H           1     -19.073  -7.795  -4.974  0.00  0.00     0.163 HD
HETATM    4  N           1     -19.591  -8.428  -4.378  0.00  0.00    -0.344 N 
ENDROOT
BRANCH   4   5
HETATM    5  C           1     -20.937  -8.089  -3.959  0.00  0.00     0.189 C 
BRANCH   5   6
HETATM    6  C           1     -20.880  -7.308  -2.653  0.00  0.00     0.074 C 
BRANCH   6   7
HETATM    7  C           1     -21.725  -7.993  -1.624  0.00  0.00    -0.056 A 
HETATM    8  C           1     -21.936  -9.368  -1.697  0.00  0.00     0.007 A 
HETATM    9  C           1     -22.723 -10.006  -0.739  0.00  0.00     0.001 A 
HETATM   10  C           1     -23.301  -9.266   0.294  0.00  0.00     0.000 A 
HETATM   11  C           1     -23.089  -7.889   0.368  0.00  0.00     0.001 A 
HETATM   12  C           1     -22.302  -7.252  -0.592  0.00  0.00     0.007 A 
ENDBRANCH   6   7
ENDBRANCH   5   6
BRANCH   5  13
HETATM   13  C           1     -21.599  -7.247  -5.022  0.00  0.00     0.197 C 
HETATM   14  O           1     -22.461  -6.401  -4.701  0.00  0.00    -0.646 OA
HETATM   15  O           1     -21.283  -7.395  -6.222  0.00  0.00    -0.646 OA
ENDBRANCH   5  13
ENDBRANCH   4   5
BRANCH   1  16
HETATM   16  C           1     -18.227  -9.649  -2.687  0.00  0.00     0.302 C 
BRANCH  16  17
HETATM   17  C           1     -16.744  -9.502  -3.001  0.00  0.00     0.153 C 
HETATM   18  C           1     -15.965 -10.608  -2.304  0.00  0.00     0.042 C 
BRANCH  17  19
HETATM   19  O           1     -16.548  -9.594  -4.387  0.00  0.00    -0.393 OA
HETATM   20  H           1     -17.399  -9.545  -4.788  0.00  0.00     0.210 HD
ENDBRANCH  17  19
ENDBRANCH  16  17
BRANCH  16  21
HETATM   21  N           1     -18.463 -10.962  -2.000  0.00  0.00    -0.064 N 
HETATM   22  H           1     -19.436 -11.288  -2.194  0.00  0.00     0.275 HD
HETATM   23  H           1     -18.335 -10.843  -0.969  0.00  0.00     0.275 HD
HETATM   24  H           1     -17.781 -11.668  -2.357  0.00  0.00     0.275 HD
ENDBRANCH  16  21
ENDBRANCH   1  16
TORSDOF 8
ENDMDL
MODEL 6
REMARK VINA RESULT:      -6.0     16.513     18.609
REMARK  8 active torsions:
REMARK  status: ('A' for Active; 'I' for Inactive)
REMARK    1  A    between atoms: C_2  and  C_3 
REMARK    2  A    between atoms: C_3  and  C_23 
REMARK    3  A    between atoms: C_4  and  C_5 
REMARK    4  A    between atoms: C_4  and  C_11 
REMARK    5  A    between atoms: C_4  and  N_21 
REMARK       I    between atoms: C_5  and  N_17 
REMARK    6  A    between atoms: O_8  and  C_11 
REMARK    7  A    between atoms: C_13  and  C_23 
REMARK    8  A    between atoms: N_17  and  C_23 
ROOT
HETATM    1  C           1     -21.466  -6.766  -2.507  0.00  0.00     0.251 C 
HETATM    2  O           1     -22.137  -5.774  -2.353  0.00  0.00    -0.271 OA
HETATM    3  H           1     -20.149  -7.252  -0.986  0.00  0.00     0.163 HD
HETATM    4  N           1     -21.036  -7.477  -1.420  0.00  0.00    -0.344 N 
ENDROOT
BRANCH   4   5
HETATM    5  C           1     -21.850  -8.552  -0.888  0.00  0.00     0.189 C 
BRANCH   5   6
HETATM    6  C           1     -21.031  -9.836  -0.847  0.00  0.00     0.074 C 
BRANCH   6   7
HETATM    7  C           1     -21.910 -10.976  -0.436  0.00  0.00    -0.056 A 
HETATM    8  C           1     -23.105 -11.215  -1.113  0.00  0.00     0.007 A 
HETATM    9  C           1     -23.923 -12.277  -0.730  0.00  0.00     0.001 A 
HETATM   10  C           1     -23.547 -13.100   0.332  0.00  0.00     0.000 A 
HETATM   11  C           1     -22.352 -12.861   1.010  0.00  0.00     0.001 A 
HETATM   12  C           1     -21.533 -11.798   0.626  0.00  0.00     0.007 A 
ENDBRANCH   6   7
ENDBRANCH   5   6
BRANCH   5  13
HETATM   13  C           1     -22.302  -8.198   0.508  0.00  0.00     0.197 C 
HETATM   14  O           1     -23.512  -7.983   0.737  0.00  0.00    -0.646 OA
HETATM   15  O           1     -21.466  -8.119   1.434  0.00  0.00    -0.646 OA
ENDBRANCH   5  13
ENDBRANCH   4   5
BRANCH   1  16
HETATM   16  C           1     -21.101  -7.222  -3.898  0.00  0.00     0.302 C 
BRANCH  16  17
HETATM   17  C           1     -21.440  -6.125  -4.899  0.00  0.00     0.153 C 
HETATM   18  C           1     -20.718  -6.394  -6.212  0.00  0.00     0.042 C 
BRANCH  17  19
HETATM   19  O           1     -22.824  -6.108  -5.123  0.00  0.00    -0.393 OA
HETATM   20  H           1     -23.176  -5.403  -4.606  0.00  0.00     0.210 HD
ENDBRANCH  17  19
ENDBRANCH  16  17
BRANCH  16  21
HETATM   21  N           1     -21.874  -8.462  -4.237  0.00  0.00    -0.064 N 
HETATM   22  H           1     -22.442  -8.756  -3.411  0.00  0.00     0.275 HD
HETATM   23  H           1     -21.210  -9.228  -4.492  0.00  0.00     0.275 HD
HETATM   24  H           1     -22.507  -8.267  -5.044  0.00  0.00     0.275 HD
ENDBRANCH  16  21
ENDBRANCH   1  16
TORSDOF 8
ENDMDL
MODEL 7
REMARK VINA RESULT:      -6.0      1.487      2.152
REMARK  8 active torsions:
REMARK  status: ('A' for Active; 'I' for Inactive)
REMARK    1  A    between atoms: C_2  and  C_3 
REMARK    2  A    between atoms: C_3  and  C_23 
REMARK    3  A    between atoms: C_4  and  C_5 
REMARK    4  A    between atoms: C_4  and  C_11 
REMARK    5  A    between atoms: C_4  and  N_21 
REMARK       I    between atoms: C_5  and  N_17 
REMARK    6  A    between atoms: O_8  and  C_11 
REMARK    7  A    between atoms: C_13  and  C_23 
REMARK    8  A    between atoms: N_17  and  C_23 
ROOT
HETATM    1  C           1     -24.935  -6.885 -17.426  0.00  0.00     0.251 C 
HETATM    2  O           1     -24.366  -6.864 -16.361  0.00  0.00    -0.271 OA
HETATM    3  H           1     -26.622  -8.075 -17.566  0.00  0.00     0.163 HD
HETATM    4  N           1     -26.281  -7.126 -17.479  0.00  0.00    -0.344 N 
ENDROOT
BRANCH   4   5
HETATM    5  C           1     -27.219  -6.023 -17.411  0.00  0.00     0.189 C 
BRANCH   5   6
HETATM    6  C           1     -28.352  -6.258 -18.401  0.00  0.00     0.074 C 
BRANCH   6   7
HETATM    7  C           1     -29.569  -5.511 -17.954  0.00  0.00    -0.056 A 
HETATM    8  C           1     -30.644  -6.199 -17.393  0.00  0.00     0.007 A 
HETATM    9  C           1     -31.778  -5.503 -16.977  0.00  0.00     0.001 A 
HETATM   10  C           1     -31.838  -4.117 -17.122  0.00  0.00     0.000 A 
HETATM   11  C           1     -30.763  -3.428 -17.683  0.00  0.00     0.001 A 
HETATM   12  C           1     -29.628  -4.125 -18.100  0.00  0.00     0.007 A 
ENDBRANCH   6   7
ENDBRANCH   5   6
BRANCH   5  13
HETATM   13  C           1     -27.782  -5.927 -16.014  0.00  0.00     0.197 C 
HETATM   14  O           1     -27.931  -4.809 -15.475  0.00  0.00    -0.646 OA
HETATM   15  O           1     -28.100  -6.966 -15.396  0.00  0.00    -0.646 OA
ENDBRANCH   5  13
ENDBRANCH   4   5
BRANCH   1  16
HETATM   16  C           1     -24.161  -6.644 -18.700  0.00  0.00     0.302 C 
BRANCH  16  17
HETATM   17  C           1     -24.814  -7.410 -19.843  0.00  0.00     0.153 C 
HETATM   18  C           1     -25.370  -6.425 -20.862  0.00  0.00     0.042 C 
BRANCH  17  19
HETATM   19  O           1     -23.861  -8.232 -20.461  0.00  0.00    -0.393 OA
HETATM   20  H           1     -23.902  -8.053 -21.385  0.00  0.00     0.210 HD
ENDBRANCH  17  19
ENDBRANCH  16  17
BRANCH  16  21
HETATM   21  N           1     -22.749  -7.119 -18.524  0.00  0.00    -0.064 N 
HETATM   22  H           1     -22.732  -8.163 -18.497  0.00  0.00     0.275 HD
HETATM   23  H           1     -22.364  -6.741 -17.629  0.00  0.00     0.275 HD
HETATM   24  H           1     -22.168  -6.782 -19.324  0.00  0.00     0.275 HD
ENDBRANCH  16  21
ENDBRANCH   1  16
TORSDOF 8
ENDMDL
MODEL 8
REMARK VINA RESULT:      -6.0     16.950     18.559
REMARK  8 active torsions:
REMARK  status: ('A' for Active; 'I' for Inactive)
REMARK    1  A    between atoms: C_2  and  C_3 
REMARK    2  A    between atoms: C_3  and  C_23 
REMARK    3  A    between atoms: C_4  and  C_5 
REMARK    4  A    between atoms: C_4  and  C_11 
REMARK    5  A    between atoms: C_4  and  N_21 
REMARK       I    between atoms: C_5  and  N_17 
REMARK    6  A    between atoms: O_8  and  C_11 
REMARK    7  A    between atoms: C_13  and  C_23 
REMARK    8  A    between atoms: N_17  and  C_23 
ROOT
HETATM    1  C           1     -20.306  -8.613  -3.686  0.00  0.00     0.251 C 
HETATM    2  O           1     -20.658  -7.983  -4.653  0.00  0.00    -0.271 OA
HETATM    3  H           1     -19.570  -7.535  -2.081  0.00  0.00     0.163 HD
HETATM    4  N           1     -20.364  -8.048  -2.441  0.00  0.00    -0.344 N 
ENDROOT
BRANCH   4   5
HETATM    5  C           1     -21.564  -8.183  -1.639  0.00  0.00     0.189 C 
BRANCH   5   6
HETATM    6  C           1     -21.198  -8.741  -0.270  0.00  0.00     0.074 C 
BRANCH   6   7
HETATM    7  C           1     -21.955 -10.010  -0.029  0.00  0.00    -0.056 A 
HETATM    8  C           1     -23.299 -10.099  -0.386  0.00  0.00     0.007 A 
HETATM    9  C           1     -24.003 -11.282  -0.162  0.00  0.00     0.001 A 
HETATM   10  C           1     -23.363 -12.375   0.422  0.00  0.00     0.000 A 
HETATM   11  C           1     -22.018 -12.286   0.780  0.00  0.00     0.001 A 
HETATM   12  C           1     -21.314 -11.103   0.555  0.00  0.00     0.007 A 
ENDBRANCH   6   7
ENDBRANCH   5   6
BRANCH   5  13
HETATM   13  C           1     -22.215  -6.831  -1.475  0.00  0.00     0.197 C 
HETATM   14  O           1     -22.672  -6.489  -0.364  0.00  0.00    -0.646 OA
HETATM   15  O           1     -22.296  -6.055  -2.451  0.00  0.00    -0.646 OA
ENDBRANCH   5  13
ENDBRANCH   4   5
BRANCH   1  16
HETATM   16  C           1     -19.800 -10.025  -3.850  0.00  0.00     0.302 C 
BRANCH  16  17
HETATM   17  C           1     -20.980 -10.969  -4.046  0.00  0.00     0.153 C 
HETATM   18  C           1     -20.940 -12.059  -2.984  0.00  0.00     0.042 C 
BRANCH  17  19
HETATM   19  O           1     -22.178 -10.250  -3.931  0.00  0.00    -0.393 OA
HETATM   20  H           1     -22.517 -10.417  -3.068  0.00  0.00     0.210 HD
ENDBRANCH  17  19
ENDBRANCH  16  17
BRANCH  16  21
HETATM   21  N           1     -19.038 -10.429  -2.622  0.00  0.00    -0.064 N 
HETATM   22  H           1     -19.612 -10.228  -1.773  0.00  0.00     0.275 HD
HETATM   23  H           1     -18.145  -9.888  -2.574  0.00  0.00     0.275 HD
HETATM   24  H           1     -18.825 -11.450  -2.665  0.00  0.00     0.275 HD
ENDBRANCH  16  21
ENDBRANCH   1  16
TORSDOF 8
ENDMDL
MODEL 9
REMARK VINA RESULT:      -5.8     16.008     17.939
REMARK  8 active torsions:
REMARK  status: ('A' for Active; 'I' for Inactive)
REMARK    1  A    between atoms: C_2  and  C_3 
REMARK    2  A    between atoms: C_3  and  C_23 
REMARK    3  A    between atoms: C_4  and  C_5 
REMARK    4  A    between atoms: C_4  and  C_11 
REMARK    5  A    between atoms: C_4  and  N_21 
REMARK       I    between atoms: C_5  and  N_17 
REMARK    6  A    between atoms: O_8  and  C_11 
REMARK    7  A    between atoms: C_13  and  C_23 
REMARK    8  A    between atoms: N_17  and  C_23 
ROOT
HETATM    1  C           1     -20.935  -8.813  -4.295  0.00  0.00     0.251 C 
HETATM    2  O           1     -21.531  -8.261  -5.188  0.00  0.00    -0.271 OA
HETATM    3  H           1     -19.850  -7.609  -3.008  0.00  0.00     0.163 HD
HETATM    4  N           1     -20.697  -8.152  -3.120  0.00  0.00    -0.344 N 
ENDROOT
BRANCH   4   5
HETATM    5  C           1     -21.658  -8.229  -2.037  0.00  0.00     0.189 C 
BRANCH   5   6
HETATM    6  C           1     -20.987  -8.825  -0.806  0.00  0.00     0.074 C 
BRANCH   6   7
HETATM    7  C           1     -21.756 -10.026  -0.351  0.00  0.00    -0.056 A 
HETATM    8  C           1     -21.103 -11.062   0.314  0.00  0.00     0.007 A 
HETATM    9  C           1     -21.820 -12.181   0.737  0.00  0.00     0.001 A 
HETATM   10  C           1     -23.191 -12.263   0.495  0.00  0.00     0.000 A 
HETATM   11  C           1     -23.846 -11.226  -0.170  0.00  0.00     0.001 A 
HETATM   12  C           1     -23.128 -10.107  -0.593  0.00  0.00     0.007 A 
ENDBRANCH   6   7
ENDBRANCH   5   6
BRANCH   5  13
HETATM   13  C           1     -22.164  -6.844  -1.715  0.00  0.00     0.197 C 
HETATM   14  O           1     -22.627  -6.597  -0.580  0.00  0.00    -0.646 OA
HETATM   15  O           1     -22.119  -5.945  -2.582  0.00  0.00    -0.646 OA
ENDBRANCH   5  13
ENDBRANCH   4   5
BRANCH   1  16
HETATM   16  C           1     -20.453 -10.232  -4.473  0.00  0.00     0.302 C 
BRANCH  16  17
HETATM   17  C           1     -19.058 -10.222  -5.085  0.00  0.00     0.153 C 
HETATM   18  C           1     -18.944 -11.347  -6.105  0.00  0.00     0.042 C 
BRANCH  17  19
HETATM   19  O           1     -18.834  -8.992  -5.720  0.00  0.00    -0.393 OA
HETATM   20  H           1     -18.323  -8.467  -5.127  0.00  0.00     0.210 HD
ENDBRANCH  17  19
ENDBRANCH  16  17
BRANCH  16  21
HETATM   21  N           1     -21.391 -10.969  -5.382  0.00  0.00    -0.064 N 
HETATM   22  H           1     -21.354 -10.548  -6.338  0.00  0.00     0.275 HD
HETATM   23  H           1     -22.365 -10.898  -5.009  0.00  0.00     0.275 HD
HETATM   24  H           1     -21.109 -11.973  -5.432  0.00  0.00     0.275 HD
ENDBRANCH  16  21
ENDBRANCH   1  16
TORSDOF 8
ENDMDL
