MODEL 1
REMARK VINA RESULT:      -4.9      0.000      0.000
REMARK  5 active torsions:
REMARK  status: ('A' for Active; 'I' for Inactive)
REMARK       I    between atoms: C_8  and  N_9 
REMARK    1  A    between atoms: C_8  and  C_17 
REMARK    2  A    between atoms: N_9  and  C_10 
REMARK    3  A    between atoms: C_10  and  C_22 
REMARK    4  A    between atoms: C_10  and  C_11 
REMARK    5  A    between atoms: C_22  and  Se_23 
ROOT
HETATM    1  H           1     -20.901  -2.424  -6.574  0.00  0.00     0.274 HD
HETATM    2  H           1     -21.646  -3.866  -6.044  0.00  0.00     0.274 HD
HETATM    3  H           1     -22.433  -2.866  -7.181  0.00  0.00     0.274 HD
HETATM    4  N           1     -22.589  -5.336  -6.064  0.00  0.00    -0.067 N 
HETATM    5  C           1     -19.698  -5.434  -6.318  0.00  0.00     0.004 C 
HETATM    6  C           1     -19.496  -4.504  -7.506  0.00  0.00     0.027 C 
HETATM    7  C           1     -20.846  -3.979  -7.976  0.00  0.00     0.229 C 
HETATM    8  N           1     -21.507  -3.227  -6.860  0.00  0.00    -0.079 N 
HETATM    9  C           1     -20.581  -6.605  -6.732  0.00  0.00     0.042 C 
HETATM   10  C           1     -21.839  -6.621  -5.874  0.00  0.00     0.274 C 
HETATM   11  H           1     -21.983  -4.534  -5.779  0.00  0.00     0.275 HD
HETATM   12  H           1     -23.453  -5.348  -5.476  0.00  0.00     0.275 HD
HETATM   13  H           1     -22.855  -5.232  -7.070  0.00  0.00     0.275 HD
ENDROOT
BRANCH  10  14
HETATM   14  C           1     -21.456  -6.770  -4.422  0.00  0.00     0.249 C 
HETATM   15  O           1     -21.556  -5.829  -3.671  0.00  0.00    -0.271 OA
HETATM   16  N           1     -20.995  -7.972  -3.957  0.00  0.00    -0.345 N 
HETATM   17  H           1     -20.910  -8.760  -4.586  0.00  0.00     0.163 HD
BRANCH  16  18
HETATM   18  C           1     -20.627  -8.116  -2.562  0.00  0.00     0.185 C 
BRANCH  18  19
HETATM   19  C           1     -21.833  -8.595  -1.765  0.00  0.00     0.039 C 
BRANCH  19  20
HETATM   20 Se           1     -22.345  -7.228  -0.474  0.00  0.00     0.000 Se
HETATM   21  H           1     -21.088  -6.472  -0.601  0.00  0.00     0.000 HD
ENDBRANCH  19  20
ENDBRANCH  18  19
BRANCH  18  22
HETATM   22  C           1     -19.509  -9.123  -2.439  0.00  0.00     0.196 C 
HETATM   23  O           1     -18.496  -9.024  -3.163  0.00  0.00    -0.646 OA
HETATM   24  O           1     -19.598 -10.056  -1.612  0.00  0.00    -0.646 OA
ENDBRANCH  18  22
ENDBRANCH  16  18
ENDBRANCH  10  14
TORSDOF 5
ENDMDL
MODEL 2
REMARK VINA RESULT:      -4.9      4.473      6.846
REMARK  5 active torsions:
REMARK  status: ('A' for Active; 'I' for Inactive)
REMARK       I    between atoms: C_8  and  N_9 
REMARK    1  A    between atoms: C_8  and  C_17 
REMARK    2  A    between atoms: N_9  and  C_10 
REMARK    3  A    between atoms: C_10  and  C_22 
REMARK    4  A    between atoms: C_10  and  C_11 
REMARK    5  A    between atoms: C_22  and  Se_23 
ROOT
HETATM    1  H           1     -22.199  -5.566  -2.866  0.00  0.00     0.274 HD
HETATM    2  H           1     -21.296  -4.926  -4.164  0.00  0.00     0.274 HD
HETATM    3  H           1     -20.539  -5.228  -2.665  0.00  0.00     0.274 HD
HETATM    4  N           1     -19.960  -4.614  -5.246  0.00  0.00    -0.067 N 
HETATM    5  C           1     -22.033  -6.513  -5.972  0.00  0.00     0.004 C 
HETATM    6  C           1     -21.989  -7.441  -4.766  0.00  0.00     0.027 C 
HETATM    7  C           1     -20.929  -6.953  -3.788  0.00  0.00     0.229 C 
HETATM    8  N           1     -21.266  -5.563  -3.336  0.00  0.00    -0.079 N 
HETATM    9  C           1     -20.674  -6.507  -6.660  0.00  0.00     0.042 C 
HETATM   10  C           1     -20.112  -5.092  -6.660  0.00  0.00     0.274 C 
HETATM   11  H           1     -20.894  -4.618  -4.776  0.00  0.00     0.275 HD
HETATM   12  H           1     -19.573  -3.643  -5.248  0.00  0.00     0.275 HD
HETATM   13  H           1     -19.307  -5.248  -4.732  0.00  0.00     0.275 HD
ENDROOT
BRANCH  10  14
HETATM   14  C           1     -21.054  -4.176  -7.402  0.00  0.00     0.249 C 
HETATM   15  O           1     -21.409  -3.136  -6.898  0.00  0.00    -0.271 OA
HETATM   16  N           1     -21.508  -4.523  -8.646  0.00  0.00    -0.345 N 
HETATM   17  H           1     -21.211  -5.394  -9.068  0.00  0.00     0.163 HD
BRANCH  16  18
HETATM   18  C           1     -22.413  -3.644  -9.359  0.00  0.00     0.185 C 
BRANCH  18  19
HETATM   19  C           1     -22.044  -3.624 -10.836  0.00  0.00     0.039 C 
BRANCH  19  20
HETATM   20 Se           1     -20.252  -4.353 -11.070  0.00  0.00     0.000 Se
HETATM   21  H           1     -20.248  -5.065  -9.781  0.00  0.00     0.000 HD
ENDBRANCH  19  20
ENDBRANCH  18  19
BRANCH  18  22
HETATM   22  C           1     -23.829  -4.143  -9.200  0.00  0.00     0.196 C 
HETATM   23  O           1     -24.481  -4.503 -10.203  0.00  0.00    -0.646 OA
HETATM   24  O           1     -24.348  -4.196  -8.064  0.00  0.00    -0.646 OA
ENDBRANCH  18  22
ENDBRANCH  16  18
ENDBRANCH  10  14
TORSDOF 5
ENDMDL
MODEL 3
REMARK VINA RESULT:      -4.7      3.072      4.175
REMARK  5 active torsions:
REMARK  status: ('A' for Active; 'I' for Inactive)
REMARK       I    between atoms: C_8  and  N_9 
REMARK    1  A    between atoms: C_8  and  C_17 
REMARK    2  A    between atoms: N_9  and  C_10 
REMARK    3  A    between atoms: C_10  and  C_22 
REMARK    4  A    between atoms: C_10  and  C_11 
REMARK    5  A    between atoms: C_22  and  Se_23 
ROOT
HETATM    1  H           1     -21.530  -8.762  -6.271  0.00  0.00     0.274 HD
HETATM    2  H           1     -21.014  -8.732  -4.645  0.00  0.00     0.274 HD
HETATM    3  H           1     -19.867  -8.846  -5.902  0.00  0.00     0.274 HD
HETATM    4  N           1     -20.045  -8.399  -3.230  0.00  0.00    -0.067 N 
HETATM    5  C           1     -22.370  -6.771  -3.841  0.00  0.00     0.004 C 
HETATM    6  C           1     -22.033  -6.334  -5.260  0.00  0.00     0.027 C 
HETATM    7  C           1     -20.697  -6.936  -5.673  0.00  0.00     0.229 C 
HETATM    8  N           1     -20.783  -8.432  -5.619  0.00  0.00    -0.079 N 
HETATM    9  C           1     -21.282  -6.291  -2.889  0.00  0.00     0.042 C 
HETATM   10  C           1     -20.647  -7.491  -2.199  0.00  0.00     0.274 C 
HETATM   11  H           1     -20.793  -8.728  -3.882  0.00  0.00     0.275 HD
HETATM   12  H           1     -19.608  -9.221  -2.755  0.00  0.00     0.275 HD
HETATM   13  H           1     -19.315  -7.880  -3.769  0.00  0.00     0.275 HD
ENDROOT
BRANCH  10  14
HETATM   14  C           1     -21.700  -8.241  -1.421  0.00  0.00     0.249 C 
HETATM   15  O           1     -22.466  -7.639  -0.706  0.00  0.00    -0.271 OA
HETATM   16  N           1     -21.786  -9.603  -1.525  0.00  0.00    -0.345 N 
HETATM   17  H           1     -21.144 -10.107  -2.124  0.00  0.00     0.163 HD
BRANCH  16  18
HETATM   18  C           1     -22.798 -10.324  -0.779  0.00  0.00     0.185 C 
BRANCH  18  19
HETATM   19  C           1     -23.557 -11.253  -1.717  0.00  0.00     0.039 C 
BRANCH  19  20
HETATM   20 Se           1     -22.662 -11.303  -3.448  0.00  0.00     0.000 Se
HETATM   21  H           1     -23.875 -11.678  -4.193  0.00  0.00     0.000 HD
ENDBRANCH  19  20
ENDBRANCH  18  19
BRANCH  18  22
HETATM   22  C           1     -22.137 -11.137   0.308  0.00  0.00     0.196 C 
HETATM   23  O           1     -22.616 -12.241   0.642  0.00  0.00    -0.646 OA
HETATM   24  O           1     -21.109 -10.705   0.874  0.00  0.00    -0.646 OA
ENDBRANCH  18  22
ENDBRANCH  16  18
ENDBRANCH  10  14
TORSDOF 5
ENDMDL
MODEL 4
REMARK VINA RESULT:      -4.5      3.728      6.956
REMARK  5 active torsions:
REMARK  status: ('A' for Active; 'I' for Inactive)
REMARK       I    between atoms: C_8  and  N_9 
REMARK    1  A    between atoms: C_8  and  C_17 
REMARK    2  A    between atoms: N_9  and  C_10 
REMARK    3  A    between atoms: C_10  and  C_22 
REMARK    4  A    between atoms: C_10  and  C_11 
REMARK    5  A    between atoms: C_22  and  Se_23 
ROOT
HETATM    1  H           1     -20.940 -13.411  -2.599  0.00  0.00     0.274 HD
HETATM    2  H           1     -21.726 -11.987  -2.082  0.00  0.00     0.274 HD
HETATM    3  H           1     -22.626 -13.413  -2.339  0.00  0.00     0.274 HD
HETATM    4  N           1     -22.850 -10.931  -1.262  0.00  0.00    -0.067 N 
HETATM    5  C           1     -20.178 -11.347  -0.205  0.00  0.00     0.004 C 
HETATM    6  C           1     -20.160 -12.866  -0.096  0.00  0.00     0.027 C 
HETATM    7  C           1     -21.492 -13.425  -0.578  0.00  0.00     0.229 C 
HETATM    8  N           1     -21.713 -13.030  -2.008  0.00  0.00    -0.079 N 
HETATM    9  C           1     -21.303 -10.788   0.656  0.00  0.00     0.042 C 
HETATM   10  C           1     -22.277 -10.014  -0.222  0.00  0.00     0.274 C 
HETATM   11  H           1     -22.076 -11.313  -1.852  0.00  0.00     0.275 HD
HETATM   12  H           1     -23.518 -10.399  -1.864  0.00  0.00     0.275 HD
HETATM   13  H           1     -23.353 -11.718  -0.794  0.00  0.00     0.275 HD
ENDROOT
BRANCH  10  14
HETATM   14  C           1     -21.551  -8.877  -0.899  0.00  0.00     0.249 C 
HETATM   15  O           1     -20.892  -8.106  -0.243  0.00  0.00    -0.271 OA
HETATM   16  N           1     -21.640  -8.721  -2.256  0.00  0.00    -0.345 N 
HETATM   17  H           1     -22.193  -9.366  -2.805  0.00  0.00     0.163 HD
BRANCH  16  18
HETATM   18  C           1     -20.942  -7.629  -2.906  0.00  0.00     0.185 C 
BRANCH  18  19
HETATM   19  C           1     -20.348  -8.117  -4.220  0.00  0.00     0.039 C 
BRANCH  19  20
HETATM   20 Se           1     -21.036  -9.895  -4.626  0.00  0.00     0.000 Se
HETATM   21  H           1     -20.374 -10.539  -3.479  0.00  0.00     0.000 HD
ENDBRANCH  19  20
ENDBRANCH  18  19
BRANCH  18  22
HETATM   22  C           1     -21.912  -6.504  -3.179  0.00  0.00     0.196 C 
HETATM   23  O           1     -22.387  -5.845  -2.230  0.00  0.00    -0.646 OA
HETATM   24  O           1     -22.239  -6.233  -4.355  0.00  0.00    -0.646 OA
ENDBRANCH  18  22
ENDBRANCH  16  18
ENDBRANCH  10  14
TORSDOF 5
ENDMDL
MODEL 5
REMARK VINA RESULT:      -4.5     14.744     16.226
REMARK  5 active torsions:
REMARK  status: ('A' for Active; 'I' for Inactive)
REMARK       I    between atoms: C_8  and  N_9 
REMARK    1  A    between atoms: C_8  and  C_17 
REMARK    2  A    between atoms: N_9  and  C_10 
REMARK    3  A    between atoms: C_10  and  C_22 
REMARK    4  A    between atoms: C_10  and  C_11 
REMARK    5  A    between atoms: C_22  and  Se_23 
ROOT
HETATM    1  H           1     -24.318  11.092  -0.436  0.00  0.00     0.274 HD
HETATM    2  H           1     -23.882   9.904  -1.581  0.00  0.00     0.274 HD
HETATM    3  H           1     -22.796  11.163  -1.201  0.00  0.00     0.274 HD
HETATM    4  N           1     -22.910   8.783  -2.502  0.00  0.00    -0.067 N 
HETATM    5  C           1     -24.526   7.851  -0.277  0.00  0.00     0.004 C 
HETATM    6  C           1     -24.009   8.755   0.833  0.00  0.00     0.027 C 
HETATM    7  C           1     -22.940   9.685   0.276  0.00  0.00     0.229 C 
HETATM    8  N           1     -23.528  10.525  -0.819  0.00  0.00    -0.079 N 
HETATM    9  C           1     -23.376   7.024  -0.836  0.00  0.00     0.042 C 
HETATM   10  C           1     -23.207   7.324  -2.320  0.00  0.00     0.274 C 
HETATM   11  H           1     -23.700   9.350  -2.119  0.00  0.00     0.275 HD
HETATM   12  H           1     -22.794   8.988  -3.521  0.00  0.00     0.275 HD
HETATM   13  H           1     -22.029   9.026  -1.996  0.00  0.00     0.275 HD
ENDROOT
BRANCH  10  14
HETATM   14  C           1     -24.480   6.974  -3.052  0.00  0.00     0.249 C 
HETATM   15  O           1     -24.888   5.837  -3.045  0.00  0.00    -0.271 OA
HETATM   16  N           1     -25.171   7.946  -3.724  0.00  0.00    -0.345 N 
HETATM   17  H           1     -24.829   8.899  -3.730  0.00  0.00     0.163 HD
BRANCH  16  18
HETATM   18  C           1     -26.393   7.611  -4.427  0.00  0.00     0.185 C 
BRANCH  18  19
HETATM   19  C           1     -27.461   8.651  -4.114  0.00  0.00     0.039 C 
BRANCH  19  20
HETATM   20 Se           1     -28.216   8.300  -2.352  0.00  0.00     0.000 Se
HETATM   21  H           1     -29.311   7.458  -2.861  0.00  0.00     0.000 HD
ENDBRANCH  19  20
ENDBRANCH  18  19
BRANCH  18  22
HETATM   22  C           1     -26.129   7.592  -5.913  0.00  0.00     0.196 C 
HETATM   23  O           1     -26.057   8.666  -6.549  0.00  0.00    -0.646 OA
HETATM   24  O           1     -25.983   6.502  -6.508  0.00  0.00    -0.646 OA
ENDBRANCH  18  22
ENDBRANCH  16  18
ENDBRANCH  10  14
TORSDOF 5
ENDMDL
MODEL 6
REMARK VINA RESULT:      -4.4      3.350      5.803
REMARK  5 active torsions:
REMARK  status: ('A' for Active; 'I' for Inactive)
REMARK       I    between atoms: C_8  and  N_9 
REMARK    1  A    between atoms: C_8  and  C_17 
REMARK    2  A    between atoms: N_9  and  C_10 
REMARK    3  A    between atoms: C_10  and  C_22 
REMARK    4  A    between atoms: C_10  and  C_11 
REMARK    5  A    between atoms: C_22  and  Se_23 
ROOT
HETATM    1  H           1     -17.336 -12.886  -6.706  0.00  0.00     0.274 HD
HETATM    2  H           1     -18.428 -12.064  -5.684  0.00  0.00     0.274 HD
HETATM    3  H           1     -17.865 -13.617  -5.258  0.00  0.00     0.274 HD
HETATM    4  N           1     -19.217 -11.498  -4.232  0.00  0.00    -0.067 N 
HETATM    5  C           1     -17.276  -9.828  -5.602  0.00  0.00     0.004 C 
HETATM    6  C           1     -16.083 -10.772  -5.643  0.00  0.00     0.027 C 
HETATM    7  C           1     -16.456 -12.092  -4.980  0.00  0.00     0.229 C 
HETATM    8  N           1     -17.608 -12.712  -5.712  0.00  0.00    -0.079 N 
HETATM    9  C           1     -17.675  -9.573  -4.155  0.00  0.00     0.042 C 
HETATM   10  C           1     -19.110 -10.031  -3.934  0.00  0.00     0.274 C 
HETATM   11  H           1     -18.944 -11.671  -5.226  0.00  0.00     0.275 HD
HETATM   12  H           1     -20.202 -11.812  -4.080  0.00  0.00     0.275 HD
HETATM   13  H           1     -18.580 -12.030  -3.597  0.00  0.00     0.275 HD
ENDROOT
BRANCH  10  14
HETATM   14  C           1     -20.030  -9.264  -4.851  0.00  0.00     0.249 C 
HETATM   15  O           1     -20.625  -9.840  -5.731  0.00  0.00    -0.271 OA
HETATM   16  N           1     -20.190  -7.914  -4.686  0.00  0.00    -0.345 N 
HETATM   17  H           1     -19.691  -7.432  -3.949  0.00  0.00     0.163 HD
BRANCH  16  18
HETATM   18  C           1     -21.074  -7.176  -5.566  0.00  0.00     0.185 C 
BRANCH  18  19
HETATM   19  C           1     -22.191  -6.541  -4.749  0.00  0.00     0.039 C 
BRANCH  19  20
HETATM   20 Se           1     -21.666  -6.469  -2.874  0.00  0.00     0.000 Se
HETATM   21  H           1     -20.291  -6.933  -3.121  0.00  0.00     0.000 HD
ENDBRANCH  19  20
ENDBRANCH  18  19
BRANCH  18  22
HETATM   22  C           1     -20.292  -6.096  -6.274  0.00  0.00     0.196 C 
HETATM   23  O           1     -20.092  -4.999  -5.711  0.00  0.00    -0.646 OA
HETATM   24  O           1     -19.845  -6.300  -7.424  0.00  0.00    -0.646 OA
ENDBRANCH  18  22
ENDBRANCH  16  18
ENDBRANCH  10  14
TORSDOF 5
ENDMDL
MODEL 7
REMARK VINA RESULT:      -4.4      3.947      5.431
REMARK  5 active torsions:
REMARK  status: ('A' for Active; 'I' for Inactive)
REMARK       I    between atoms: C_8  and  N_9 
REMARK    1  A    between atoms: C_8  and  C_17 
REMARK    2  A    between atoms: N_9  and  C_10 
REMARK    3  A    between atoms: C_10  and  C_22 
REMARK    4  A    between atoms: C_10  and  C_11 
REMARK    5  A    between atoms: C_22  and  Se_23 
ROOT
HETATM    1  H           1     -20.792 -10.636  -0.564  0.00  0.00     0.274 HD
HETATM    2  H           1     -21.055 -10.298  -2.215  0.00  0.00     0.274 HD
HETATM    3  H           1     -22.215 -11.181  -1.330  0.00  0.00     0.274 HD
HETATM    4  N           1     -21.879  -9.913  -3.707  0.00  0.00    -0.067 N 
HETATM    5  C           1     -20.511  -7.841  -2.201  0.00  0.00     0.004 C 
HETATM    6  C           1     -21.181  -8.002  -0.844  0.00  0.00     0.027 C 
HETATM    7  C           1     -22.203  -9.129  -0.912  0.00  0.00     0.229 C 
HETATM    8  N           1     -21.514 -10.408  -1.283  0.00  0.00    -0.079 N 
HETATM    9  C           1     -21.562  -7.509  -3.252  0.00  0.00     0.042 C 
HETATM   10  C           1     -21.563  -8.585  -4.329  0.00  0.00     0.274 C 
HETATM   11  H           1     -21.156 -10.141  -2.987  0.00  0.00     0.275 HD
HETATM   12  H           1     -21.879 -10.651  -4.447  0.00  0.00     0.275 HD
HETATM   13  H           1     -22.820  -9.872  -3.256  0.00  0.00     0.275 HD
ENDROOT
BRANCH  10  14
HETATM   14  C           1     -20.203  -8.646  -4.981  0.00  0.00     0.249 C 
HETATM   15  O           1     -19.817  -7.725  -5.661  0.00  0.00    -0.271 OA
HETATM   16  N           1     -19.408  -9.745  -4.802  0.00  0.00    -0.345 N 
HETATM   17  H           1     -19.731 -10.517  -4.233  0.00  0.00     0.163 HD
BRANCH  16  18
HETATM   18  C           1     -18.101  -9.804  -5.428  0.00  0.00     0.185 C 
BRANCH  18  19
HETATM   19  C           1     -17.029  -9.930  -4.354  0.00  0.00     0.039 C 
BRANCH  19  20
HETATM   20 Se           1     -17.823 -10.633  -2.719  0.00  0.00     0.000 Se
HETATM   21  H           1     -18.948 -11.285  -3.409  0.00  0.00     0.000 HD
ENDBRANCH  19  20
ENDBRANCH  18  19
BRANCH  18  22
HETATM   22  C           1     -18.037 -11.000  -6.347  0.00  0.00     0.196 C 
HETATM   23  O           1     -17.007 -11.706  -6.383  0.00  0.00    -0.646 OA
HETATM   24  O           1     -19.016 -11.284  -7.071  0.00  0.00    -0.646 OA
ENDBRANCH  18  22
ENDBRANCH  16  18
ENDBRANCH  10  14
TORSDOF 5
ENDMDL
MODEL 8
REMARK VINA RESULT:      -4.4      4.632      8.251
REMARK  5 active torsions:
REMARK  status: ('A' for Active; 'I' for Inactive)
REMARK       I    between atoms: C_8  and  N_9 
REMARK    1  A    between atoms: C_8  and  C_17 
REMARK    2  A    between atoms: N_9  and  C_10 
REMARK    3  A    between atoms: C_10  and  C_22 
REMARK    4  A    between atoms: C_10  and  C_11 
REMARK    5  A    between atoms: C_22  and  Se_23 
ROOT
HETATM    1  H           1     -21.008 -14.941   1.904  0.00  0.00     0.274 HD
HETATM    2  H           1     -20.956 -13.960   0.509  0.00  0.00     0.274 HD
HETATM    3  H           1     -20.734 -15.646   0.375  0.00  0.00     0.274 HD
HETATM    4  N           1     -21.157 -13.437  -1.145  0.00  0.00    -0.067 N 
HETATM    5  C           1     -23.043 -12.611   0.902  0.00  0.00     0.004 C 
HETATM    6  C           1     -23.461 -13.968   1.452  0.00  0.00     0.027 C 
HETATM    7  C           1     -22.721 -15.069   0.705  0.00  0.00     0.229 C 
HETATM    8  N           1     -21.243 -14.891   0.887  0.00  0.00    -0.079 N 
HETATM    9  C           1     -23.384 -12.535  -0.580  0.00  0.00     0.042 C 
HETATM   10  C           1     -22.110 -12.303  -1.383  0.00  0.00     0.274 C 
HETATM   11  H           1     -20.924 -13.487  -0.128  0.00  0.00     0.275 HD
HETATM   12  H           1     -20.284 -13.277  -1.697  0.00  0.00     0.275 HD
HETATM   13  H           1     -21.600 -14.334  -1.446  0.00  0.00     0.275 HD
ENDROOT
BRANCH  10  14
HETATM   14  C           1     -21.470 -11.008  -0.948  0.00  0.00     0.249 C 
HETATM   15  O           1     -20.463 -11.026  -0.282  0.00  0.00    -0.271 OA
HETATM   16  N           1     -22.032  -9.813  -1.309  0.00  0.00    -0.345 N 
HETATM   17  H           1     -22.877  -9.798  -1.866  0.00  0.00     0.163 HD
BRANCH  16  18
HETATM   18  C           1     -21.417  -8.568  -0.892  0.00  0.00     0.185 C 
BRANCH  18  19
HETATM   19  C           1     -20.645  -7.967  -2.058  0.00  0.00     0.039 C 
BRANCH  19  20
HETATM   20 Se           1     -21.391  -8.615  -3.737  0.00  0.00     0.000 Se
HETATM   21  H           1     -22.620  -9.142  -3.121  0.00  0.00     0.000 HD
ENDBRANCH  19  20
ENDBRANCH  18  19
BRANCH  18  22
HETATM   22  C           1     -22.490  -7.602  -0.447  0.00  0.00     0.196 C 
HETATM   23  O           1     -22.613  -6.499  -1.020  0.00  0.00    -0.646 OA
HETATM   24  O           1     -23.253  -7.907   0.495  0.00  0.00    -0.646 OA
ENDBRANCH  18  22
ENDBRANCH  16  18
ENDBRANCH  10  14
TORSDOF 5
ENDMDL
MODEL 9
REMARK VINA RESULT:      -4.3      4.363      5.634
REMARK  5 active torsions:
REMARK  status: ('A' for Active; 'I' for Inactive)
REMARK       I    between atoms: C_8  and  N_9 
REMARK    1  A    between atoms: C_8  and  C_17 
REMARK    2  A    between atoms: N_9  and  C_10 
REMARK    3  A    between atoms: C_10  and  C_22 
REMARK    4  A    between atoms: C_10  and  C_11 
REMARK    5  A    between atoms: C_22  and  Se_23 
ROOT
HETATM    1  H           1     -18.189 -12.088  -6.340  0.00  0.00     0.274 HD
HETATM    2  H           1     -18.604 -11.985  -4.689  0.00  0.00     0.274 HD
HETATM    3  H           1     -17.523 -13.191  -5.224  0.00  0.00     0.274 HD
HETATM    4  N           1     -18.466 -12.048  -2.948  0.00  0.00    -0.067 N 
HETATM    5  C           1     -18.262  -9.515  -4.353  0.00  0.00     0.004 C 
HETATM    6  C           1     -17.144  -9.836  -5.335  0.00  0.00     0.027 C 
HETATM    7  C           1     -16.685 -11.274  -5.131  0.00  0.00     0.229 C 
HETATM    8  N           1     -17.837 -12.205  -5.363  0.00  0.00    -0.079 N 
HETATM    9  C           1     -17.753  -9.686  -2.928  0.00  0.00     0.042 C 
HETATM   10  C           1     -18.583 -10.745  -2.215  0.00  0.00     0.274 C 
HETATM   11  H           1     -18.817 -11.930  -3.926  0.00  0.00     0.275 HD
HETATM   12  H           1     -19.036 -12.775  -2.458  0.00  0.00     0.275 HD
HETATM   13  H           1     -17.465 -12.348  -2.971  0.00  0.00     0.275 HD
ENDROOT
BRANCH  10  14
HETATM   14  C           1     -20.029 -10.314  -2.182  0.00  0.00     0.249 C 
HETATM   15  O           1     -20.863 -10.951  -2.780  0.00  0.00    -0.271 OA
HETATM   16  N           1     -20.393  -9.199  -1.477  0.00  0.00    -0.345 N 
HETATM   17  H           1     -19.694  -8.664  -0.977  0.00  0.00     0.163 HD
BRANCH  16  18
HETATM   18  C           1     -21.782  -8.784  -1.445  0.00  0.00     0.185 C 
BRANCH  18  19
HETATM   19  C           1     -22.395  -9.161  -0.103  0.00  0.00     0.039 C 
BRANCH  19  20
HETATM   20 Se           1     -23.589 -10.683  -0.337  0.00  0.00     0.000 Se
HETATM   21  H           1     -22.533 -11.690  -0.139  0.00  0.00     0.000 HD
ENDBRANCH  19  20
ENDBRANCH  18  19
BRANCH  18  22
HETATM   22  C           1     -21.864  -7.288  -1.634  0.00  0.00     0.196 C 
HETATM   23  O           1     -22.685  -6.619  -0.970  0.00  0.00    -0.646 OA
HETATM   24  O           1     -21.111  -6.720  -2.454  0.00  0.00    -0.646 OA
ENDBRANCH  18  22
ENDBRANCH  16  18
ENDBRANCH  10  14
TORSDOF 5
ENDMDL
