MODEL 1
REMARK VINA RESULT:      -5.9      0.000      0.000
REMARK  10 active torsions:
REMARK  status: ('A' for Active; 'I' for Inactive)
REMARK       I    between atoms: C_6  and  N_12 
REMARK    1  A    between atoms: C_6  and  C_7 
REMARK    2  A    between atoms: C_7  and  C_8 
REMARK    3  A    between atoms: C_7  and  N_13 
REMARK    4  A    between atoms: C_8  and  O_15 
REMARK    5  A    between atoms: O_10  and  P_22 
REMARK    6  A    between atoms: N_12  and  C_21 
REMARK    7  A    between atoms: C_16  and  C_21 
REMARK    8  A    between atoms: C_20  and  C_21 
REMARK    9  A    between atoms: C_20  and  O_23 
REMARK   10  A    between atoms: P_22  and  O_23 
ROOT
HETATM    1  O           1     -37.607  -0.756 -13.756  0.00  0.00    -0.271 OA
HETATM    2  C           1     -36.468  -0.365 -13.655  0.00  0.00     0.251 C 
HETATM    3  N           1     -35.791  -0.527 -12.476  0.00  0.00    -0.343 N 
HETATM    4  H           1     -34.836  -0.199 -12.393  0.00  0.00     0.163 HD
ENDROOT
BRANCH   3   5
HETATM    5  C           1     -36.438  -1.168 -11.349  0.00  0.00     0.210 C 
BRANCH   5   6
HETATM    6  C           1     -36.800  -0.126 -10.318  0.00  0.00     0.198 C 
HETATM    7  O           1     -36.158  -0.057  -9.248  0.00  0.00    -0.646 OA
HETATM    8  O           1     -37.741   0.666 -10.535  0.00  0.00    -0.646 OA
ENDBRANCH   5   6
BRANCH   5   9
HETATM    9  C           1     -35.489  -2.186 -10.732  0.00  0.00     0.217 C 
BRANCH   9  10
HETATM   10  O           1     -35.729  -3.449 -11.290  0.00  0.00    -0.287 OA
BRANCH  10  11
HETATM   11  P           1     -34.525  -4.080 -12.163  0.00  0.00     0.406 P 
HETATM   12  O           1     -34.062  -3.083 -13.154  0.00  0.00    -0.624 OA
HETATM   13  O           1     -33.404  -4.441 -11.268  0.00  0.00    -0.624 OA
BRANCH  11  14
HETATM   14  O           1     -35.050  -5.400 -12.929  0.00  0.00    -0.300 OA
HETATM   15  H           1     -34.699  -5.333 -13.800  0.00  0.00     0.223 HD
ENDBRANCH  11  14
ENDBRANCH  10  11
ENDBRANCH   9  10
ENDBRANCH   5   9
ENDBRANCH   3   5
BRANCH   2  16
HETATM   16  C           1     -35.793   0.302 -14.828  0.00  0.00     0.297 C 
BRANCH  16  17
HETATM   17  C           1     -35.642  -0.701 -15.965  0.00  0.00     0.206 C 
BRANCH  17  18
HETATM   18  O           1     -35.244  -1.940 -15.445  0.00  0.00    -0.398 OA
HETATM   19  H           1     -36.016  -2.480 -15.402  0.00  0.00     0.209 HD
ENDBRANCH  17  18
ENDBRANCH  16  17
BRANCH  16  20
HETATM   20  N           1     -34.439   0.793 -14.412  0.00  0.00    -0.064 N 
HETATM   21  H           1     -34.515   1.291 -13.497  0.00  0.00     0.275 HD
HETATM   22  H           1     -34.070   1.452 -15.135  0.00  0.00     0.275 HD
HETATM   23  H           1     -33.788  -0.018 -14.316  0.00  0.00     0.275 HD
ENDBRANCH  16  20
ENDBRANCH   2  16
TORSDOF 10
ENDMDL
MODEL 2
REMARK VINA RESULT:      -5.5      7.330      9.141
REMARK  10 active torsions:
REMARK  status: ('A' for Active; 'I' for Inactive)
REMARK       I    between atoms: C_6  and  N_12 
REMARK    1  A    between atoms: C_6  and  C_7 
REMARK    2  A    between atoms: C_7  and  C_8 
REMARK    3  A    between atoms: C_7  and  N_13 
REMARK    4  A    between atoms: C_8  and  O_15 
REMARK    5  A    between atoms: O_10  and  P_22 
REMARK    6  A    between atoms: N_12  and  C_21 
REMARK    7  A    between atoms: C_16  and  C_21 
REMARK    8  A    between atoms: C_20  and  C_21 
REMARK    9  A    between atoms: C_20  and  O_23 
REMARK   10  A    between atoms: P_22  and  O_23 
ROOT
HETATM    1  O           1     -31.206  -3.197 -17.472  0.00  0.00    -0.271 OA
HETATM    2  C           1     -31.632  -4.175 -16.904  0.00  0.00     0.251 C 
HETATM    3  N           1     -30.781  -5.187 -16.553  0.00  0.00    -0.343 N 
HETATM    4  H           1     -31.140  -6.006 -16.077  0.00  0.00     0.163 HD
ENDROOT
BRANCH   3   5
HETATM    5  C           1     -29.369  -5.088 -16.861  0.00  0.00     0.210 C 
BRANCH   5   6
HETATM    6  C           1     -29.056  -5.942 -18.066  0.00  0.00     0.198 C 
HETATM    7  O           1     -29.476  -7.118 -18.125  0.00  0.00    -0.646 OA
HETATM    8  O           1     -28.378  -5.474 -19.005  0.00  0.00    -0.646 OA
ENDBRANCH   5   6
BRANCH   5   9
HETATM    9  C           1     -28.555  -5.574 -15.670  0.00  0.00     0.217 C 
BRANCH   9  10
HETATM   10  O           1     -27.217  -5.186 -15.827  0.00  0.00    -0.287 OA
BRANCH  10  11
HETATM   11  P           1     -26.135  -6.384 -15.899  0.00  0.00     0.406 P 
HETATM   12  O           1     -26.776  -7.652 -15.484  0.00  0.00    -0.624 OA
HETATM   13  O           1     -25.635  -6.515 -17.285  0.00  0.00    -0.624 OA
BRANCH  11  14
HETATM   14  O           1     -24.902  -6.054 -14.911  0.00  0.00    -0.300 OA
HETATM   15  H           1     -25.230  -6.226 -14.045  0.00  0.00     0.223 HD
ENDBRANCH  11  14
ENDBRANCH  10  11
ENDBRANCH   9  10
ENDBRANCH   5   9
ENDBRANCH   3   5
BRANCH   2  16
HETATM   16  C           1     -33.103  -4.278 -16.582  0.00  0.00     0.297 C 
BRANCH  16  17
HETATM   17  C           1     -33.841  -3.091 -17.189  0.00  0.00     0.206 C 
BRANCH  17  18
HETATM   18  O           1     -34.830  -2.651 -16.298  0.00  0.00    -0.398 OA
HETATM   19  H           1     -34.463  -2.707 -15.432  0.00  0.00     0.209 HD
ENDBRANCH  17  18
ENDBRANCH  16  17
BRANCH  16  20
HETATM   20  N           1     -33.290  -4.275 -15.095  0.00  0.00    -0.064 N 
HETATM   21  H           1     -33.965  -5.026 -14.827  0.00  0.00     0.275 HD
HETATM   22  H           1     -33.665  -3.347 -14.793  0.00  0.00     0.275 HD
HETATM   23  H           1     -32.371  -4.448 -14.628  0.00  0.00     0.275 HD
ENDBRANCH  16  20
ENDBRANCH   2  16
TORSDOF 10
ENDMDL
MODEL 3
REMARK VINA RESULT:      -5.5      2.332      4.235
REMARK  10 active torsions:
REMARK  status: ('A' for Active; 'I' for Inactive)
REMARK       I    between atoms: C_6  and  N_12 
REMARK    1  A    between atoms: C_6  and  C_7 
REMARK    2  A    between atoms: C_7  and  C_8 
REMARK    3  A    between atoms: C_7  and  N_13 
REMARK    4  A    between atoms: C_8  and  O_15 
REMARK    5  A    between atoms: O_10  and  P_22 
REMARK    6  A    between atoms: N_12  and  C_21 
REMARK    7  A    between atoms: C_16  and  C_21 
REMARK    8  A    between atoms: C_20  and  C_21 
REMARK    9  A    between atoms: C_20  and  O_23 
REMARK   10  A    between atoms: P_22  and  O_23 
ROOT
HETATM    1  O           1     -35.127   0.918 -13.796  0.00  0.00    -0.271 OA
HETATM    2  C           1     -36.172   0.360 -14.034  0.00  0.00     0.251 C 
HETATM    3  N           1     -36.824  -0.323 -13.043  0.00  0.00    -0.343 N 
HETATM    4  H           1     -37.700  -0.790 -13.244  0.00  0.00     0.163 HD
ENDROOT
BRANCH   3   5
HETATM    5  C           1     -36.262  -0.378 -11.708  0.00  0.00     0.210 C 
BRANCH   5   6
HETATM    6  C           1     -35.766  -1.776 -11.429  0.00  0.00     0.198 C 
HETATM    7  O           1     -36.426  -2.537 -10.688  0.00  0.00    -0.646 OA
HETATM    8  O           1     -34.696  -2.172 -11.938  0.00  0.00    -0.646 OA
ENDBRANCH   5   6
BRANCH   5   9
HETATM    9  C           1     -37.333  -0.006 -10.692  0.00  0.00     0.217 C 
BRANCH   9  10
HETATM   10  O           1     -36.867   1.038  -9.881  0.00  0.00    -0.287 OA
BRANCH  10  11
HETATM   11  P           1     -36.787   0.726  -8.298  0.00  0.00     0.406 P 
HETATM   12  O           1     -37.852  -0.235  -7.932  0.00  0.00    -0.624 OA
HETATM   13  O           1     -35.466   0.143  -7.976  0.00  0.00    -0.624 OA
BRANCH  11  14
HETATM   14  O           1     -36.987   2.096  -7.469  0.00  0.00    -0.300 OA
HETATM   15  H           1     -36.244   2.629  -7.696  0.00  0.00     0.223 HD
ENDBRANCH  11  14
ENDBRANCH  10  11
ENDBRANCH   9  10
ENDBRANCH   5   9
ENDBRANCH   3   5
BRANCH   2  16
HETATM   16  C           1     -36.758   0.417 -15.423  0.00  0.00     0.297 C 
BRANCH  16  17
HETATM   17  C           1     -36.228  -0.750 -16.247  0.00  0.00     0.206 C 
BRANCH  17  18
HETATM   18  O           1     -34.920  -1.052 -15.842  0.00  0.00    -0.398 OA
HETATM   19  H           1     -34.572  -1.661 -16.473  0.00  0.00     0.209 HD
ENDBRANCH  17  18
ENDBRANCH  16  17
BRANCH  16  20
HETATM   20  N           1     -36.366   1.708 -16.077  0.00  0.00    -0.064 N 
HETATM   21  H           1     -37.160   2.384 -16.015  0.00  0.00     0.275 HD
HETATM   22  H           1     -36.137   1.534 -17.082  0.00  0.00     0.275 HD
HETATM   23  H           1     -35.530   2.105 -15.593  0.00  0.00     0.275 HD
ENDBRANCH  16  20
ENDBRANCH   2  16
TORSDOF 10
ENDMDL
MODEL 4
REMARK VINA RESULT:      -5.3      9.186     10.760
REMARK  10 active torsions:
REMARK  status: ('A' for Active; 'I' for Inactive)
REMARK       I    between atoms: C_6  and  N_12 
REMARK    1  A    between atoms: C_6  and  C_7 
REMARK    2  A    between atoms: C_7  and  C_8 
REMARK    3  A    between atoms: C_7  and  N_13 
REMARK    4  A    between atoms: C_8  and  O_15 
REMARK    5  A    between atoms: O_10  and  P_22 
REMARK    6  A    between atoms: N_12  and  C_21 
REMARK    7  A    between atoms: C_16  and  C_21 
REMARK    8  A    between atoms: C_20  and  C_21 
REMARK    9  A    between atoms: C_20  and  O_23 
REMARK   10  A    between atoms: P_22  and  O_23 
ROOT
HETATM    1  O           1     -30.509  -6.482 -17.400  0.00  0.00    -0.271 OA
HETATM    2  C           1     -29.995  -5.449 -17.043  0.00  0.00     0.251 C 
HETATM    3  N           1     -28.641  -5.390 -16.848  0.00  0.00    -0.343 N 
HETATM    4  H           1     -28.211  -4.523 -16.549  0.00  0.00     0.163 HD
ENDROOT
BRANCH   3   5
HETATM    5  C           1     -27.824  -6.567 -17.068  0.00  0.00     0.210 C 
BRANCH   5   6
HETATM    6  C           1     -27.345  -7.102 -15.741  0.00  0.00     0.198 C 
HETATM    7  O           1     -26.121  -7.219 -15.519  0.00  0.00    -0.646 OA
HETATM    8  O           1     -28.173  -7.429 -14.864  0.00  0.00    -0.646 OA
ENDBRANCH   5   6
BRANCH   5   9
HETATM    9  C           1     -26.624  -6.196 -17.930  0.00  0.00     0.217 C 
BRANCH   9  10
HETATM   10  O           1     -26.936  -6.401 -19.281  0.00  0.00    -0.287 OA
BRANCH  10  11
HETATM   11  P           1     -25.735  -6.951 -20.211  0.00  0.00     0.406 P 
HETATM   12  O           1     -25.398  -5.934 -21.231  0.00  0.00    -0.624 OA
HETATM   13  O           1     -24.547  -7.221 -19.372  0.00  0.00    -0.624 OA
BRANCH  11  14
HETATM   14  O           1     -26.201  -8.314 -20.939  0.00  0.00    -0.300 OA
HETATM   15  H           1     -25.936  -9.005 -20.356  0.00  0.00     0.223 HD
ENDBRANCH  11  14
ENDBRANCH  10  11
ENDBRANCH   9  10
ENDBRANCH   5   9
ENDBRANCH   3   5
BRANCH   2  16
HETATM   16  C           1     -30.845  -4.223 -16.813  0.00  0.00     0.297 C 
BRANCH  16  17
HETATM   17  C           1     -32.318  -4.610 -16.859  0.00  0.00     0.206 C 
BRANCH  17  18
HETATM   18  O           1     -33.069  -3.533 -17.349  0.00  0.00    -0.398 OA
HETATM   19  H           1     -32.584  -2.749 -17.153  0.00  0.00     0.209 HD
ENDBRANCH  17  18
ENDBRANCH  16  17
BRANCH  16  20
HETATM   20  N           1     -30.561  -3.211 -17.883  0.00  0.00    -0.064 N 
HETATM   21  H           1     -29.963  -2.450 -17.491  0.00  0.00     0.275 HD
HETATM   22  H           1     -31.461  -2.805 -18.225  0.00  0.00     0.275 HD
HETATM   23  H           1     -30.064  -3.674 -18.677  0.00  0.00     0.275 HD
ENDBRANCH  16  20
ENDBRANCH   2  16
TORSDOF 10
ENDMDL
MODEL 5
REMARK VINA RESULT:      -5.3     13.872     16.094
REMARK  10 active torsions:
REMARK  status: ('A' for Active; 'I' for Inactive)
REMARK       I    between atoms: C_6  and  N_12 
REMARK    1  A    between atoms: C_6  and  C_7 
REMARK    2  A    between atoms: C_7  and  C_8 
REMARK    3  A    between atoms: C_7  and  N_13 
REMARK    4  A    between atoms: C_8  and  O_15 
REMARK    5  A    between atoms: O_10  and  P_22 
REMARK    6  A    between atoms: N_12  and  C_21 
REMARK    7  A    between atoms: C_16  and  C_21 
REMARK    8  A    between atoms: C_20  and  C_21 
REMARK    9  A    between atoms: C_20  and  O_23 
REMARK   10  A    between atoms: P_22  and  O_23 
ROOT
HETATM    1  O           1     -21.275  -7.233  -6.718  0.00  0.00    -0.271 OA
HETATM    2  C           1     -21.200  -6.267  -5.996  0.00  0.00     0.251 C 
HETATM    3  N           1     -21.320  -5.009  -6.522  0.00  0.00    -0.343 N 
HETATM    4  H           1     -21.258  -4.201  -5.916  0.00  0.00     0.163 HD
ENDROOT
BRANCH   3   5
HETATM    5  C           1     -21.535  -4.835  -7.945  0.00  0.00     0.210 C 
BRANCH   5   6
HETATM    6  C           1     -20.212  -4.578  -8.625  0.00  0.00     0.198 C 
HETATM    7  O           1     -20.119  -4.672  -9.868  0.00  0.00    -0.646 OA
HETATM    8  O           1     -19.209  -4.271  -7.945  0.00  0.00    -0.646 OA
ENDBRANCH   5   6
BRANCH   5   9
HETATM    9  C           1     -22.463  -3.650  -8.175  0.00  0.00     0.217 C 
BRANCH   9  10
HETATM   10  O           1     -23.667  -4.100  -8.735  0.00  0.00    -0.287 OA
BRANCH  10  11
HETATM   11  P           1     -23.797  -3.965 -10.339  0.00  0.00     0.406 P 
HETATM   12  O           1     -23.830  -5.315 -10.945  0.00  0.00    -0.624 OA
HETATM   13  O           1     -25.044  -3.245 -10.675  0.00  0.00    -0.624 OA
BRANCH  11  14
HETATM   14  O           1     -22.530  -3.146 -10.914  0.00  0.00    -0.300 OA
HETATM   15  H           1     -22.765  -2.922 -11.799  0.00  0.00     0.223 HD
ENDBRANCH  11  14
ENDBRANCH  10  11
ENDBRANCH   9  10
ENDBRANCH   5   9
ENDBRANCH   3   5
BRANCH   2  16
HETATM   16  C           1     -20.977  -6.449  -4.515  0.00  0.00     0.297 C 
BRANCH  16  17
HETATM   17  C           1     -20.552  -7.885  -4.237  0.00  0.00     0.206 C 
BRANCH  17  18
HETATM   18  O           1     -21.680  -8.717  -4.247  0.00  0.00    -0.398 OA
HETATM   19  H           1     -22.184  -8.486  -5.009  0.00  0.00     0.209 HD
ENDBRANCH  17  18
ENDBRANCH  16  17
BRANCH  16  20
HETATM   20  N           1     -22.250  -6.153  -3.778  0.00  0.00    -0.064 N 
HETATM   21  H           1     -22.353  -6.820  -2.981  0.00  0.00     0.275 HD
HETATM   22  H           1     -23.061  -6.261  -4.428  0.00  0.00     0.275 HD
HETATM   23  H           1     -22.222  -5.174  -3.414  0.00  0.00     0.275 HD
ENDBRANCH  16  20
ENDBRANCH   2  16
TORSDOF 10
ENDMDL
MODEL 6
REMARK VINA RESULT:      -4.9     13.513     15.292
REMARK  10 active torsions:
REMARK  status: ('A' for Active; 'I' for Inactive)
REMARK       I    between atoms: C_6  and  N_12 
REMARK    1  A    between atoms: C_6  and  C_7 
REMARK    2  A    between atoms: C_7  and  C_8 
REMARK    3  A    between atoms: C_7  and  N_13 
REMARK    4  A    between atoms: C_8  and  O_15 
REMARK    5  A    between atoms: O_10  and  P_22 
REMARK    6  A    between atoms: N_12  and  C_21 
REMARK    7  A    between atoms: C_16  and  C_21 
REMARK    8  A    between atoms: C_20  and  C_21 
REMARK    9  A    between atoms: C_20  and  O_23 
REMARK   10  A    between atoms: P_22  and  O_23 
ROOT
HETATM    1  O           1     -23.080  -3.209  -8.495  0.00  0.00    -0.271 OA
HETATM    2  C           1     -23.108  -4.319  -8.972  0.00  0.00     0.251 C 
HETATM    3  N           1     -22.152  -5.236  -8.628  0.00  0.00    -0.343 N 
HETATM    4  H           1     -22.177  -6.166  -9.029  0.00  0.00     0.163 HD
ENDROOT
BRANCH   3   5
HETATM    5  C           1     -21.105  -4.876  -7.694  0.00  0.00     0.210 C 
BRANCH   5   6
HETATM    6  C           1     -19.883  -4.426  -8.456  0.00  0.00     0.198 C 
HETATM    7  O           1     -19.936  -4.289  -9.698  0.00  0.00    -0.646 OA
HETATM    8  O           1     -18.818  -4.188  -7.847  0.00  0.00    -0.646 OA
ENDBRANCH   5   6
BRANCH   5   9
HETATM    9  C           1     -20.752  -6.086  -6.839  0.00  0.00     0.217 C 
BRANCH   9  10
HETATM   10  O           1     -20.822  -5.738  -5.482  0.00  0.00    -0.287 OA
BRANCH  10  11
HETATM   11  P           1     -21.979  -6.466  -4.622  0.00  0.00     0.406 P 
HETATM   12  O           1     -23.305  -6.076  -5.151  0.00  0.00    -0.624 OA
HETATM   13  O           1     -21.820  -7.934  -4.725  0.00  0.00    -0.624 OA
BRANCH  11  14
HETATM   14  O           1     -21.860  -6.019  -3.075  0.00  0.00    -0.300 OA
HETATM   15  H           1     -22.555  -5.395  -2.948  0.00  0.00     0.223 HD
ENDBRANCH  11  14
ENDBRANCH  10  11
ENDBRANCH   9  10
ENDBRANCH   5   9
ENDBRANCH   3   5
BRANCH   2  16
HETATM   16  C           1     -24.199  -4.694  -9.945  0.00  0.00     0.297 C 
BRANCH  16  17
HETATM   17  C           1     -23.632  -4.722 -11.359  0.00  0.00     0.206 C 
BRANCH  17  18
HETATM   18  O           1     -22.456  -3.960 -11.406  0.00  0.00    -0.398 OA
HETATM   19  H           1     -22.660  -3.169 -11.876  0.00  0.00     0.209 HD
ENDBRANCH  17  18
ENDBRANCH  16  17
BRANCH  16  20
HETATM   20  N           1     -25.304  -3.683  -9.870  0.00  0.00    -0.064 N 
HETATM   21  H           1     -25.497  -3.452  -8.870  0.00  0.00     0.275 HD
HETATM   22  H           1     -26.167  -4.078 -10.309  0.00  0.00     0.275 HD
HETATM   23  H           1     -25.019  -2.817 -10.381  0.00  0.00     0.275 HD
ENDBRANCH  16  20
ENDBRANCH   2  16
TORSDOF 10
ENDMDL
MODEL 7
REMARK VINA RESULT:      -4.9      1.526      2.003
REMARK  10 active torsions:
REMARK  status: ('A' for Active; 'I' for Inactive)
REMARK       I    between atoms: C_6  and  N_12 
REMARK    1  A    between atoms: C_6  and  C_7 
REMARK    2  A    between atoms: C_7  and  C_8 
REMARK    3  A    between atoms: C_7  and  N_13 
REMARK    4  A    between atoms: C_8  and  O_15 
REMARK    5  A    between atoms: O_10  and  P_22 
REMARK    6  A    between atoms: N_12  and  C_21 
REMARK    7  A    between atoms: C_16  and  C_21 
REMARK    8  A    between atoms: C_20  and  C_21 
REMARK    9  A    between atoms: C_20  and  O_23 
REMARK   10  A    between atoms: P_22  and  O_23 
ROOT
HETATM    1  O           1     -38.072  -0.730 -13.604  0.00  0.00    -0.271 OA
HETATM    2  C           1     -36.908  -0.442 -13.751  0.00  0.00     0.251 C 
HETATM    3  N           1     -36.010  -0.693 -12.749  0.00  0.00    -0.343 N 
HETATM    4  H           1     -35.034  -0.452 -12.873  0.00  0.00     0.163 HD
ENDROOT
BRANCH   3   5
HETATM    5  C           1     -36.454  -1.303 -11.512  0.00  0.00     0.210 C 
BRANCH   5   6
HETATM    6  C           1     -36.700  -0.228 -10.481  0.00  0.00     0.198 C 
HETATM    7  O           1     -36.113   0.872 -10.573  0.00  0.00    -0.646 OA
HETATM    8  O           1     -37.491  -0.437  -9.537  0.00  0.00    -0.646 OA
ENDBRANCH   5   6
BRANCH   5   9
HETATM    9  C           1     -35.382  -2.258 -11.004  0.00  0.00     0.217 C 
BRANCH   9  10
HETATM   10  O           1     -35.810  -3.581 -11.182  0.00  0.00    -0.287 OA
BRANCH  10  11
HETATM   11  P           1     -34.678  -4.635 -11.649  0.00  0.00     0.406 P 
HETATM   12  O           1     -34.446  -5.618 -10.567  0.00  0.00    -0.624 OA
HETATM   13  O           1     -35.135  -5.342 -12.866  0.00  0.00    -0.624 OA
BRANCH  11  14
HETATM   14  O           1     -33.307  -3.846 -11.967  0.00  0.00    -0.300 OA
HETATM   15  H           1     -32.681  -4.185 -11.349  0.00  0.00     0.223 HD
ENDBRANCH  11  14
ENDBRANCH  10  11
ENDBRANCH   9  10
ENDBRANCH   5   9
ENDBRANCH   3   5
BRANCH   2  16
HETATM   16  C           1     -36.445   0.192 -15.039  0.00  0.00     0.297 C 
BRANCH  16  17
HETATM   17  C           1     -35.314   1.171 -14.747  0.00  0.00     0.206 C 
BRANCH  17  18
HETATM   18  O           1     -35.564   2.383 -15.403  0.00  0.00    -0.398 OA
HETATM   19  H           1     -35.499   3.064 -14.755  0.00  0.00     0.209 HD
ENDBRANCH  17  18
ENDBRANCH  16  17
BRANCH  16  20
HETATM   20  N           1     -37.588   0.926 -15.674  0.00  0.00    -0.064 N 
HETATM   21  H           1     -38.195   1.336 -14.929  0.00  0.00     0.275 HD
HETATM   22  H           1     -38.150   0.261 -16.252  0.00  0.00     0.275 HD
HETATM   23  H           1     -37.217   1.689 -16.283  0.00  0.00     0.275 HD
ENDBRANCH  16  20
ENDBRANCH   2  16
TORSDOF 10
ENDMDL
MODEL 8
REMARK VINA RESULT:      -4.8     14.298     16.535
REMARK  10 active torsions:
REMARK  status: ('A' for Active; 'I' for Inactive)
REMARK       I    between atoms: C_6  and  N_12 
REMARK    1  A    between atoms: C_6  and  C_7 
REMARK    2  A    between atoms: C_7  and  C_8 
REMARK    3  A    between atoms: C_7  and  N_13 
REMARK    4  A    between atoms: C_8  and  O_15 
REMARK    5  A    between atoms: O_10  and  P_22 
REMARK    6  A    between atoms: N_12  and  C_21 
REMARK    7  A    between atoms: C_16  and  C_21 
REMARK    8  A    between atoms: C_20  and  C_21 
REMARK    9  A    between atoms: C_20  and  O_23 
REMARK   10  A    between atoms: P_22  and  O_23 
ROOT
HETATM    1  O           1     -21.040  -7.848  -5.952  0.00  0.00    -0.271 OA
HETATM    2  C           1     -21.484  -6.980  -5.239  0.00  0.00     0.251 C 
HETATM    3  N           1     -21.583  -5.696  -5.705  0.00  0.00    -0.343 N 
HETATM    4  H           1     -21.956  -4.969  -5.106  0.00  0.00     0.163 HD
ENDROOT
BRANCH   3   5
HETATM    5  C           1     -21.154  -5.377  -7.052  0.00  0.00     0.210 C 
BRANCH   5   6
HETATM    6  C           1     -19.804  -4.705  -7.003  0.00  0.00     0.198 C 
HETATM    7  O           1     -19.244  -4.350  -8.063  0.00  0.00    -0.646 OA
HETATM    8  O           1     -19.246  -4.503  -5.904  0.00  0.00    -0.646 OA
ENDBRANCH   5   6
BRANCH   5   9
HETATM    9  C           1     -22.166  -4.440  -7.697  0.00  0.00     0.217 C 
BRANCH   9  10
HETATM   10  O           1     -22.171  -4.639  -9.084  0.00  0.00    -0.287 OA
BRANCH  10  11
HETATM   11  P           1     -23.485  -4.123  -9.870  0.00  0.00     0.406 P 
HETATM   12  O           1     -23.091  -3.108 -10.873  0.00  0.00    -0.624 OA
HETATM   13  O           1     -24.132  -5.265 -10.553  0.00  0.00    -0.624 OA
BRANCH  11  14
HETATM   14  O           1     -24.519  -3.469  -8.817  0.00  0.00    -0.300 OA
HETATM   15  H           1     -25.294  -4.001  -8.874  0.00  0.00     0.223 HD
ENDBRANCH  11  14
ENDBRANCH  10  11
ENDBRANCH   9  10
ENDBRANCH   5   9
ENDBRANCH   3   5
BRANCH   2  16
HETATM   16  C           1     -21.931  -7.311  -3.837  0.00  0.00     0.297 C 
BRANCH  16  17
HETATM   17  C           1     -21.500  -6.199  -2.889  0.00  0.00     0.206 C 
BRANCH  17  18
HETATM   18  O           1     -22.579  -5.840  -2.069  0.00  0.00    -0.398 OA
HETATM   19  H           1     -23.000  -5.102  -2.478  0.00  0.00     0.209 HD
ENDBRANCH  17  18
ENDBRANCH  16  17
BRANCH  16  20
HETATM   20  N           1     -21.306  -8.604  -3.406  0.00  0.00    -0.064 N 
HETATM   21  H           1     -20.274  -8.560  -3.560  0.00  0.00     0.275 HD
HETATM   22  H           1     -21.708  -9.389  -3.967  0.00  0.00     0.275 HD
HETATM   23  H           1     -21.502  -8.765  -2.392  0.00  0.00     0.275 HD
ENDBRANCH  16  20
ENDBRANCH   2  16
TORSDOF 10
ENDMDL
MODEL 9
REMARK VINA RESULT:      -4.6      8.205     10.116
REMARK  10 active torsions:
REMARK  status: ('A' for Active; 'I' for Inactive)
REMARK       I    between atoms: C_6  and  N_12 
REMARK    1  A    between atoms: C_6  and  C_7 
REMARK    2  A    between atoms: C_7  and  C_8 
REMARK    3  A    between atoms: C_7  and  N_13 
REMARK    4  A    between atoms: C_8  and  O_15 
REMARK    5  A    between atoms: O_10  and  P_22 
REMARK    6  A    between atoms: N_12  and  C_21 
REMARK    7  A    between atoms: C_16  and  C_21 
REMARK    8  A    between atoms: C_20  and  C_21 
REMARK    9  A    between atoms: C_20  and  O_23 
REMARK   10  A    between atoms: P_22  and  O_23 
ROOT
HETATM    1  O           1     -29.766  -5.448 -15.876  0.00  0.00    -0.271 OA
HETATM    2  C           1     -30.299  -4.842 -16.775  0.00  0.00     0.251 C 
HETATM    3  N           1     -29.605  -4.571 -17.923  0.00  0.00    -0.343 N 
HETATM    4  H           1     -30.053  -4.063 -18.677  0.00  0.00     0.163 HD
ENDROOT
BRANCH   3   5
HETATM    5  C           1     -28.230  -5.008 -18.060  0.00  0.00     0.210 C 
BRANCH   5   6
HETATM    6  C           1     -28.192  -6.329 -18.789  0.00  0.00     0.198 C 
HETATM    7  O           1     -29.048  -7.205 -18.540  0.00  0.00    -0.646 OA
HETATM    8  O           1     -27.305  -6.546 -19.642  0.00  0.00    -0.646 OA
ENDBRANCH   5   6
BRANCH   5   9
HETATM    9  C           1     -27.611  -5.172 -16.678  0.00  0.00     0.217 C 
BRANCH   9  10
HETATM   10  O           1     -26.241  -5.443 -16.808  0.00  0.00    -0.287 OA
BRANCH  10  11
HETATM   11  P           1     -25.672  -6.662 -15.915  0.00  0.00     0.406 P 
HETATM   12  O           1     -24.649  -7.402 -16.687  0.00  0.00    -0.624 OA
HETATM   13  O           1     -25.061  -6.125 -14.678  0.00  0.00    -0.624 OA
BRANCH  11  14
HETATM   14  O           1     -26.883  -7.657 -15.528  0.00  0.00    -0.300 OA
HETATM   15  H           1     -26.518  -8.523 -15.594  0.00  0.00     0.223 HD
ENDBRANCH  11  14
ENDBRANCH  10  11
ENDBRANCH   9  10
ENDBRANCH   5   9
ENDBRANCH   3   5
BRANCH   2  16
HETATM   16  C           1     -31.731  -4.387 -16.633  0.00  0.00     0.297 C 
BRANCH  16  17
HETATM   17  C           1     -32.667  -5.538 -16.981  0.00  0.00     0.206 C 
BRANCH  17  18
HETATM   18  O           1     -31.917  -6.700 -17.203  0.00  0.00    -0.398 OA
HETATM   19  H           1     -32.451  -7.277 -17.723  0.00  0.00     0.209 HD
ENDBRANCH  17  18
ENDBRANCH  16  17
BRANCH  16  20
HETATM   20  N           1     -31.985  -3.239 -17.563  0.00  0.00    -0.064 N 
HETATM   21  H           1     -31.201  -2.551 -17.489  0.00  0.00     0.275 HD
HETATM   22  H           1     -32.883  -2.772 -17.303  0.00  0.00     0.275 HD
HETATM   23  H           1     -32.048  -3.592 -18.544  0.00  0.00     0.275 HD
ENDBRANCH  16  20
ENDBRANCH   2  16
TORSDOF 10
ENDMDL
