MODEL 1
REMARK VINA RESULT:      -5.3      0.000      0.000
REMARK  6 active torsions:
REMARK  status: ('A' for Active; 'I' for Inactive)
REMARK    1  A    between atoms: C_2  and  C_3 
REMARK    2  A    between atoms: C_2  and  N_6 
REMARK       I    between atoms: N_6  and  C_7 
REMARK    3  A    between atoms: C_7  and  C_8 
REMARK    4  A    between atoms: C_8  and  C_9 
REMARK    5  A    between atoms: C_8  and  N_11 
REMARK    6  A    between atoms: C_9  and  Se_10 
ROOT
HETATM    1  N           1     -34.783  -1.118 -13.726  0.00  0.00    -0.345 N 
HETATM    2  C           1     -35.265  -1.720 -12.596  0.00  0.00     0.249 C 
HETATM    3  O           1     -36.421  -1.572 -12.278  0.00  0.00    -0.271 OA
HETATM    4  H           1     -33.815  -1.241 -13.992  0.00  0.00     0.163 HD
ENDROOT
BRANCH   2   5
HETATM    5  C           1     -34.352  -2.569 -11.745  0.00  0.00     0.274 C 
BRANCH   5   6
HETATM    6  C           1     -35.157  -3.683 -11.090  0.00  0.00     0.045 C 
BRANCH   6   7
HETATM    7 Se           1     -34.030  -5.258 -10.871  0.00  0.00     0.000 Se
HETATM    8  H           1     -32.775  -4.492 -10.797  0.00  0.00     0.000 HD
ENDBRANCH   6   7
ENDBRANCH   5   6
BRANCH   5   9
HETATM    9  N           1     -33.724  -1.715 -10.683  0.00  0.00    -0.067 N 
HETATM   10  H           1     -33.366  -2.324  -9.913  0.00  0.00     0.275 HD
HETATM   11  H           1     -32.930  -1.175 -11.096  0.00  0.00     0.275 HD
HETATM   12  H           1     -34.436  -1.053 -10.302  0.00  0.00     0.275 HD
ENDBRANCH   5   9
ENDBRANCH   2   5
BRANCH   1  13
HETATM   13  C           1     -35.661  -0.302 -14.543  0.00  0.00     0.181 C 
HETATM   14  C           1     -35.120   1.120 -14.605  0.00  0.00     0.043 C 
BRANCH  13  15
HETATM   15  C           1     -35.727  -0.877 -15.937  0.00  0.00     0.196 C 
HETATM   16  O           1     -35.152  -1.956 -16.195  0.00  0.00    -0.646 OA
HETATM   17  O           1     -36.357  -0.274 -16.832  0.00  0.00    -0.646 OA
ENDBRANCH  13  15
ENDBRANCH   1  13
TORSDOF 6
ENDMDL
MODEL 2
REMARK VINA RESULT:      -5.1      2.398      3.159
REMARK  6 active torsions:
REMARK  status: ('A' for Active; 'I' for Inactive)
REMARK    1  A    between atoms: C_2  and  C_3 
REMARK    2  A    between atoms: C_2  and  N_6 
REMARK       I    between atoms: N_6  and  C_7 
REMARK    3  A    between atoms: C_7  and  C_8 
REMARK    4  A    between atoms: C_8  and  C_9 
REMARK    5  A    between atoms: C_8  and  N_11 
REMARK    6  A    between atoms: C_9  and  Se_10 
ROOT
HETATM    1  N           1     -34.889  -1.729 -12.963  0.00  0.00    -0.345 N 
HETATM    2  C           1     -34.215  -2.624 -12.178  0.00  0.00     0.249 C 
HETATM    3  O           1     -33.695  -2.257 -11.152  0.00  0.00    -0.271 OA
HETATM    4  H           1     -35.325  -2.036 -13.823  0.00  0.00     0.163 HD
ENDROOT
BRANCH   2   5
HETATM    5  C           1     -34.121  -4.072 -12.596  0.00  0.00     0.274 C 
BRANCH   5   6
HETATM    6  C           1     -33.218  -4.823 -11.626  0.00  0.00     0.045 C 
BRANCH   6   7
HETATM    7 Se           1     -34.258  -6.177 -10.686  0.00  0.00     0.000 Se
HETATM    8  H           1     -33.112  -6.690  -9.918  0.00  0.00     0.000 HD
ENDBRANCH   6   7
ENDBRANCH   5   6
BRANCH   5   9
HETATM    9  N           1     -33.547  -4.155 -13.979  0.00  0.00    -0.067 N 
HETATM   10  H           1     -34.173  -3.650 -14.647  0.00  0.00     0.275 HD
HETATM   11  H           1     -32.600  -3.714 -13.990  0.00  0.00     0.275 HD
HETATM   12  H           1     -33.469  -5.158 -14.264  0.00  0.00     0.275 HD
ENDBRANCH   5   9
ENDBRANCH   2   5
BRANCH   1  13
HETATM   13  C           1     -34.980  -0.338 -12.562  0.00  0.00     0.181 C 
HETATM   14  C           1     -34.922   0.551 -13.797  0.00  0.00     0.043 C 
BRANCH  13  15
HETATM   15  C           1     -36.283  -0.108 -11.836  0.00  0.00     0.196 C 
HETATM   16  O           1     -36.287   0.466 -10.725  0.00  0.00    -0.646 OA
HETATM   17  O           1     -37.358  -0.492 -12.345  0.00  0.00    -0.646 OA
ENDBRANCH  13  15
ENDBRANCH   1  13
TORSDOF 6
ENDMDL
MODEL 3
REMARK VINA RESULT:      -5.0     13.522     14.500
REMARK  6 active torsions:
REMARK  status: ('A' for Active; 'I' for Inactive)
REMARK    1  A    between atoms: C_2  and  C_3 
REMARK    2  A    between atoms: C_2  and  N_6 
REMARK       I    between atoms: N_6  and  C_7 
REMARK    3  A    between atoms: C_7  and  C_8 
REMARK    4  A    between atoms: C_8  and  C_9 
REMARK    5  A    between atoms: C_8  and  N_11 
REMARK    6  A    between atoms: C_9  and  Se_10 
ROOT
HETATM    1  N           1     -21.933  -4.798  -9.002  0.00  0.00    -0.345 N 
HETATM    2  C           1     -21.538  -4.561  -7.714  0.00  0.00     0.249 C 
HETATM    3  O           1     -21.556  -3.437  -7.272  0.00  0.00    -0.271 OA
HETATM    4  H           1     -21.918  -5.740  -9.371  0.00  0.00     0.163 HD
ENDROOT
BRANCH   2   5
HETATM    5  C           1     -21.077  -5.705  -6.843  0.00  0.00     0.274 C 
BRANCH   5   6
HETATM    6  C           1     -20.764  -5.186  -5.446  0.00  0.00     0.045 C 
BRANCH   6   7
HETATM    7 Se           1     -21.495  -6.412  -4.118  0.00  0.00     0.000 Se
HETATM    8  H           1     -20.585  -5.977  -3.046  0.00  0.00     0.000 HD
ENDBRANCH   6   7
ENDBRANCH   5   6
BRANCH   5   9
HETATM    9  N           1     -19.844  -6.318  -7.436  0.00  0.00    -0.067 N 
HETATM   10  H           1     -19.952  -7.357  -7.468  0.00  0.00     0.275 HD
HETATM   11  H           1     -19.706  -5.953  -8.406  0.00  0.00     0.275 HD
HETATM   12  H           1     -19.015  -6.071  -6.849  0.00  0.00     0.275 HD
ENDBRANCH   5   9
ENDBRANCH   2   5
BRANCH   1  13
HETATM   13  C           1     -22.376  -3.698  -9.838  0.00  0.00     0.181 C 
HETATM   14  C           1     -21.486  -3.609 -11.071  0.00  0.00     0.043 C 
BRANCH  13  15
HETATM   15  C           1     -23.805  -3.934 -10.264  0.00  0.00     0.196 C 
HETATM   16  O           1     -24.507  -2.976 -10.652  0.00  0.00    -0.646 OA
HETATM   17  O           1     -24.284  -5.088 -10.228  0.00  0.00    -0.646 OA
ENDBRANCH  13  15
ENDBRANCH   1  13
TORSDOF 6
ENDMDL
MODEL 4
REMARK VINA RESULT:      -5.0      3.014      4.875
REMARK  6 active torsions:
REMARK  status: ('A' for Active; 'I' for Inactive)
REMARK    1  A    between atoms: C_2  and  C_3 
REMARK    2  A    between atoms: C_2  and  N_6 
REMARK       I    between atoms: N_6  and  C_7 
REMARK    3  A    between atoms: C_7  and  C_8 
REMARK    4  A    between atoms: C_8  and  C_9 
REMARK    5  A    between atoms: C_8  and  N_11 
REMARK    6  A    between atoms: C_9  and  Se_10 
ROOT
HETATM    1  N           1     -34.703  -1.603 -13.211  0.00  0.00    -0.345 N 
HETATM    2  C           1     -35.834  -0.835 -13.256  0.00  0.00     0.249 C 
HETATM    3  O           1     -36.800  -1.141 -12.599  0.00  0.00    -0.271 OA
HETATM    4  H           1     -33.894  -1.346 -13.762  0.00  0.00     0.163 HD
ENDROOT
BRANCH   2   5
HETATM    5  C           1     -35.876   0.396 -14.129  0.00  0.00     0.274 C 
BRANCH   5   6
HETATM    6  C           1     -36.869   0.182 -15.264  0.00  0.00     0.045 C 
BRANCH   6   7
HETATM    7 Se           1     -36.061  -0.950 -16.629  0.00  0.00     0.000 Se
HETATM    8  H           1     -36.702  -0.249 -17.754  0.00  0.00     0.000 HD
ENDBRANCH   6   7
ENDBRANCH   5   6
BRANCH   5   9
HETATM    9  N           1     -34.512   0.649 -14.700  0.00  0.00    -0.067 N 
HETATM   10  H           1     -33.971  -0.245 -14.720  0.00  0.00     0.275 HD
HETATM   11  H           1     -34.606   1.021 -15.672  0.00  0.00     0.275 HD
HETATM   12  H           1     -34.010   1.347 -14.106  0.00  0.00     0.275 HD
ENDBRANCH   5   9
ENDBRANCH   2   5
BRANCH   1  13
HETATM   13  C           1     -34.663  -2.786 -12.372  0.00  0.00     0.181 C 
HETATM   14  C           1     -34.277  -3.993 -13.217  0.00  0.00     0.043 C 
BRANCH  13  15
HETATM   15  C           1     -33.643  -2.591 -11.276  0.00  0.00     0.196 C 
HETATM   16  O           1     -32.581  -3.250 -11.287  0.00  0.00    -0.646 OA
HETATM   17  O           1     -33.862  -1.771 -10.359  0.00  0.00    -0.646 OA
ENDBRANCH  13  15
ENDBRANCH   1  13
TORSDOF 6
ENDMDL
MODEL 5
REMARK VINA RESULT:      -4.6      1.741      2.008
REMARK  6 active torsions:
REMARK  status: ('A' for Active; 'I' for Inactive)
REMARK    1  A    between atoms: C_2  and  C_3 
REMARK    2  A    between atoms: C_2  and  N_6 
REMARK       I    between atoms: N_6  and  C_7 
REMARK    3  A    between atoms: C_7  and  C_8 
REMARK    4  A    between atoms: C_8  and  C_9 
REMARK    5  A    between atoms: C_8  and  N_11 
REMARK    6  A    between atoms: C_9  and  Se_10 
ROOT
HETATM    1  N           1     -35.990  -0.565 -13.110  0.00  0.00    -0.345 N 
HETATM    2  C           1     -35.123  -1.614 -12.964  0.00  0.00     0.249 C 
HETATM    3  O           1     -34.854  -2.312 -13.913  0.00  0.00    -0.271 OA
HETATM    4  H           1     -36.215   0.019 -12.315  0.00  0.00     0.163 HD
ENDROOT
BRANCH   2   5
HETATM    5  C           1     -34.503  -1.900 -11.618  0.00  0.00     0.274 C 
BRANCH   5   6
HETATM    6  C           1     -34.573  -3.395 -11.334  0.00  0.00     0.045 C 
BRANCH   6   7
HETATM    7 Se           1     -32.877  -4.227 -11.813  0.00  0.00     0.000 Se
HETATM    8  H           1     -33.112  -5.439 -11.011  0.00  0.00     0.000 HD
ENDBRANCH   6   7
ENDBRANCH   5   6
BRANCH   5   9
HETATM    9  N           1     -35.253  -1.154 -10.555  0.00  0.00    -0.067 N 
HETATM   10  H           1     -35.035  -0.134 -10.625  0.00  0.00     0.275 HD
HETATM   11  H           1     -36.280  -1.299 -10.687  0.00  0.00     0.275 HD
HETATM   12  H           1     -34.968  -1.508  -9.614  0.00  0.00     0.275 HD
ENDBRANCH   5   9
ENDBRANCH   2   5
BRANCH   1  13
HETATM   13  C           1     -36.585  -0.291 -14.403  0.00  0.00     0.181 C 
HETATM   14  C           1     -38.074  -0.022 -14.229  0.00  0.00     0.043 C 
BRANCH  13  15
HETATM   15  C           1     -35.923   0.920 -15.015  0.00  0.00     0.196 C 
HETATM   16  O           1     -34.999   1.501 -14.405  0.00  0.00    -0.646 OA
HETATM   17  O           1     -36.299   1.342 -16.129  0.00  0.00    -0.646 OA
ENDBRANCH  13  15
ENDBRANCH   1  13
TORSDOF 6
ENDMDL
MODEL 6
REMARK VINA RESULT:      -4.4     16.163     16.889
REMARK  6 active torsions:
REMARK  status: ('A' for Active; 'I' for Inactive)
REMARK    1  A    between atoms: C_2  and  C_3 
REMARK    2  A    between atoms: C_2  and  N_6 
REMARK       I    between atoms: N_6  and  C_7 
REMARK    3  A    between atoms: C_7  and  C_8 
REMARK    4  A    between atoms: C_8  and  C_9 
REMARK    5  A    between atoms: C_8  and  N_11 
REMARK    6  A    between atoms: C_9  and  Se_10 
ROOT
HETATM    1  N           1     -20.887  -5.398  -5.324  0.00  0.00    -0.345 N 
HETATM    2  C           1     -21.754  -6.086  -4.520  0.00  0.00     0.249 C 
HETATM    3  O           1     -22.832  -6.428  -4.946  0.00  0.00    -0.271 OA
HETATM    4  H           1     -19.985  -5.112  -4.967  0.00  0.00     0.163 HD
ENDROOT
BRANCH   2   5
HETATM    5  C           1     -21.366  -6.418  -3.100  0.00  0.00     0.274 C 
BRANCH   5   6
HETATM    6  C           1     -21.330  -7.930  -2.922  0.00  0.00     0.045 C 
BRANCH   6   7
HETATM    7 Se           1     -19.934  -8.684  -4.053  0.00  0.00     0.000 Se
HETATM    8  H           1     -20.875  -9.334  -4.981  0.00  0.00     0.000 HD
ENDBRANCH   6   7
ENDBRANCH   5   6
BRANCH   5   9
HETATM    9  N           1     -22.372  -5.827  -2.157  0.00  0.00    -0.067 N 
HETATM   10  H           1     -23.273  -5.671  -2.662  0.00  0.00     0.275 HD
HETATM   11  H           1     -22.529  -6.485  -1.360  0.00  0.00     0.275 HD
HETATM   12  H           1     -22.014  -4.916  -1.792  0.00  0.00     0.275 HD
ENDBRANCH   5   9
ENDBRANCH   2   5
BRANCH   1  13
HETATM   13  C           1     -21.261  -5.080  -6.689  0.00  0.00     0.181 C 
HETATM   14  C           1     -21.320  -3.567  -6.858  0.00  0.00     0.043 C 
BRANCH  13  15
HETATM   15  C           1     -20.236  -5.654  -7.637  0.00  0.00     0.196 C 
HETATM   16  O           1     -20.072  -5.139  -8.764  0.00  0.00    -0.646 OA
HETATM   17  O           1     -19.554  -6.643  -7.295  0.00  0.00    -0.646 OA
ENDBRANCH  13  15
ENDBRANCH   1  13
TORSDOF 6
ENDMDL
MODEL 7
REMARK VINA RESULT:      -4.3     25.273     26.047
REMARK  6 active torsions:
REMARK  status: ('A' for Active; 'I' for Inactive)
REMARK    1  A    between atoms: C_2  and  C_3 
REMARK    2  A    between atoms: C_2  and  N_6 
REMARK       I    between atoms: N_6  and  C_7 
REMARK    3  A    between atoms: C_7  and  C_8 
REMARK    4  A    between atoms: C_8  and  C_9 
REMARK    5  A    between atoms: C_8  and  N_11 
REMARK    6  A    between atoms: C_9  and  Se_10 
ROOT
HETATM    1  N           1     -11.556   6.987 -20.543  0.00  0.00    -0.345 N 
HETATM    2  C           1     -12.308   5.960 -20.042  0.00  0.00     0.249 C 
HETATM    3  O           1     -11.903   5.316 -19.104  0.00  0.00    -0.271 OA
HETATM    4  H           1     -11.895   7.526 -21.329  0.00  0.00     0.163 HD
ENDROOT
BRANCH   2   5
HETATM    5  C           1     -13.644   5.630 -20.662  0.00  0.00     0.274 C 
BRANCH   5   6
HETATM    6  C           1     -14.036   4.204 -20.297  0.00  0.00     0.045 C 
BRANCH   6   7
HETATM    7 Se           1     -13.341   2.975 -21.640  0.00  0.00     0.000 Se
HETATM    8  H           1     -12.029   2.824 -20.990  0.00  0.00     0.000 HD
ENDBRANCH   6   7
ENDBRANCH   5   6
BRANCH   5   9
HETATM    9  N           1     -13.546   5.755 -22.153  0.00  0.00    -0.067 N 
HETATM   10  H           1     -12.540   5.787 -22.435  0.00  0.00     0.275 HD
HETATM   11  H           1     -14.007   4.932 -22.602  0.00  0.00     0.275 HD
HETATM   12  H           1     -14.023   6.633 -22.461  0.00  0.00     0.275 HD
ENDBRANCH   5   9
ENDBRANCH   2   5
BRANCH   1  13
HETATM   13  C           1     -10.272   7.304 -19.947  0.00  0.00     0.181 C 
HETATM   14  C           1      -9.166   7.063 -20.967  0.00  0.00     0.043 C 
BRANCH  13  15
HETATM   15  C           1     -10.258   8.752 -19.522  0.00  0.00     0.196 C 
HETATM   16  O           1     -10.220   9.655 -20.385  0.00  0.00    -0.646 OA
HETATM   17  O           1     -10.286   9.047 -18.308  0.00  0.00    -0.646 OA
ENDBRANCH  13  15
ENDBRANCH   1  13
TORSDOF 6
ENDMDL
MODEL 8
REMARK VINA RESULT:      -4.3     24.768     25.528
REMARK  6 active torsions:
REMARK  status: ('A' for Active; 'I' for Inactive)
REMARK    1  A    between atoms: C_2  and  C_3 
REMARK    2  A    between atoms: C_2  and  N_6 
REMARK       I    between atoms: N_6  and  C_7 
REMARK    3  A    between atoms: C_7  and  C_8 
REMARK    4  A    between atoms: C_8  and  C_9 
REMARK    5  A    between atoms: C_8  and  N_11 
REMARK    6  A    between atoms: C_9  and  Se_10 
ROOT
HETATM    1  N           1     -12.644   5.581 -20.949  0.00  0.00    -0.345 N 
HETATM    2  C           1     -11.817   5.710 -19.866  0.00  0.00     0.249 C 
HETATM    3  O           1     -11.957   4.987 -18.909  0.00  0.00    -0.271 OA
HETATM    4  H           1     -12.527   6.187 -21.750  0.00  0.00     0.163 HD
ENDROOT
BRANCH   2   5
HETATM    5  C           1     -10.730   6.757 -19.868  0.00  0.00     0.274 C 
BRANCH   5   6
HETATM    6  C           1     -10.880   7.645 -21.096  0.00  0.00     0.045 C 
BRANCH   6   7
HETATM    7 Se           1      -9.402   8.913 -21.167  0.00  0.00     0.000 Se
HETATM    8  H           1     -10.096   9.942 -20.375  0.00  0.00     0.000 HD
ENDBRANCH   6   7
ENDBRANCH   5   6
BRANCH   5   9
HETATM    9  N           1      -9.390   6.083 -19.899  0.00  0.00    -0.067 N 
HETATM   10  H           1      -8.744   6.561 -19.231  0.00  0.00     0.275 HD
HETATM   11  H           1      -9.498   5.082 -19.622  0.00  0.00     0.275 HD
HETATM   12  H           1      -8.995   6.138 -20.865  0.00  0.00     0.275 HD
ENDBRANCH   5   9
ENDBRANCH   2   5
BRANCH   1  13
HETATM   13  C           1     -13.690   4.576 -20.947  0.00  0.00     0.181 C 
HETATM   14  C           1     -14.944   5.147 -21.594  0.00  0.00     0.043 C 
BRANCH  13  15
HETATM   15  C           1     -13.226   3.368 -21.724  0.00  0.00     0.196 C 
HETATM   16  O           1     -12.566   3.517 -22.775  0.00  0.00    -0.646 OA
HETATM   17  O           1     -13.504   2.219 -21.318  0.00  0.00    -0.646 OA
ENDBRANCH  13  15
ENDBRANCH   1  13
TORSDOF 6
ENDMDL
MODEL 9
REMARK VINA RESULT:      -4.2     14.342     15.875
REMARK  6 active torsions:
REMARK  status: ('A' for Active; 'I' for Inactive)
REMARK    1  A    between atoms: C_2  and  C_3 
REMARK    2  A    between atoms: C_2  and  N_6 
REMARK       I    between atoms: N_6  and  C_7 
REMARK    3  A    between atoms: C_7  and  C_8 
REMARK    4  A    between atoms: C_8  and  C_9 
REMARK    5  A    between atoms: C_8  and  N_11 
REMARK    6  A    between atoms: C_9  and  Se_10 
ROOT
HETATM    1  N           1     -21.580  -5.091  -7.242  0.00  0.00    -0.345 N 
HETATM    2  C           1     -21.169  -4.649  -8.470  0.00  0.00     0.249 C 
HETATM    3  O           1     -20.032  -4.836  -8.831  0.00  0.00    -0.271 OA
HETATM    4  H           1     -22.533  -4.934  -6.940  0.00  0.00     0.163 HD
ENDROOT
BRANCH   2   5
HETATM    5  C           1     -22.137  -3.924  -9.374  0.00  0.00     0.274 C 
BRANCH   5   6
HETATM    6  C           1     -23.548  -4.052  -8.815  0.00  0.00     0.045 C 
BRANCH   6   7
HETATM    7 Se           1     -24.828  -3.375 -10.119  0.00  0.00     0.000 Se
HETATM    8  H           1     -25.838  -3.013  -9.111  0.00  0.00     0.000 HD
ENDBRANCH   6   7
ENDBRANCH   5   6
BRANCH   5   9
HETATM    9  N           1     -22.086  -4.529 -10.745  0.00  0.00    -0.067 N 
HETATM   10  H           1     -21.290  -4.114 -11.280  0.00  0.00     0.275 HD
HETATM   11  H           1     -21.949  -5.562 -10.665  0.00  0.00     0.275 HD
HETATM   12  H           1     -22.982  -4.333 -11.246  0.00  0.00     0.275 HD
ENDBRANCH   5   9
ENDBRANCH   2   5
BRANCH   1  13
HETATM   13  C           1     -20.649  -5.787  -6.374  0.00  0.00     0.181 C 
HETATM   14  C           1     -20.113  -4.820  -5.327  0.00  0.00     0.043 C 
BRANCH  13  15
HETATM   15  C           1     -21.360  -6.929  -5.688  0.00  0.00     0.196 C 
HETATM   16  O           1     -22.136  -6.699  -4.736  0.00  0.00    -0.646 OA
HETATM   17  O           1     -21.173  -8.103  -6.073  0.00  0.00    -0.646 OA
ENDBRANCH  13  15
ENDBRANCH   1  13
TORSDOF 6
ENDMDL
