MODEL 1
REMARK VINA RESULT:      -6.6      0.000      0.000
REMARK  8 active torsions:
REMARK  status: ('A' for Active; 'I' for Inactive)
REMARK    1  A    between atoms: N_2  and  C_8 
REMARK       I    between atoms: C_5  and  N_6 
REMARK    2  A    between atoms: C_5  and  C_8 
REMARK    3  A    between atoms: N_6  and  C_12 
REMARK    4  A    between atoms: C_7  and  C_8 
REMARK    5  A    between atoms: C_7  and  C_17 
REMARK    6  A    between atoms: C_11  and  C_12 
REMARK    7  A    between atoms: C_12  and  C_13 
REMARK    8  A    between atoms: C_13  and  C_15 
ROOT
HETATM    1  O           1     -35.066  -2.411 -13.981  0.00  0.00    -0.271 OA
HETATM    2  H           1     -35.444   0.262 -12.384  0.00  0.00     0.163 HD
HETATM    3  C           1     -35.150  -1.221 -13.799  0.00  0.00     0.249 C 
HETATM    4  N           1     -35.373  -0.736 -12.537  0.00  0.00    -0.345 N 
ENDROOT
BRANCH   3   5
HETATM    5  C           1     -35.010  -0.267 -14.959  0.00  0.00     0.284 C 
BRANCH   5   6
HETATM    6  N           1     -34.941  -1.045 -16.239  0.00  0.00    -0.066 N 
HETATM    7  H           1     -35.446  -0.524 -16.991  0.00  0.00     0.275 HD
HETATM    8  H           1     -33.941  -1.171 -16.516  0.00  0.00     0.275 HD
HETATM    9  H           1     -35.387  -1.979 -16.103  0.00  0.00     0.275 HD
ENDBRANCH   5   6
BRANCH   5  10
HETATM   10  C           1     -36.212   0.667 -14.997  0.00  0.00     0.155 C 
BRANCH  10  11
HETATM   11  C           1     -37.462  -0.132 -15.276  0.00  0.00     0.175 C 
HETATM   12  O           1     -38.075  -0.683 -14.336  0.00  0.00    -0.648 OA
HETATM   13  O           1     -37.884  -0.242 -16.448  0.00  0.00    -0.648 OA
ENDBRANCH  10  11
ENDBRANCH   5  10
ENDBRANCH   3   5
BRANCH   4  14
HETATM   14  C           1     -35.508  -1.653 -11.422  0.00  0.00     0.185 C 
BRANCH  14  15
HETATM   15  C           1     -36.470  -1.077 -10.413  0.00  0.00     0.196 C 
HETATM   16  O           1     -37.701  -1.129 -10.621  0.00  0.00    -0.646 OA
HETATM   17  O           1     -36.036  -0.547  -9.366  0.00  0.00    -0.646 OA
ENDBRANCH  14  15
BRANCH  14  18
HETATM   18  C           1     -34.149  -1.858 -10.767  0.00  0.00     0.040 C 
BRANCH  18  19
HETATM   19  C           1     -33.858  -3.348 -10.653  0.00  0.00    -0.020 C 
HETATM   20  C           1     -32.789  -3.736 -11.665  0.00  0.00     0.009 C 
HETATM   21  C           1     -35.131  -4.136 -10.931  0.00  0.00     0.009 C 
ENDBRANCH  18  19
ENDBRANCH  14  18
ENDBRANCH   4  14
TORSDOF 8
ENDMDL
MODEL 2
REMARK VINA RESULT:      -6.6     10.151     12.212
REMARK  8 active torsions:
REMARK  status: ('A' for Active; 'I' for Inactive)
REMARK    1  A    between atoms: N_2  and  C_8 
REMARK       I    between atoms: C_5  and  N_6 
REMARK    2  A    between atoms: C_5  and  C_8 
REMARK    3  A    between atoms: N_6  and  C_12 
REMARK    4  A    between atoms: C_7  and  C_8 
REMARK    5  A    between atoms: C_7  and  C_17 
REMARK    6  A    between atoms: C_11  and  C_12 
REMARK    7  A    between atoms: C_12  and  C_13 
REMARK    8  A    between atoms: C_13  and  C_15 
ROOT
HETATM    1  O           1     -26.275  -6.278 -17.365  0.00  0.00    -0.271 OA
HETATM    2  H           1     -27.775  -6.853 -20.059  0.00  0.00     0.163 HD
HETATM    3  C           1     -26.410  -6.479 -18.548  0.00  0.00     0.249 C 
HETATM    4  N           1     -27.661  -6.684 -19.068  0.00  0.00    -0.345 N 
ENDROOT
BRANCH   3   5
HETATM    5  C           1     -25.203  -6.506 -19.453  0.00  0.00     0.284 C 
BRANCH   5   6
HETATM    6  N           1     -24.409  -7.750 -19.189  0.00  0.00    -0.066 N 
HETATM    7  H           1     -23.622  -7.813 -19.874  0.00  0.00     0.275 HD
HETATM    8  H           1     -24.023  -7.717 -18.219  0.00  0.00     0.275 HD
HETATM    9  H           1     -25.027  -8.586 -19.291  0.00  0.00     0.275 HD
ENDBRANCH   5   6
BRANCH   5  10
HETATM   10  C           1     -25.659  -6.493 -20.906  0.00  0.00     0.155 C 
BRANCH  10  11
HETATM   11  C           1     -25.551  -7.885 -21.480  0.00  0.00     0.175 C 
HETATM   12  O           1     -26.488  -8.698 -21.328  0.00  0.00    -0.648 OA
HETATM   13  O           1     -24.525  -8.223 -22.108  0.00  0.00    -0.648 OA
ENDBRANCH  10  11
ENDBRANCH   5  10
ENDBRANCH   3   5
BRANCH   4  14
HETATM   14  C           1     -28.821  -6.658 -18.198  0.00  0.00     0.185 C 
BRANCH  14  15
HETATM   15  C           1     -29.773  -7.757 -18.599  0.00  0.00     0.196 C 
HETATM   16  O           1     -29.411  -8.633 -19.414  0.00  0.00    -0.646 OA
HETATM   17  O           1     -30.926  -7.792 -18.116  0.00  0.00    -0.646 OA
ENDBRANCH  14  15
BRANCH  14  18
HETATM   18  C           1     -29.519  -5.311 -18.324  0.00  0.00     0.040 C 
BRANCH  18  19
HETATM   19  C           1     -29.521  -4.610 -16.972  0.00  0.00    -0.020 C 
HETATM   20  C           1     -28.401  -3.580 -16.932  0.00  0.00     0.009 C 
HETATM   21  C           1     -29.305  -5.637 -15.868  0.00  0.00     0.009 C 
ENDBRANCH  18  19
ENDBRANCH  14  18
ENDBRANCH   4  14
TORSDOF 8
ENDMDL
MODEL 3
REMARK VINA RESULT:      -6.0     10.429     12.477
REMARK  8 active torsions:
REMARK  status: ('A' for Active; 'I' for Inactive)
REMARK    1  A    between atoms: N_2  and  C_8 
REMARK       I    between atoms: C_5  and  N_6 
REMARK    2  A    between atoms: C_5  and  C_8 
REMARK    3  A    between atoms: N_6  and  C_12 
REMARK    4  A    between atoms: C_7  and  C_8 
REMARK    5  A    between atoms: C_7  and  C_17 
REMARK    6  A    between atoms: C_11  and  C_12 
REMARK    7  A    between atoms: C_12  and  C_13 
REMARK    8  A    between atoms: C_13  and  C_15 
ROOT
HETATM    1  O           1     -24.986  -6.371 -18.436  0.00  0.00    -0.271 OA
HETATM    2  H           1     -28.112  -6.120 -18.523  0.00  0.00     0.163 HD
HETATM    3  C           1     -26.095  -6.379 -18.914  0.00  0.00     0.249 C 
HETATM    4  N           1     -27.182  -6.113 -18.123  0.00  0.00    -0.345 N 
ENDROOT
BRANCH   3   5
HETATM    5  C           1     -26.285  -6.682 -20.380  0.00  0.00     0.284 C 
BRANCH   5   6
HETATM    6  N           1     -25.458  -5.734 -21.196  0.00  0.00    -0.066 N 
HETATM    7  H           1     -25.258  -4.875 -20.635  0.00  0.00     0.275 HD
HETATM    8  H           1     -24.557  -6.195 -21.458  0.00  0.00     0.275 HD
HETATM    9  H           1     -25.981  -5.471 -22.061  0.00  0.00     0.275 HD
ENDBRANCH   5   6
BRANCH   5  10
HETATM   10  C           1     -25.846  -8.112 -20.663  0.00  0.00     0.155 C 
BRANCH  10  11
HETATM   11  C           1     -24.548  -8.099 -21.433  0.00  0.00     0.175 C 
HETATM   12  O           1     -24.564  -8.071 -22.683  0.00  0.00    -0.648 OA
HETATM   13  O           1     -23.458  -8.114 -20.822  0.00  0.00    -0.648 OA
ENDBRANCH  10  11
ENDBRANCH   5  10
ENDBRANCH   3   5
BRANCH   4  14
HETATM   14  C           1     -27.000  -5.821 -16.715  0.00  0.00     0.185 C 
BRANCH  14  15
HETATM   15  C           1     -27.023  -7.109 -15.928  0.00  0.00     0.196 C 
HETATM   16  O           1     -25.961  -7.577 -15.463  0.00  0.00    -0.646 OA
HETATM   17  O           1     -28.104  -7.708 -15.741  0.00  0.00    -0.646 OA
ENDBRANCH  14  15
BRANCH  14  18
HETATM   18  C           1     -28.125  -4.914 -16.236  0.00  0.00     0.040 C 
BRANCH  18  19
HETATM   19  C           1     -29.126  -4.704 -17.364  0.00  0.00    -0.020 C 
HETATM   20  C           1     -29.373  -3.214 -17.552  0.00  0.00     0.009 C 
HETATM   21  C           1     -30.437  -5.397 -17.014  0.00  0.00     0.009 C 
ENDBRANCH  18  19
ENDBRANCH  14  18
ENDBRANCH   4  14
TORSDOF 8
ENDMDL
MODEL 4
REMARK VINA RESULT:      -6.0      9.387     11.704
REMARK  8 active torsions:
REMARK  status: ('A' for Active; 'I' for Inactive)
REMARK    1  A    between atoms: N_2  and  C_8 
REMARK       I    between atoms: C_5  and  N_6 
REMARK    2  A    between atoms: C_5  and  C_8 
REMARK    3  A    between atoms: N_6  and  C_12 
REMARK    4  A    between atoms: C_7  and  C_8 
REMARK    5  A    between atoms: C_7  and  C_17 
REMARK    6  A    between atoms: C_11  and  C_12 
REMARK    7  A    between atoms: C_12  and  C_13 
REMARK    8  A    between atoms: C_13  and  C_15 
ROOT
HETATM    1  O           1     -26.876  -7.120 -15.315  0.00  0.00    -0.271 OA
HETATM    2  H           1     -27.851  -6.367 -18.200  0.00  0.00     0.163 HD
HETATM    3  C           1     -26.789  -6.823 -16.483  0.00  0.00     0.249 C 
HETATM    4  N           1     -27.924  -6.615 -17.221  0.00  0.00    -0.345 N 
ENDROOT
BRANCH   3   5
HETATM    5  C           1     -25.432  -6.682 -17.128  0.00  0.00     0.284 C 
BRANCH   5   6
HETATM    6  N           1     -24.550  -7.811 -16.684  0.00  0.00    -0.066 N 
HETATM    7  H           1     -23.895  -7.471 -15.944  0.00  0.00     0.275 HD
HETATM    8  H           1     -25.139  -8.583 -16.299  0.00  0.00     0.275 HD
HETATM    9  H           1     -24.000  -8.164 -17.499  0.00  0.00     0.275 HD
ENDBRANCH   5   6
BRANCH   5  10
HETATM   10  C           1     -25.585  -6.722 -18.642  0.00  0.00     0.155 C 
BRANCH  10  11
HETATM   11  C           1     -24.266  -7.100 -19.272  0.00  0.00     0.175 C 
HETATM   12  O           1     -24.240  -7.894 -20.238  0.00  0.00    -0.648 OA
HETATM   13  O           1     -23.201  -6.620 -18.828  0.00  0.00    -0.648 OA
ENDBRANCH  10  11
ENDBRANCH   5  10
ENDBRANCH   3   5
BRANCH   4  14
HETATM   14  C           1     -29.227  -6.750 -16.602  0.00  0.00     0.185 C 
BRANCH  14  15
HETATM   15  C           1     -30.183  -7.391 -17.577  0.00  0.00     0.196 C 
HETATM   16  O           1     -29.755  -8.185 -18.443  0.00  0.00    -0.646 OA
HETATM   17  O           1     -31.404  -7.130 -17.520  0.00  0.00    -0.646 OA
ENDBRANCH  14  15
BRANCH  14  18
HETATM   18  C           1     -29.748  -5.373 -16.212  0.00  0.00     0.040 C 
BRANCH  18  19
HETATM   19  C           1     -29.513  -4.397 -17.357  0.00  0.00    -0.020 C 
HETATM   20  C           1     -28.438  -3.396 -16.958  0.00  0.00     0.009 C 
HETATM   21  C           1     -30.808  -3.656 -17.666  0.00  0.00     0.009 C 
ENDBRANCH  18  19
ENDBRANCH  14  18
ENDBRANCH   4  14
TORSDOF 8
ENDMDL
MODEL 5
REMARK VINA RESULT:      -5.8      9.330     11.352
REMARK  8 active torsions:
REMARK  status: ('A' for Active; 'I' for Inactive)
REMARK    1  A    between atoms: N_2  and  C_8 
REMARK       I    between atoms: C_5  and  N_6 
REMARK    2  A    between atoms: C_5  and  C_8 
REMARK    3  A    between atoms: N_6  and  C_12 
REMARK    4  A    between atoms: C_7  and  C_8 
REMARK    5  A    between atoms: C_7  and  C_17 
REMARK    6  A    between atoms: C_11  and  C_12 
REMARK    7  A    between atoms: C_12  and  C_13 
REMARK    8  A    between atoms: C_13  and  C_15 
ROOT
HETATM    1  O           1     -28.500  -7.603 -16.653  0.00  0.00    -0.271 OA
HETATM    2  H           1     -27.229  -5.382 -18.467  0.00  0.00     0.163 HD
HETATM    3  C           1     -28.457  -6.615 -17.345  0.00  0.00     0.249 C 
HETATM    4  N           1     -27.266  -6.211 -17.887  0.00  0.00    -0.345 N 
ENDROOT
BRANCH   3   5
HETATM    5  C           1     -29.714  -5.824 -17.614  0.00  0.00     0.284 C 
BRANCH   5   6
HETATM    6  N           1     -30.367  -5.469 -16.311  0.00  0.00    -0.066 N 
HETATM    7  H           1     -29.651  -5.083 -15.656  0.00  0.00     0.275 HD
HETATM    8  H           1     -31.108  -4.750 -16.478  0.00  0.00     0.275 HD
HETATM    9  H           1     -30.797  -6.324 -15.893  0.00  0.00     0.275 HD
ENDBRANCH   5   6
BRANCH   5  10
HETATM   10  C           1     -29.360  -4.550 -18.368  0.00  0.00     0.155 C 
BRANCH  10  11
HETATM   11  C           1     -29.183  -3.416 -17.388  0.00  0.00     0.175 C 
HETATM   12  O           1     -30.078  -2.552 -17.263  0.00  0.00    -0.648 OA
HETATM   13  O           1     -28.141  -3.341 -16.701  0.00  0.00    -0.648 OA
ENDBRANCH  10  11
ENDBRANCH   5  10
ENDBRANCH   3   5
BRANCH   4  14
HETATM   14  C           1     -26.058  -6.970 -17.630  0.00  0.00     0.185 C 
BRANCH  14  15
HETATM   15  C           1     -25.547  -6.648 -16.247  0.00  0.00     0.196 C 
HETATM   16  O           1     -25.315  -5.463 -15.926  0.00  0.00    -0.646 OA
HETATM   17  O           1     -25.355  -7.568 -15.422  0.00  0.00    -0.646 OA
ENDBRANCH  14  15
BRANCH  14  18
HETATM   18  C           1     -24.999  -6.603 -18.660  0.00  0.00     0.040 C 
BRANCH  18  19
HETATM   19  C           1     -25.416  -7.126 -20.028  0.00  0.00    -0.020 C 
HETATM   20  C           1     -24.311  -8.009 -20.592  0.00  0.00     0.009 C 
HETATM   21  C           1     -25.657  -5.952 -20.968  0.00  0.00     0.009 C 
ENDBRANCH  18  19
ENDBRANCH  14  18
ENDBRANCH   4  14
TORSDOF 8
ENDMDL
MODEL 6
REMARK VINA RESULT:      -5.7     15.100     17.250
REMARK  8 active torsions:
REMARK  status: ('A' for Active; 'I' for Inactive)
REMARK    1  A    between atoms: N_2  and  C_8 
REMARK       I    between atoms: C_5  and  N_6 
REMARK    2  A    between atoms: C_5  and  C_8 
REMARK    3  A    between atoms: N_6  and  C_12 
REMARK    4  A    between atoms: C_7  and  C_8 
REMARK    5  A    between atoms: C_7  and  C_17 
REMARK    6  A    between atoms: C_11  and  C_12 
REMARK    7  A    between atoms: C_12  and  C_13 
REMARK    8  A    between atoms: C_13  and  C_15 
ROOT
HETATM    1  O           1     -20.240  -4.883  -5.835  0.00  0.00    -0.271 OA
HETATM    2  H           1     -21.668  -7.503  -6.802  0.00  0.00     0.163 HD
HETATM    3  C           1     -20.910  -5.594  -6.545  0.00  0.00     0.249 C 
HETATM    4  N           1     -21.106  -6.907  -6.208  0.00  0.00    -0.345 N 
ENDROOT
BRANCH   3   5
HETATM    5  C           1     -21.530  -5.038  -7.803  0.00  0.00     0.284 C 
BRANCH   5   6
HETATM    6  N           1     -22.692  -4.162  -7.441  0.00  0.00    -0.066 N 
HETATM    7  H           1     -22.344  -3.214  -7.174  0.00  0.00     0.275 HD
HETATM    8  H           1     -23.334  -4.078  -8.262  0.00  0.00     0.275 HD
HETATM    9  H           1     -23.208  -4.583  -6.636  0.00  0.00     0.275 HD
ENDBRANCH   5   6
BRANCH   5  10
HETATM   10  C           1     -20.493  -4.218  -8.559  0.00  0.00     0.155 C 
BRANCH  10  11
HETATM   11  C           1     -20.909  -4.088 -10.004  0.00  0.00     0.175 C 
HETATM   12  O           1     -21.970  -3.495 -10.298  0.00  0.00    -0.648 OA
HETATM   13  O           1     -20.193  -4.572 -10.907  0.00  0.00    -0.648 OA
ENDBRANCH  10  11
ENDBRANCH   5  10
ENDBRANCH   3   5
BRANCH   4  14
HETATM   14  C           1     -20.511  -7.441  -4.999  0.00  0.00     0.185 C 
BRANCH  14  15
HETATM   15  C           1     -19.932  -8.805  -5.285  0.00  0.00     0.196 C 
HETATM   16  O           1     -18.820  -8.907  -5.847  0.00  0.00    -0.646 OA
HETATM   17  O           1     -20.564  -9.834  -4.959  0.00  0.00    -0.646 OA
ENDBRANCH  14  15
BRANCH  14  18
HETATM   18  C           1     -21.577  -7.560  -3.918  0.00  0.00     0.040 C 
BRANCH  18  19
HETATM   19  C           1     -21.077  -6.908  -2.635  0.00  0.00    -0.020 C 
HETATM   20  C           1     -20.494  -7.975  -1.719  0.00  0.00     0.009 C 
HETATM   21  C           1     -22.237  -6.215  -1.934  0.00  0.00     0.009 C 
ENDBRANCH  18  19
ENDBRANCH  14  18
ENDBRANCH   4  14
TORSDOF 8
ENDMDL
MODEL 7
REMARK VINA RESULT:      -5.6      9.853     11.939
REMARK  8 active torsions:
REMARK  status: ('A' for Active; 'I' for Inactive)
REMARK    1  A    between atoms: N_2  and  C_8 
REMARK       I    between atoms: C_5  and  N_6 
REMARK    2  A    between atoms: C_5  and  C_8 
REMARK    3  A    between atoms: N_6  and  C_12 
REMARK    4  A    between atoms: C_7  and  C_8 
REMARK    5  A    between atoms: C_7  and  C_17 
REMARK    6  A    between atoms: C_11  and  C_12 
REMARK    7  A    between atoms: C_12  and  C_13 
REMARK    8  A    between atoms: C_13  and  C_15 
ROOT
HETATM    1  O           1     -28.467  -6.849 -18.540  0.00  0.00    -0.271 OA
HETATM    2  H           1     -26.072  -5.053 -17.604  0.00  0.00     0.163 HD
HETATM    3  C           1     -27.908  -5.903 -18.040  0.00  0.00     0.249 C 
HETATM    4  N           1     -26.540  -5.846 -18.023  0.00  0.00    -0.345 N 
ENDROOT
BRANCH   3   5
HETATM    5  C           1     -28.717  -4.782 -17.432  0.00  0.00     0.284 C 
BRANCH   5   6
HETATM    6  N           1     -29.597  -4.175 -18.483  0.00  0.00    -0.066 N 
HETATM    7  H           1     -29.457  -3.139 -18.499  0.00  0.00     0.275 HD
HETATM    8  H           1     -29.349  -4.573 -19.417  0.00  0.00     0.275 HD
HETATM    9  H           1     -30.596  -4.387 -18.267  0.00  0.00     0.275 HD
ENDBRANCH   5   6
BRANCH   5  10
HETATM   10  C           1     -29.579  -5.333 -16.304  0.00  0.00     0.155 C 
BRANCH  10  11
HETATM   11  C           1     -31.030  -5.305 -16.719  0.00  0.00     0.175 C 
HETATM   12  O           1     -31.537  -6.297 -17.286  0.00  0.00    -0.648 OA
HETATM   13  O           1     -31.724  -4.290 -16.495  0.00  0.00    -0.648 OA
ENDBRANCH  10  11
ENDBRANCH   5  10
ENDBRANCH   3   5
BRANCH   4  14
HETATM   14  C           1     -25.763  -6.922 -18.608  0.00  0.00     0.185 C 
BRANCH  14  15
HETATM   15  C           1     -24.462  -7.066 -17.858  0.00  0.00     0.196 C 
HETATM   16  O           1     -23.384  -6.765 -18.412  0.00  0.00    -0.646 OA
HETATM   17  O           1     -24.462  -7.488 -16.681  0.00  0.00    -0.646 OA
ENDBRANCH  14  15
BRANCH  14  18
HETATM   18  C           1     -25.475  -6.604 -20.068  0.00  0.00     0.040 C 
BRANCH  18  19
HETATM   19  C           1     -25.339  -7.901 -20.855  0.00  0.00    -0.020 C 
HETATM   20  C           1     -24.460  -7.665 -22.075  0.00  0.00     0.009 C 
HETATM   21  C           1     -26.718  -8.367 -21.305  0.00  0.00     0.009 C 
ENDBRANCH  18  19
ENDBRANCH  14  18
ENDBRANCH   4  14
TORSDOF 8
ENDMDL
MODEL 8
REMARK VINA RESULT:      -5.5     25.338     26.775
REMARK  8 active torsions:
REMARK  status: ('A' for Active; 'I' for Inactive)
REMARK    1  A    between atoms: N_2  and  C_8 
REMARK       I    between atoms: C_5  and  N_6 
REMARK    2  A    between atoms: C_5  and  C_8 
REMARK    3  A    between atoms: N_6  and  C_12 
REMARK    4  A    between atoms: C_7  and  C_8 
REMARK    5  A    between atoms: C_7  and  C_17 
REMARK    6  A    between atoms: C_11  and  C_12 
REMARK    7  A    between atoms: C_12  and  C_13 
REMARK    8  A    between atoms: C_13  and  C_15 
ROOT
HETATM    1  O           1     -13.249   7.735 -19.333  0.00  0.00    -0.271 OA
HETATM    2  H           1     -10.955   6.807 -21.261  0.00  0.00     0.163 HD
HETATM    3  C           1     -12.222   7.806 -19.963  0.00  0.00     0.249 C 
HETATM    4  N           1     -11.817   6.748 -20.732  0.00  0.00    -0.345 N 
ENDROOT
BRANCH   3   5
HETATM    5  C           1     -11.384   9.060 -19.904  0.00  0.00     0.284 C 
BRANCH   5   6
HETATM    6  N           1     -10.363   8.926 -18.813  0.00  0.00    -0.066 N 
HETATM    7  H           1     -10.840   8.969 -17.883  0.00  0.00     0.275 HD
HETATM    8  H           1      -9.870   8.010 -18.909  0.00  0.00     0.275 HD
HETATM    9  H           1      -9.672   9.705 -18.885  0.00  0.00     0.275 HD
ENDBRANCH   5   6
BRANCH   5  10
HETATM   10  C           1     -10.678   9.261 -21.238  0.00  0.00     0.155 C 
BRANCH  10  11
HETATM   11  C           1      -9.225   8.878 -21.102  0.00  0.00     0.175 C 
HETATM   12  O           1      -8.912   7.691 -20.865  0.00  0.00    -0.648 OA
HETATM   13  O           1      -8.335   9.746 -21.228  0.00  0.00    -0.648 OA
ENDBRANCH  10  11
ENDBRANCH   5  10
ENDBRANCH   3   5
BRANCH   4  14
HETATM   14  C           1     -12.621   5.543 -20.790  0.00  0.00     0.185 C 
BRANCH  14  15
HETATM   15  C           1     -12.015   4.490 -19.896  0.00  0.00     0.196 C 
HETATM   16  O           1     -11.834   4.728 -18.683  0.00  0.00    -0.646 OA
HETATM   17  O           1     -11.692   3.379 -20.369  0.00  0.00    -0.646 OA
ENDBRANCH  14  15
BRANCH  14  18
HETATM   18  C           1     -12.663   5.029 -22.223  0.00  0.00     0.040 C 
BRANCH  18  19
HETATM   19  C           1     -14.103   4.726 -22.614  0.00  0.00    -0.020 C 
HETATM   20  C           1     -15.044   5.266 -21.545  0.00  0.00     0.009 C 
HETATM   21  C           1     -14.288   3.219 -22.739  0.00  0.00     0.009 C 
ENDBRANCH  18  19
ENDBRANCH  14  18
ENDBRANCH   4  14
TORSDOF 8
ENDMDL
MODEL 9
REMARK VINA RESULT:      -5.4     25.098     26.467
REMARK  8 active torsions:
REMARK  status: ('A' for Active; 'I' for Inactive)
REMARK    1  A    between atoms: N_2  and  C_8 
REMARK       I    between atoms: C_5  and  N_6 
REMARK    2  A    between atoms: C_5  and  C_8 
REMARK    3  A    between atoms: N_6  and  C_12 
REMARK    4  A    between atoms: C_7  and  C_8 
REMARK    5  A    between atoms: C_7  and  C_17 
REMARK    6  A    between atoms: C_11  and  C_12 
REMARK    7  A    between atoms: C_12  and  C_13 
REMARK    8  A    between atoms: C_13  and  C_15 
ROOT
HETATM    1  O           1     -10.833   3.336 -21.733  0.00  0.00    -0.271 OA
HETATM    2  H           1     -11.771   6.328 -21.654  0.00  0.00     0.163 HD
HETATM    3  C           1     -11.515   4.300 -21.982  0.00  0.00     0.249 C 
HETATM    4  N           1     -11.199   5.519 -21.445  0.00  0.00    -0.345 N 
ENDROOT
BRANCH   3   5
HETATM    5  C           1     -12.716   4.163 -22.886  0.00  0.00     0.284 C 
BRANCH   5   6
HETATM    6  N           1     -13.599   3.062 -22.377  0.00  0.00    -0.066 N 
HETATM    7  H           1     -13.098   2.530 -21.630  0.00  0.00     0.275 HD
HETATM    8  H           1     -14.475   3.473 -21.981  0.00  0.00     0.275 HD
HETATM    9  H           1     -13.839   2.417 -23.162  0.00  0.00     0.275 HD
ENDBRANCH   5   6
BRANCH   5  10
HETATM   10  C           1     -13.493   5.472 -22.898  0.00  0.00     0.155 C 
BRANCH  10  11
HETATM   11  C           1     -14.657   5.378 -21.942  0.00  0.00     0.175 C 
HETATM   12  O           1     -14.471   5.531 -20.715  0.00  0.00    -0.648 OA
HETATM   13  O           1     -15.806   5.146 -22.376  0.00  0.00    -0.648 OA
ENDBRANCH  10  11
ENDBRANCH   5  10
ENDBRANCH   3   5
BRANCH   4  14
HETATM   14  C           1     -10.045   5.652 -20.578  0.00  0.00     0.185 C 
BRANCH  14  15
HETATM   15  C           1     -10.482   5.537 -19.138  0.00  0.00     0.196 C 
HETATM   16  O           1     -11.677   5.294 -18.865  0.00  0.00    -0.646 OA
HETATM   17  O           1      -9.648   5.684 -18.218  0.00  0.00    -0.646 OA
ENDBRANCH  14  15
BRANCH  14  18
HETATM   18  C           1      -9.395   7.010 -20.803  0.00  0.00     0.040 C 
BRANCH  18  19
HETATM   19  C           1     -10.472   8.083 -20.887  0.00  0.00    -0.020 C 
HETATM   20  C           1     -10.306   8.868 -22.181  0.00  0.00     0.009 C 
HETATM   21  C           1     -10.341   9.028 -19.699  0.00  0.00     0.009 C 
ENDBRANCH  18  19
ENDBRANCH  14  18
ENDBRANCH   4  14
TORSDOF 8
ENDMDL
