MODEL 1
REMARK VINA RESULT:      -6.5      0.000      0.000
REMARK  6 active torsions:
REMARK  status: ('A' for Active; 'I' for Inactive)
REMARK       I    between atoms: N_1  and  C_6 
REMARK    1  A    between atoms: C_3  and  C_13 
REMARK    2  A    between atoms: C_6  and  C_15 
REMARK    3  A    between atoms: N_8  and  C_15 
REMARK    4  A    between atoms: C_13  and  C_14 
REMARK    5  A    between atoms: C_14  and  C_15 
REMARK    6  A    between atoms: C_16  and  C_19 
ROOT
HETATM    1  N           1     -35.829  -0.982 -13.329  0.00  0.00    -0.336 N 
HETATM    2  C           1     -34.976  -1.995 -12.980  0.00  0.00     0.251 C 
HETATM    3  O           1     -34.513  -2.717 -13.830  0.00  0.00    -0.271 OA
HETATM    4  C           1     -36.477  -0.020 -12.443  0.00  0.00     0.127 C 
HETATM    5  C           1     -37.881   0.106 -13.010  0.00  0.00     0.022 C 
HETATM    6  C           1     -37.757  -0.300 -14.474  0.00  0.00     0.038 C 
HETATM    7  C           1     -36.288  -0.630 -14.670  0.00  0.00     0.188 C 
ENDROOT
BRANCH   2   8
HETATM    8  C           1     -34.613  -2.208 -11.531  0.00  0.00     0.275 C 
BRANCH   8   9
HETATM    9  N           1     -35.797  -2.765 -10.796  0.00  0.00    -0.066 N 
HETATM   10  H           1     -35.504  -3.065  -9.839  0.00  0.00     0.275 HD
HETATM   11  H           1     -36.535  -2.030 -10.720  0.00  0.00     0.275 HD
HETATM   12  H           1     -36.176  -3.587 -11.318  0.00  0.00     0.275 HD
ENDBRANCH   8   9
BRANCH   8  13
HETATM   13  C           1     -33.452  -3.190 -11.436  0.00  0.00     0.053 C 
BRANCH  13  14
HETATM   14  C           1     -33.799  -4.295 -10.447  0.00  0.00     0.115 C 
BRANCH  14  15
HETATM   15  C           1     -34.089  -5.571 -11.197  0.00  0.00     0.172 C 
HETATM   16  O           1     -34.839  -5.552 -12.197  0.00  0.00    -0.648 OA
HETATM   17  O           1     -33.577  -6.648 -10.820  0.00  0.00    -0.648 OA
ENDBRANCH  14  15
ENDBRANCH  13  14
ENDBRANCH   8  13
ENDBRANCH   2   8
BRANCH   7  18
HETATM   18  C           1     -35.534   0.566 -15.198  0.00  0.00     0.196 C 
HETATM   19  O           1     -36.124   1.417 -15.897  0.00  0.00    -0.646 OA
HETATM   20  O           1     -34.319   0.706 -14.936  0.00  0.00    -0.646 OA
ENDBRANCH   7  18
TORSDOF 6
ENDMDL
MODEL 2
REMARK VINA RESULT:      -6.5     12.890     14.972
REMARK  6 active torsions:
REMARK  status: ('A' for Active; 'I' for Inactive)
REMARK       I    between atoms: N_1  and  C_6 
REMARK    1  A    between atoms: C_3  and  C_13 
REMARK    2  A    between atoms: C_6  and  C_15 
REMARK    3  A    between atoms: N_8  and  C_15 
REMARK    4  A    between atoms: C_13  and  C_14 
REMARK    5  A    between atoms: C_14  and  C_15 
REMARK    6  A    between atoms: C_16  and  C_19 
ROOT
HETATM    1  N           1     -21.449  -4.427  -9.405  0.00  0.00    -0.336 N 
HETATM    2  C           1     -21.481  -4.629  -8.051  0.00  0.00     0.251 C 
HETATM    3  O           1     -22.380  -4.164  -7.391  0.00  0.00    -0.271 OA
HETATM    4  C           1     -20.449  -4.910 -10.352  0.00  0.00     0.127 C 
HETATM    5  C           1     -20.250  -3.737 -11.298  0.00  0.00     0.022 C 
HETATM    6  C           1     -21.537  -2.928 -11.204  0.00  0.00     0.038 C 
HETATM    7  C           1     -22.408  -3.682 -10.216  0.00  0.00     0.188 C 
ENDROOT
BRANCH   2   8
HETATM    8  C           1     -20.394  -5.433  -7.382  0.00  0.00     0.275 C 
BRANCH   8   9
HETATM    9  N           1     -19.612  -4.545  -6.459  0.00  0.00    -0.066 N 
HETATM   10  H           1     -19.991  -3.574  -6.505  0.00  0.00     0.275 HD
HETATM   11  H           1     -19.692  -4.904  -5.481  0.00  0.00     0.275 HD
HETATM   12  H           1     -18.607  -4.542  -6.747  0.00  0.00     0.275 HD
ENDBRANCH   8   9
BRANCH   8  13
HETATM   13  C           1     -21.019  -6.569  -6.582  0.00  0.00     0.053 C 
BRANCH  13  14
HETATM   14  C           1     -20.709  -6.379  -5.103  0.00  0.00     0.115 C 
BRANCH  14  15
HETATM   15  C           1     -21.998  -6.228  -4.334  0.00  0.00     0.172 C 
HETATM   16  O           1     -23.092  -6.229  -4.940  0.00  0.00    -0.648 OA
HETATM   17  O           1     -21.972  -6.103  -3.090  0.00  0.00    -0.648 OA
ENDBRANCH  14  15
ENDBRANCH  13  14
ENDBRANCH   8  13
ENDBRANCH   2   8
BRANCH   7  18
HETATM   18  C           1     -23.347  -4.619 -10.933  0.00  0.00     0.196 C 
HETATM   19  O           1     -23.438  -4.580 -12.179  0.00  0.00    -0.646 OA
HETATM   20  O           1     -24.035  -5.436 -10.282  0.00  0.00    -0.646 OA
ENDBRANCH   7  18
TORSDOF 6
ENDMDL
MODEL 3
REMARK VINA RESULT:      -6.2      2.188      3.017
REMARK  6 active torsions:
REMARK  status: ('A' for Active; 'I' for Inactive)
REMARK       I    between atoms: N_1  and  C_6 
REMARK    1  A    between atoms: C_3  and  C_13 
REMARK    2  A    between atoms: C_6  and  C_15 
REMARK    3  A    between atoms: N_8  and  C_15 
REMARK    4  A    between atoms: C_13  and  C_14 
REMARK    5  A    between atoms: C_14  and  C_15 
REMARK    6  A    between atoms: C_16  and  C_19 
ROOT
HETATM    1  N           1     -36.162   0.196 -13.614  0.00  0.00    -0.336 N 
HETATM    2  C           1     -36.948  -0.246 -12.584  0.00  0.00     0.251 C 
HETATM    3  O           1     -38.074  -0.625 -12.802  0.00  0.00    -0.271 OA
HETATM    4  C           1     -34.789   0.686 -13.537  0.00  0.00     0.127 C 
HETATM    5  C           1     -34.771   1.864 -14.497  0.00  0.00     0.022 C 
HETATM    6  C           1     -35.908   1.597 -15.475  0.00  0.00     0.038 C 
HETATM    7  C           1     -36.513   0.278 -15.029  0.00  0.00     0.188 C 
ENDROOT
BRANCH   2   8
HETATM    8  C           1     -36.409  -0.259 -11.175  0.00  0.00     0.275 C 
BRANCH   8   9
HETATM    9  N           1     -37.334   0.511 -10.278  0.00  0.00    -0.066 N 
HETATM   10  H           1     -36.815   1.305  -9.842  0.00  0.00     0.275 HD
HETATM   11  H           1     -38.132   0.883 -10.841  0.00  0.00     0.275 HD
HETATM   12  H           1     -37.699  -0.121  -9.530  0.00  0.00     0.275 HD
ENDBRANCH   8   9
BRANCH   8  13
HETATM   13  C           1     -36.308  -1.697 -10.682  0.00  0.00     0.053 C 
BRANCH  13  14
HETATM   14  C           1     -35.300  -2.457 -11.533  0.00  0.00     0.115 C 
BRANCH  14  15
HETATM   15  C           1     -34.030  -2.665 -10.746  0.00  0.00     0.172 C 
HETATM   16  O           1     -33.308  -1.687 -10.453  0.00  0.00    -0.648 OA
HETATM   17  O           1     -33.700  -3.816 -10.385  0.00  0.00    -0.648 OA
ENDBRANCH  14  15
ENDBRANCH  13  14
ENDBRANCH   8  13
ENDBRANCH   2   8
BRANCH   7  18
HETATM   18  C           1     -35.917  -0.875 -15.798  0.00  0.00     0.196 C 
HETATM   19  O           1     -35.327  -1.793 -15.189  0.00  0.00    -0.646 OA
HETATM   20  O           1     -36.013  -0.912 -17.044  0.00  0.00    -0.646 OA
ENDBRANCH   7  18
TORSDOF 6
ENDMDL
MODEL 4
REMARK VINA RESULT:      -5.9     10.015     11.149
REMARK  6 active torsions:
REMARK  status: ('A' for Active; 'I' for Inactive)
REMARK       I    between atoms: N_1  and  C_6 
REMARK    1  A    between atoms: C_3  and  C_13 
REMARK    2  A    between atoms: C_6  and  C_15 
REMARK    3  A    between atoms: N_8  and  C_15 
REMARK    4  A    between atoms: C_13  and  C_14 
REMARK    5  A    between atoms: C_14  and  C_15 
REMARK    6  A    between atoms: C_16  and  C_19 
ROOT
HETATM    1  N           1     -28.244  -6.020 -16.980  0.00  0.00    -0.336 N 
HETATM    2  C           1     -27.096  -6.568 -16.474  0.00  0.00     0.251 C 
HETATM    3  O           1     -27.145  -7.280 -15.499  0.00  0.00    -0.271 OA
HETATM    4  C           1     -28.373  -5.143 -18.141  0.00  0.00     0.127 C 
HETATM    5  C           1     -29.401  -4.113 -17.705  0.00  0.00     0.022 C 
HETATM    6  C           1     -30.207  -4.796 -16.607  0.00  0.00     0.038 C 
HETATM    7  C           1     -29.605  -6.183 -16.478  0.00  0.00     0.188 C 
ENDROOT
BRANCH   2   8
HETATM    8  C           1     -25.769  -6.284 -17.133  0.00  0.00     0.275 C 
BRANCH   8   9
HETATM    9  N           1     -24.684  -7.033 -16.417  0.00  0.00    -0.066 N 
HETATM   10  H           1     -24.563  -6.639 -15.458  0.00  0.00     0.275 HD
HETATM   11  H           1     -24.947  -8.042 -16.348  0.00  0.00     0.275 HD
HETATM   12  H           1     -23.789  -6.942 -16.948  0.00  0.00     0.275 HD
ENDBRANCH   8   9
BRANCH   8  13
HETATM   13  C           1     -25.817  -6.733 -18.588  0.00  0.00     0.053 C 
BRANCH  13  14
HETATM   14  C           1     -24.412  -7.080 -19.061  0.00  0.00     0.115 C 
BRANCH  14  15
HETATM   15  C           1     -24.489  -7.805 -20.381  0.00  0.00     0.172 C 
HETATM   16  O           1     -23.445  -8.224 -20.926  0.00  0.00    -0.648 OA
HETATM   17  O           1     -25.598  -7.989 -20.930  0.00  0.00    -0.648 OA
ENDBRANCH  14  15
ENDBRANCH  13  14
ENDBRANCH   8  13
ENDBRANCH   2   8
BRANCH   7  18
HETATM   18  C           1     -30.369  -7.181 -17.312  0.00  0.00     0.196 C 
HETATM   19  O           1     -31.575  -6.982 -17.576  0.00  0.00    -0.646 OA
HETATM   20  O           1     -29.797  -8.207 -17.741  0.00  0.00    -0.646 OA
ENDBRANCH   7  18
TORSDOF 6
ENDMDL
MODEL 5
REMARK VINA RESULT:      -5.5      3.113      4.215
REMARK  6 active torsions:
REMARK  status: ('A' for Active; 'I' for Inactive)
REMARK       I    between atoms: N_1  and  C_6 
REMARK    1  A    between atoms: C_3  and  C_13 
REMARK    2  A    between atoms: C_6  and  C_15 
REMARK    3  A    between atoms: N_8  and  C_15 
REMARK    4  A    between atoms: C_13  and  C_14 
REMARK    5  A    between atoms: C_14  and  C_15 
REMARK    6  A    between atoms: C_16  and  C_19 
ROOT
HETATM    1  N           1     -36.477  -0.312 -13.639  0.00  0.00    -0.336 N 
HETATM    2  C           1     -35.986  -0.732 -12.432  0.00  0.00     0.251 C 
HETATM    3  O           1     -34.815  -1.004 -12.316  0.00  0.00    -0.271 OA
HETATM    4  C           1     -37.853   0.056 -13.961  0.00  0.00     0.127 C 
HETATM    5  C           1     -38.075  -0.542 -15.340  0.00  0.00     0.022 C 
HETATM    6  C           1     -36.683  -0.672 -15.946  0.00  0.00     0.038 C 
HETATM    7  C           1     -35.738  -0.135 -14.886  0.00  0.00     0.188 C 
ENDROOT
BRANCH   2   8
HETATM    8  C           1     -36.910  -0.855 -11.244  0.00  0.00     0.275 C 
BRANCH   8   9
HETATM    9  N           1     -36.398  -1.922 -10.322  0.00  0.00    -0.066 N 
HETATM   10  H           1     -36.241  -1.516  -9.373  0.00  0.00     0.275 HD
HETATM   11  H           1     -37.101  -2.693 -10.259  0.00  0.00     0.275 HD
HETATM   12  H           1     -35.497  -2.300 -10.693  0.00  0.00     0.275 HD
ENDBRANCH   8   9
BRANCH   8  13
HETATM   13  C           1     -36.963   0.473 -10.501  0.00  0.00     0.053 C 
BRANCH  13  14
HETATM   14  C           1     -37.589   0.264  -9.129  0.00  0.00     0.115 C 
BRANCH  14  15
HETATM   15  C           1     -36.636   0.744  -8.062  0.00  0.00     0.172 C 
HETATM   16  O           1     -36.988   1.645  -7.270  0.00  0.00    -0.648 OA
HETATM   17  O           1     -35.496   0.239  -7.969  0.00  0.00    -0.648 OA
ENDBRANCH  14  15
ENDBRANCH  13  14
ENDBRANCH   8  13
ENDBRANCH   2   8
BRANCH   7  18
HETATM   18  C           1     -35.432   1.322 -15.126  0.00  0.00     0.196 C 
HETATM   19  O           1     -34.762   1.966 -14.290  0.00  0.00    -0.646 OA
HETATM   20  O           1     -35.849   1.887 -16.161  0.00  0.00    -0.646 OA
ENDBRANCH   7  18
TORSDOF 6
ENDMDL
MODEL 6
REMARK VINA RESULT:      -5.5      9.965     10.958
REMARK  6 active torsions:
REMARK  status: ('A' for Active; 'I' for Inactive)
REMARK       I    between atoms: N_1  and  C_6 
REMARK    1  A    between atoms: C_3  and  C_13 
REMARK    2  A    between atoms: C_6  and  C_15 
REMARK    3  A    between atoms: N_8  and  C_15 
REMARK    4  A    between atoms: C_13  and  C_14 
REMARK    5  A    between atoms: C_14  and  C_15 
REMARK    6  A    between atoms: C_16  and  C_19 
ROOT
HETATM    1  N           1     -28.686  -5.691 -17.408  0.00  0.00    -0.336 N 
HETATM    2  C           1     -28.280  -6.391 -18.513  0.00  0.00     0.251 C 
HETATM    3  O           1     -29.026  -7.185 -19.033  0.00  0.00    -0.271 OA
HETATM    4  C           1     -27.925  -4.699 -16.655  0.00  0.00     0.127 C 
HETATM    5  C           1     -28.265  -5.005 -15.206  0.00  0.00     0.022 C 
HETATM    6  C           1     -29.611  -5.715 -15.255  0.00  0.00     0.038 C 
HETATM    7  C           1     -29.975  -5.773 -16.728  0.00  0.00     0.188 C 
ENDROOT
BRANCH   2   8
HETATM    8  C           1     -26.899  -6.171 -19.080  0.00  0.00     0.275 C 
BRANCH   8   9
HETATM    9  N           1     -25.878  -6.763 -18.153  0.00  0.00    -0.066 N 
HETATM   10  H           1     -26.337  -7.031 -17.254  0.00  0.00     0.275 HD
HETATM   11  H           1     -25.458  -7.612 -18.596  0.00  0.00     0.275 HD
HETATM   12  H           1     -25.128  -6.060 -17.966  0.00  0.00     0.275 HD
ENDBRANCH   8   9
BRANCH   8  13
HETATM   13  C           1     -26.795  -6.843 -20.443  0.00  0.00     0.053 C 
BRANCH  13  14
HETATM   14  C           1     -25.499  -6.422 -21.120  0.00  0.00     0.115 C 
BRANCH  14  15
HETATM   15  C           1     -24.629  -7.634 -21.343  0.00  0.00     0.172 C 
HETATM   16  O           1     -24.534  -8.135 -22.484  0.00  0.00    -0.648 OA
HETATM   17  O           1     -24.002  -8.138 -20.384  0.00  0.00    -0.648 OA
ENDBRANCH  14  15
ENDBRANCH  13  14
ENDBRANCH   8  13
ENDBRANCH   2   8
BRANCH   7  18
HETATM   18  C           1     -30.859  -4.610 -17.109  0.00  0.00     0.196 C 
HETATM   19  O           1     -31.906  -4.384 -16.465  0.00  0.00    -0.646 OA
HETATM   20  O           1     -30.543  -3.873 -18.069  0.00  0.00    -0.646 OA
ENDBRANCH   7  18
TORSDOF 6
ENDMDL
MODEL 7
REMARK VINA RESULT:      -5.4     17.328     19.629
REMARK  6 active torsions:
REMARK  status: ('A' for Active; 'I' for Inactive)
REMARK       I    between atoms: N_1  and  C_6 
REMARK    1  A    between atoms: C_3  and  C_13 
REMARK    2  A    between atoms: C_6  and  C_15 
REMARK    3  A    between atoms: N_8  and  C_15 
REMARK    4  A    between atoms: C_13  and  C_14 
REMARK    5  A    between atoms: C_14  and  C_15 
REMARK    6  A    between atoms: C_16  and  C_19 
ROOT
HETATM    1  N           1     -22.417  -9.491  -0.871  0.00  0.00    -0.336 N 
HETATM    2  C           1     -22.133  -8.152  -0.890  0.00  0.00     0.251 C 
HETATM    3  O           1     -22.012  -7.544   0.147  0.00  0.00    -0.271 OA
HETATM    4  C           1     -22.596 -10.378  -2.016  0.00  0.00     0.127 C 
HETATM    5  C           1     -23.763 -11.263  -1.610  0.00  0.00     0.022 C 
HETATM    6  C           1     -23.772 -11.236  -0.087  0.00  0.00     0.038 C 
HETATM    7  C           1     -22.606 -10.344   0.300  0.00  0.00     0.188 C 
ENDROOT
BRANCH   2   8
HETATM    8  C           1     -21.971  -7.434  -2.207  0.00  0.00     0.275 C 
BRANCH   8   9
HETATM    9  N           1     -22.373  -5.997  -2.046  0.00  0.00    -0.066 N 
HETATM   10  H           1     -23.235  -5.811  -2.605  0.00  0.00     0.275 HD
HETATM   11  H           1     -22.563  -5.801  -1.037  0.00  0.00     0.275 HD
HETATM   12  H           1     -21.600  -5.380  -2.381  0.00  0.00     0.275 HD
ENDBRANCH   8   9
BRANCH   8  13
HETATM   13  C           1     -20.515  -7.505  -2.650  0.00  0.00     0.053 C 
BRANCH  13  14
HETATM   14  C           1     -20.434  -8.148  -4.028  0.00  0.00     0.115 C 
BRANCH  14  15
HETATM   15  C           1     -20.781  -7.125  -5.082  0.00  0.00     0.172 C 
HETATM   16  O           1     -21.107  -7.497  -6.230  0.00  0.00    -0.648 OA
HETATM   17  O           1     -20.744  -5.906  -4.806  0.00  0.00    -0.648 OA
ENDBRANCH  14  15
ENDBRANCH  13  14
ENDBRANCH   8  13
ENDBRANCH   2   8
BRANCH   7  18
HETATM   18  C           1     -21.369 -11.163   0.572  0.00  0.00     0.196 C 
HETATM   19  O           1     -21.467 -12.392   0.779  0.00  0.00    -0.646 OA
HETATM   20  O           1     -20.246 -10.614   0.592  0.00  0.00    -0.646 OA
ENDBRANCH   7  18
TORSDOF 6
ENDMDL
MODEL 8
REMARK VINA RESULT:      -5.2      8.203      9.124
REMARK  6 active torsions:
REMARK  status: ('A' for Active; 'I' for Inactive)
REMARK       I    between atoms: N_1  and  C_6 
REMARK    1  A    between atoms: C_3  and  C_13 
REMARK    2  A    between atoms: C_6  and  C_15 
REMARK    3  A    between atoms: N_8  and  C_15 
REMARK    4  A    between atoms: C_13  and  C_14 
REMARK    5  A    between atoms: C_14  and  C_15 
REMARK    6  A    between atoms: C_16  and  C_19 
ROOT
HETATM    1  N           1     -29.707  -5.345 -16.564  0.00  0.00    -0.336 N 
HETATM    2  C           1     -29.114  -5.947 -15.486  0.00  0.00     0.251 C 
HETATM    3  O           1     -29.408  -5.604 -14.366  0.00  0.00    -0.271 OA
HETATM    4  C           1     -29.477  -5.628 -17.978  0.00  0.00     0.127 C 
HETATM    5  C           1     -29.474  -4.254 -18.627  0.00  0.00     0.022 C 
HETATM    6  C           1     -30.279  -3.368 -17.685  0.00  0.00     0.038 C 
HETATM    7  C           1     -30.707  -4.281 -16.550  0.00  0.00     0.188 C 
ENDROOT
BRANCH   2   8
HETATM    8  C           1     -28.093  -7.037 -15.698  0.00  0.00     0.275 C 
BRANCH   8   9
HETATM    9  N           1     -28.703  -8.142 -16.510  0.00  0.00    -0.066 N 
HETATM   10  H           1     -29.493  -8.571 -15.978  0.00  0.00     0.275 HD
HETATM   11  H           1     -29.062  -7.753 -17.412  0.00  0.00     0.275 HD
HETATM   12  H           1     -27.980  -8.869 -16.708  0.00  0.00     0.275 HD
ENDBRANCH   8   9
BRANCH   8  13
HETATM   13  C           1     -26.890  -6.470 -16.440  0.00  0.00     0.053 C 
BRANCH  13  14
HETATM   14  C           1     -25.620  -6.770 -15.655  0.00  0.00     0.115 C 
BRANCH  14  15
HETATM   15  C           1     -24.590  -7.378 -16.574  0.00  0.00     0.172 C 
HETATM   16  O           1     -24.312  -6.821 -17.657  0.00  0.00    -0.648 OA
HETATM   17  O           1     -24.014  -8.441 -16.251  0.00  0.00    -0.648 OA
ENDBRANCH  14  15
ENDBRANCH  13  14
ENDBRANCH   8  13
ENDBRANCH   2   8
BRANCH   7  18
HETATM   18  C           1     -32.087  -4.839 -16.800  0.00  0.00     0.196 C 
HETATM   19  O           1     -33.084  -4.088 -16.740  0.00  0.00    -0.646 OA
HETATM   20  O           1     -32.233  -6.052 -17.068  0.00  0.00    -0.646 OA
ENDBRANCH   7  18
TORSDOF 6
ENDMDL
MODEL 9
REMARK VINA RESULT:      -5.2     16.930     19.483
REMARK  6 active torsions:
REMARK  status: ('A' for Active; 'I' for Inactive)
REMARK       I    between atoms: N_1  and  C_6 
REMARK    1  A    between atoms: C_3  and  C_13 
REMARK    2  A    between atoms: C_6  and  C_15 
REMARK    3  A    between atoms: N_8  and  C_15 
REMARK    4  A    between atoms: C_13  and  C_14 
REMARK    5  A    between atoms: C_14  and  C_15 
REMARK    6  A    between atoms: C_16  and  C_19 
ROOT
HETATM    1  N           1     -21.476  -8.517  -1.098  0.00  0.00    -0.336 N 
HETATM    2  C           1     -21.061  -8.088  -2.330  0.00  0.00     0.251 C 
HETATM    3  O           1     -20.040  -8.521  -2.809  0.00  0.00    -0.271 OA
HETATM    4  C           1     -22.673  -8.106  -0.370  0.00  0.00     0.127 C 
HETATM    5  C           1     -22.199  -7.986   1.069  0.00  0.00     0.022 C 
HETATM    6  C           1     -20.977  -8.890   1.161  0.00  0.00     0.038 C 
HETATM    7  C           1     -20.819  -9.487  -0.226  0.00  0.00     0.188 C 
ENDROOT
BRANCH   2   8
HETATM    8  C           1     -21.879  -7.072  -3.090  0.00  0.00     0.275 C 
BRANCH   8   9
HETATM    9  N           1     -21.432  -5.690  -2.715  0.00  0.00    -0.066 N 
HETATM   10  H           1     -20.728  -5.747  -1.946  0.00  0.00     0.275 HD
HETATM   11  H           1     -21.000  -5.227  -3.547  0.00  0.00     0.275 HD
HETATM   12  H           1     -22.255  -5.133  -2.395  0.00  0.00     0.275 HD
ENDBRANCH   8   9
BRANCH   8  13
HETATM   13  C           1     -21.683  -7.279  -4.586  0.00  0.00     0.053 C 
BRANCH  13  14
HETATM   14  C           1     -21.497  -5.929  -5.266  0.00  0.00     0.115 C 
BRANCH  14  15
HETATM   15  C           1     -20.231  -5.948  -6.087  0.00  0.00     0.172 C 
HETATM   16  O           1     -19.773  -7.034  -6.503  0.00  0.00    -0.648 OA
HETATM   17  O           1     -19.642  -4.877  -6.351  0.00  0.00    -0.648 OA
ENDBRANCH  14  15
ENDBRANCH  13  14
ENDBRANCH   8  13
ENDBRANCH   2   8
BRANCH   7  18
HETATM   18  C           1     -21.495 -10.832  -0.313  0.00  0.00     0.196 C 
HETATM   19  O           1     -21.790 -11.313  -1.429  0.00  0.00    -0.646 OA
HETATM   20  O           1     -21.762 -11.467   0.731  0.00  0.00    -0.646 OA
ENDBRANCH   7  18
TORSDOF 6
ENDMDL
