MODEL 1
REMARK VINA RESULT:      -7.1      0.000      0.000
REMARK  17 active torsions:
REMARK  status: ('A' for Active; 'I' for Inactive)
REMARK    1  A    between atoms: C_1  and  C_11 
REMARK    2  A    between atoms: C_1  and  C_7 
REMARK    3  A    between atoms: C_1  and  N_23 
REMARK    4  A    between atoms: C_2  and  C_3 
REMARK    5  A    between atoms: C_2  and  C_38 
REMARK    6  A    between atoms: C_2  and  N_12 
REMARK    7  A    between atoms: C_3  and  C_4 
REMARK    8  A    between atoms: C_4  and  N_5 
REMARK    9  A    between atoms: N_5  and  C_16 
REMARK   10  A    between atoms: C_7  and  C_18 
REMARK       I    between atoms: N_8  and  C_9 
REMARK       I    between atoms: C_9  and  N_10 
REMARK       I    between atoms: C_11  and  N_12 
REMARK   11  A    between atoms: C_15  and  C_16 
REMARK   12  A    between atoms: C_16  and  C_17 
REMARK   13  A    between atoms: C_17  and  C_35 
REMARK   14  A    between atoms: C_18  and  C_28 
REMARK       I    between atoms: N_24  and  C_26 
REMARK       I    between atoms: N_25  and  C_26 
REMARK   15  A    between atoms: N_27  and  C_28 
REMARK   16  A    between atoms: N_33  and  C_34 
REMARK   17  A    between atoms: C_34  and  C_35 
ROOT
HETATM    1  C           1     -34.321  -4.484 -15.478  0.00  0.00     0.187 C 
ENDROOT
BRANCH   1   2
HETATM    2  C           1     -33.385  -4.261 -16.658  0.00  0.00     0.066 C 
BRANCH   2   3
HETATM    3  C           1     -32.002  -4.803 -16.320  0.00  0.00     0.273 C 
BRANCH   3   4
HETATM    4  N           1     -31.819  -6.082 -16.953  0.00  0.00     0.098 N 
HETATM    5  H           1     -32.412  -6.139 -17.781  0.00  0.00     0.317 HD
BRANCH   4   6
HETATM    6  C           1     -30.439  -6.183 -17.343  0.00  0.00     0.320 C 
BRANCH   6   7
HETATM    7  C           1     -30.132  -7.605 -17.741  0.00  0.00     0.207 C 
HETATM    8  O           1     -29.529  -8.361 -16.949  0.00  0.00    -0.646 OA
HETATM    9  O           1     -30.481  -8.027 -18.865  0.00  0.00    -0.646 OA
ENDBRANCH   6   7
BRANCH   6  10
HETATM   10  C           1     -29.552  -5.781 -16.171  0.00  0.00     0.048 C 
BRANCH  10  11
HETATM   11  C           1     -28.206  -5.299 -16.696  0.00  0.00     0.023 C 
BRANCH  11  12
HETATM   12  C           1     -27.087  -6.091 -16.030  0.00  0.00     0.138 C 
BRANCH  12  13
HETATM   13  N           1     -26.160  -6.588 -17.057  0.00  0.00    -0.227 N 
HETATM   14  C           1     -25.016  -7.017 -16.723  0.00  0.00     0.665 C 
HETATM   15  N           1     -24.671  -7.017 -15.505  0.00  0.00    -0.235 N 
HETATM   16  N           1     -24.197  -7.456 -17.631  0.00  0.00    -0.235 N 
HETATM   17  H           1     -25.333  -6.662 -14.772  0.00  0.00     0.174 HD
HETATM   18  H           1     -23.723  -7.373 -15.229  0.00  0.00     0.174 HD
HETATM   19  H           1     -24.482  -7.456 -18.636  0.00  0.00     0.174 HD
HETATM   20  H           1     -23.253  -7.810 -17.355  0.00  0.00     0.174 HD
HETATM   21  H           1     -26.446  -6.588 -18.067  0.00  0.00     0.177 HD
ENDBRANCH  12  13
ENDBRANCH  11  12
ENDBRANCH  10  11
ENDBRANCH   6  10
ENDBRANCH   4   6
ENDBRANCH   3   4
ENDBRANCH   2   3
ENDBRANCH   1   2
BRANCH   1  22
HETATM   22  C           1     -34.959  -5.847 -15.591  0.00  0.00     0.196 C 
HETATM   23  O           1     -34.690  -6.584 -16.564  0.00  0.00    -0.646 OA
HETATM   24  O           1     -35.756  -6.238 -14.712  0.00  0.00    -0.646 OA
ENDBRANCH   1  22
BRANCH   1  25
HETATM   25  N           1     -33.567  -4.405 -14.242  0.00  0.00    -0.345 N 
HETATM   26  C           1     -33.943  -3.523 -13.266  0.00  0.00     0.249 C 
HETATM   27  O           1     -34.904  -2.809 -13.433  0.00  0.00    -0.271 OA
HETATM   28  H           1     -32.763  -5.004 -14.101  0.00  0.00     0.163 HD
BRANCH  26  29
HETATM   29  C           1     -33.159  -3.442 -11.979  0.00  0.00     0.274 C 
BRANCH  29  30
HETATM   30  C           1     -32.980  -4.841 -11.403  0.00  0.00     0.044 C 
BRANCH  30  31
HETATM   31  C           1     -34.198  -5.204 -10.564  0.00  0.00     0.023 C 
BRANCH  31  32
HETATM   32  C           1     -34.781  -6.522 -11.059  0.00  0.00     0.138 C 
BRANCH  32  33
HETATM   33  N           1     -34.983  -7.428  -9.920  0.00  0.00    -0.227 N 
HETATM   34  C           1     -34.190  -8.397  -9.734  0.00  0.00     0.665 C 
HETATM   35  N           1     -33.199  -8.592 -10.552  0.00  0.00    -0.235 N 
HETATM   36  N           1     -34.364  -9.178  -8.753  0.00  0.00    -0.235 N 
HETATM   37  H           1     -32.545  -9.393 -10.399  0.00  0.00     0.174 HD
HETATM   38  H           1     -33.056  -7.948 -11.363  0.00  0.00     0.174 HD
HETATM   39  H           1     -33.706  -9.982  -8.598  0.00  0.00     0.174 HD
HETATM   40  H           1     -35.165  -9.021  -8.092  0.00  0.00     0.174 HD
HETATM   41  H           1     -35.783  -7.271  -9.259  0.00  0.00     0.177 HD
ENDBRANCH  32  33
ENDBRANCH  31  32
ENDBRANCH  30  31
ENDBRANCH  29  30
BRANCH  29  42
HETATM   42  N           1     -33.902  -2.589 -10.994  0.00  0.00    -0.067 N 
HETATM   43  H           1     -34.630  -3.164 -10.514  0.00  0.00     0.275 HD
HETATM   44  H           1     -33.233  -2.212 -10.285  0.00  0.00     0.275 HD
HETATM   45  H           1     -34.361  -1.796 -11.497  0.00  0.00     0.275 HD
ENDBRANCH  29  42
ENDBRANCH  26  29
ENDBRANCH   1  25
TORSDOF 17
ENDMDL
MODEL 2
REMARK VINA RESULT:      -7.0      2.020      3.775
REMARK  17 active torsions:
REMARK  status: ('A' for Active; 'I' for Inactive)
REMARK    1  A    between atoms: C_1  and  C_11 
REMARK    2  A    between atoms: C_1  and  C_7 
REMARK    3  A    between atoms: C_1  and  N_23 
REMARK    4  A    between atoms: C_2  and  C_3 
REMARK    5  A    between atoms: C_2  and  C_38 
REMARK    6  A    between atoms: C_2  and  N_12 
REMARK    7  A    between atoms: C_3  and  C_4 
REMARK    8  A    between atoms: C_4  and  N_5 
REMARK    9  A    between atoms: N_5  and  C_16 
REMARK   10  A    between atoms: C_7  and  C_18 
REMARK       I    between atoms: N_8  and  C_9 
REMARK       I    between atoms: C_9  and  N_10 
REMARK       I    between atoms: C_11  and  N_12 
REMARK   11  A    between atoms: C_15  and  C_16 
REMARK   12  A    between atoms: C_16  and  C_17 
REMARK   13  A    between atoms: C_17  and  C_35 
REMARK   14  A    between atoms: C_18  and  C_28 
REMARK       I    between atoms: N_24  and  C_26 
REMARK       I    between atoms: N_25  and  C_26 
REMARK   15  A    between atoms: N_27  and  C_28 
REMARK   16  A    between atoms: N_33  and  C_34 
REMARK   17  A    between atoms: C_34  and  C_35 
ROOT
HETATM    1  C           1     -33.327  -4.012 -15.576  0.00  0.00     0.187 C 
ENDROOT
BRANCH   1   2
HETATM    2  C           1     -32.735  -5.140 -16.410  0.00  0.00     0.066 C 
BRANCH   2   3
HETATM    3  C           1     -31.350  -4.737 -16.901  0.00  0.00     0.273 C 
BRANCH   3   4
HETATM    4  N           1     -30.433  -5.827 -16.696  0.00  0.00     0.098 N 
HETATM    5  H           1     -30.915  -6.592 -16.224  0.00  0.00     0.317 HD
BRANCH   4   6
HETATM    6  C           1     -29.983  -6.267 -17.989  0.00  0.00     0.320 C 
BRANCH   6   7
HETATM    7  C           1     -29.911  -7.774 -18.009  0.00  0.00     0.207 C 
HETATM    8  O           1     -29.616  -8.401 -16.968  0.00  0.00    -0.646 OA
HETATM    9  O           1     -30.144  -8.396 -19.068  0.00  0.00    -0.646 OA
ENDBRANCH   6   7
BRANCH   6  10
HETATM   10  C           1     -28.601  -5.689 -18.266  0.00  0.00     0.048 C 
BRANCH  10  11
HETATM   11  C           1     -27.984  -5.199 -16.963  0.00  0.00     0.023 C 
BRANCH  11  12
HETATM   12  C           1     -26.936  -6.198 -16.489  0.00  0.00     0.138 C 
BRANCH  12  13
HETATM   13  N           1     -26.109  -6.618 -17.629  0.00  0.00    -0.227 N 
HETATM   14  C           1     -24.913  -6.991 -17.439  0.00  0.00     0.665 C 
HETATM   15  N           1     -24.431  -7.002 -16.269  0.00  0.00    -0.235 N 
HETATM   16  N           1     -24.181  -7.363 -18.448  0.00  0.00    -0.235 N 
HETATM   17  H           1     -25.023  -6.702 -15.455  0.00  0.00     0.174 HD
HETATM   18  H           1     -23.441  -7.312 -16.113  0.00  0.00     0.174 HD
HETATM   19  H           1     -24.580  -7.353 -19.413  0.00  0.00     0.174 HD
HETATM   20  H           1     -23.195  -7.670 -18.291  0.00  0.00     0.174 HD
HETATM   21  H           1     -26.508  -6.608 -18.599  0.00  0.00     0.177 HD
ENDBRANCH  12  13
ENDBRANCH  11  12
ENDBRANCH  10  11
ENDBRANCH   6  10
ENDBRANCH   4   6
ENDBRANCH   3   4
ENDBRANCH   2   3
ENDBRANCH   1   2
BRANCH   1  22
HETATM   22  C           1     -34.100  -3.075 -16.471  0.00  0.00     0.196 C 
HETATM   23  O           1     -35.209  -2.631 -16.101  0.00  0.00    -0.646 OA
HETATM   24  O           1     -33.633  -2.743 -17.581  0.00  0.00    -0.646 OA
ENDBRANCH   1  22
BRANCH   1  25
HETATM   25  N           1     -34.217  -4.567 -14.575  0.00  0.00    -0.345 N 
HETATM   26  C           1     -33.976  -4.345 -13.246  0.00  0.00     0.249 C 
HETATM   27  O           1     -33.021  -3.688 -12.906  0.00  0.00    -0.271 OA
HETATM   28  H           1     -35.018  -5.118 -14.859  0.00  0.00     0.163 HD
BRANCH  26  29
HETATM   29  C           1     -34.903  -4.923 -12.204  0.00  0.00     0.274 C 
BRANCH  29  30
HETATM   30  C           1     -34.800  -4.106 -10.923  0.00  0.00     0.044 C 
BRANCH  30  31
HETATM   31  C           1     -35.944  -3.102 -10.867  0.00  0.00     0.023 C 
BRANCH  31  32
HETATM   32  C           1     -35.378  -1.688 -10.818  0.00  0.00     0.138 C 
BRANCH  32  33
HETATM   33  N           1     -34.747  -1.368 -12.107  0.00  0.00    -0.227 N 
HETATM   34  C           1     -35.399  -0.738 -12.991  0.00  0.00     0.665 C 
HETATM   35  N           1     -36.627  -0.378 -12.760  0.00  0.00    -0.235 N 
HETATM   36  N           1     -34.857  -0.462 -14.100  0.00  0.00    -0.235 N 
HETATM   37  H           1     -37.165   0.142 -13.490  0.00  0.00     0.174 HD
HETATM   38  H           1     -37.075  -0.606 -11.844  0.00  0.00     0.174 HD
HETATM   39  H           1     -35.397   0.060 -14.834  0.00  0.00     0.174 HD
HETATM   40  H           1     -33.865  -0.754 -14.288  0.00  0.00     0.174 HD
HETATM   41  H           1     -33.756  -1.659 -12.293  0.00  0.00     0.177 HD
ENDBRANCH  32  33
ENDBRANCH  31  32
ENDBRANCH  30  31
ENDBRANCH  29  30
BRANCH  29  42
HETATM   42  N           1     -34.513  -6.344 -11.922  0.00  0.00    -0.067 N 
HETATM   43  H           1     -34.781  -6.591 -10.943  0.00  0.00     0.275 HD
HETATM   44  H           1     -35.007  -6.979 -12.589  0.00  0.00     0.275 HD
HETATM   45  H           1     -33.480  -6.451 -12.037  0.00  0.00     0.275 HD
ENDBRANCH  29  42
ENDBRANCH  26  29
ENDBRANCH   1  25
TORSDOF 17
ENDMDL
MODEL 3
REMARK VINA RESULT:      -7.0      3.828     10.961
REMARK  17 active torsions:
REMARK  status: ('A' for Active; 'I' for Inactive)
REMARK    1  A    between atoms: C_1  and  C_11 
REMARK    2  A    between atoms: C_1  and  C_7 
REMARK    3  A    between atoms: C_1  and  N_23 
REMARK    4  A    between atoms: C_2  and  C_3 
REMARK    5  A    between atoms: C_2  and  C_38 
REMARK    6  A    between atoms: C_2  and  N_12 
REMARK    7  A    between atoms: C_3  and  C_4 
REMARK    8  A    between atoms: C_4  and  N_5 
REMARK    9  A    between atoms: N_5  and  C_16 
REMARK   10  A    between atoms: C_7  and  C_18 
REMARK       I    between atoms: N_8  and  C_9 
REMARK       I    between atoms: C_9  and  N_10 
REMARK       I    between atoms: C_11  and  N_12 
REMARK   11  A    between atoms: C_15  and  C_16 
REMARK   12  A    between atoms: C_16  and  C_17 
REMARK   13  A    between atoms: C_17  and  C_35 
REMARK   14  A    between atoms: C_18  and  C_28 
REMARK       I    between atoms: N_24  and  C_26 
REMARK       I    between atoms: N_25  and  C_26 
REMARK   15  A    between atoms: N_27  and  C_28 
REMARK   16  A    between atoms: N_33  and  C_34 
REMARK   17  A    between atoms: C_34  and  C_35 
ROOT
HETATM    1  C           1     -25.286  -6.325 -17.142  0.00  0.00     0.187 C 
ENDROOT
BRANCH   1   2
HETATM    2  C           1     -26.406  -5.405 -16.679  0.00  0.00     0.066 C 
BRANCH   2   3
HETATM    3  C           1     -27.665  -5.687 -17.490  0.00  0.00     0.273 C 
BRANCH   3   4
HETATM    4  N           1     -28.576  -6.476 -16.704  0.00  0.00     0.098 N 
HETATM    5  H           1     -28.394  -6.318 -15.713  0.00  0.00     0.317 HD
BRANCH   4   6
HETATM    6  C           1     -29.911  -6.047 -17.022  0.00  0.00     0.320 C 
BRANCH   6   7
HETATM    7  C           1     -30.665  -7.186 -17.663  0.00  0.00     0.207 C 
HETATM    8  O           1     -30.041  -8.112 -18.225  0.00  0.00    -0.646 OA
HETATM    9  O           1     -31.914  -7.203 -17.632  0.00  0.00    -0.646 OA
ENDBRANCH   6   7
BRANCH   6  10
HETATM   10  C           1     -29.847  -4.872 -17.990  0.00  0.00     0.048 C 
BRANCH  10  11
HETATM   11  C           1     -30.482  -3.647 -17.344  0.00  0.00     0.023 C 
BRANCH  11  12
HETATM   12  C           1     -31.988  -3.675 -17.572  0.00  0.00     0.138 C 
BRANCH  12  13
HETATM   13  N           1     -32.635  -4.418 -16.481  0.00  0.00    -0.227 N 
HETATM   14  C           1     -33.772  -4.056 -16.056  0.00  0.00     0.665 C 
HETATM   15  N           1     -34.351  -3.055 -16.571  0.00  0.00    -0.235 N 
HETATM   16  N           1     -34.345  -4.713 -15.092  0.00  0.00    -0.235 N 
HETATM   17  H           1     -33.889  -2.524 -17.350  0.00  0.00     0.174 HD
HETATM   18  H           1     -35.294  -2.756 -16.219  0.00  0.00     0.174 HD
HETATM   19  H           1     -33.867  -5.540 -14.668  0.00  0.00     0.174 HD
HETATM   20  H           1     -35.283  -4.415 -14.742  0.00  0.00     0.174 HD
HETATM   21  H           1     -32.155  -5.248 -16.054  0.00  0.00     0.177 HD
ENDBRANCH  12  13
ENDBRANCH  11  12
ENDBRANCH  10  11
ENDBRANCH   6  10
ENDBRANCH   4   6
ENDBRANCH   3   4
ENDBRANCH   2   3
ENDBRANCH   1   2
BRANCH   1  22
HETATM   22  C           1     -25.062  -7.406 -16.113  0.00  0.00     0.196 C 
HETATM   23  O           1     -24.119  -8.214 -16.252  0.00  0.00    -0.646 OA
HETATM   24  O           1     -25.819  -7.492 -15.122  0.00  0.00    -0.646 OA
ENDBRANCH   1  22
BRANCH   1  25
HETATM   25  N           1     -25.651  -6.932 -18.407  0.00  0.00    -0.345 N 
HETATM   26  C           1     -24.732  -7.018 -19.417  0.00  0.00     0.249 C 
HETATM   27  O           1     -23.614  -6.588 -19.255  0.00  0.00    -0.271 OA
HETATM   28  H           1     -26.587  -7.294 -18.543  0.00  0.00     0.163 HD
BRANCH  26  29
HETATM   29  C           1     -25.113  -7.651 -20.733  0.00  0.00     0.274 C 
BRANCH  29  30
HETATM   30  C           1     -24.814  -6.681 -21.869  0.00  0.00     0.044 C 
BRANCH  30  31
HETATM   31  C           1     -23.783  -7.296 -22.805  0.00  0.00     0.023 C 
BRANCH  31  32
HETATM   32  C           1     -23.626  -8.778 -22.486  0.00  0.00     0.138 C 
BRANCH  32  33
HETATM   33  N           1     -22.275  -9.220 -22.861  0.00  0.00    -0.227 N 
HETATM   34  C           1     -21.358  -9.260 -21.990  0.00  0.00     0.665 C 
HETATM   35  N           1     -21.610  -8.909 -20.764  0.00  0.00    -0.235 N 
HETATM   36  N           1     -20.195  -9.641 -22.312  0.00  0.00    -0.235 N 
HETATM   37  H           1     -20.853  -8.942 -20.044  0.00  0.00     0.174 HD
HETATM   38  H           1     -22.570  -8.594 -20.498  0.00  0.00     0.174 HD
HETATM   39  H           1     -19.434  -9.675 -21.589  0.00  0.00     0.174 HD
HETATM   40  H           1     -19.990  -9.924 -23.303  0.00  0.00     0.174 HD
HETATM   41  H           1     -22.071  -9.503 -23.851  0.00  0.00     0.177 HD
ENDBRANCH  32  33
ENDBRANCH  31  32
ENDBRANCH  30  31
ENDBRANCH  29  30
BRANCH  29  42
HETATM   42  N           1     -26.577  -7.975 -20.726  0.00  0.00    -0.067 N 
HETATM   43  H           1     -26.772  -8.726 -21.425  0.00  0.00     0.275 HD
HETATM   44  H           1     -26.856  -8.305 -19.774  0.00  0.00     0.275 HD
HETATM   45  H           1     -27.125  -7.120 -20.973  0.00  0.00     0.275 HD
ENDBRANCH  29  42
ENDBRANCH  26  29
ENDBRANCH   1  25
TORSDOF 17
ENDMDL
MODEL 4
REMARK VINA RESULT:      -6.9      3.023      4.238
REMARK  17 active torsions:
REMARK  status: ('A' for Active; 'I' for Inactive)
REMARK    1  A    between atoms: C_1  and  C_11 
REMARK    2  A    between atoms: C_1  and  C_7 
REMARK    3  A    between atoms: C_1  and  N_23 
REMARK    4  A    between atoms: C_2  and  C_3 
REMARK    5  A    between atoms: C_2  and  C_38 
REMARK    6  A    between atoms: C_2  and  N_12 
REMARK    7  A    between atoms: C_3  and  C_4 
REMARK    8  A    between atoms: C_4  and  N_5 
REMARK    9  A    between atoms: N_5  and  C_16 
REMARK   10  A    between atoms: C_7  and  C_18 
REMARK       I    between atoms: N_8  and  C_9 
REMARK       I    between atoms: C_9  and  N_10 
REMARK       I    between atoms: C_11  and  N_12 
REMARK   11  A    between atoms: C_15  and  C_16 
REMARK   12  A    between atoms: C_16  and  C_17 
REMARK   13  A    between atoms: C_17  and  C_35 
REMARK   14  A    between atoms: C_18  and  C_28 
REMARK       I    between atoms: N_24  and  C_26 
REMARK       I    between atoms: N_25  and  C_26 
REMARK   15  A    between atoms: N_27  and  C_28 
REMARK   16  A    between atoms: N_33  and  C_34 
REMARK   17  A    between atoms: C_34  and  C_35 
ROOT
HETATM    1  C           1     -34.423  -3.070 -16.699  0.00  0.00     0.187 C 
ENDROOT
BRANCH   1   2
HETATM    2  C           1     -33.091  -3.291 -17.401  0.00  0.00     0.066 C 
BRANCH   2   3
HETATM    3  C           1     -32.354  -4.450 -16.740  0.00  0.00     0.273 C 
BRANCH   3   4
HETATM    4  N           1     -31.174  -4.764 -17.500  0.00  0.00     0.098 N 
HETATM    5  H           1     -31.027  -4.048 -18.212  0.00  0.00     0.317 HD
BRANCH   4   6
HETATM    6  C           1     -30.060  -4.774 -16.591  0.00  0.00     0.320 C 
BRANCH   6   7
HETATM    7  C           1     -29.171  -3.587 -16.874  0.00  0.00     0.207 C 
HETATM    8  O           1     -29.609  -2.620 -17.535  0.00  0.00    -0.646 OA
HETATM    9  O           1     -27.996  -3.572 -16.448  0.00  0.00    -0.646 OA
ENDBRANCH   6   7
BRANCH   6  10
HETATM   10  C           1     -29.264  -6.059 -16.780  0.00  0.00     0.048 C 
BRANCH  10  11
HETATM   11  C           1     -28.893  -6.215 -18.249  0.00  0.00     0.023 C 
BRANCH  11  12
HETATM   12  C           1     -27.378  -6.301 -18.384  0.00  0.00     0.138 C 
BRANCH  12  13
HETATM   13  N           1     -26.768  -6.333 -17.047  0.00  0.00    -0.227 N 
HETATM   14  C           1     -25.571  -6.723 -16.907  0.00  0.00     0.665 C 
HETATM   15  N           1     -24.900  -7.085 -17.918  0.00  0.00    -0.235 N 
HETATM   16  N           1     -25.031  -6.752 -15.725  0.00  0.00    -0.235 N 
HETATM   17  H           1     -25.336  -7.062 -18.873  0.00  0.00     0.174 HD
HETATM   18  H           1     -23.908  -7.408 -17.801  0.00  0.00     0.174 HD
HETATM   19  H           1     -25.585  -6.453 -14.891  0.00  0.00     0.174 HD
HETATM   20  H           1     -24.044  -7.073 -15.609  0.00  0.00     0.174 HD
HETATM   21  H           1     -27.324  -6.033 -16.209  0.00  0.00     0.177 HD
ENDBRANCH  12  13
ENDBRANCH  11  12
ENDBRANCH  10  11
ENDBRANCH   6  10
ENDBRANCH   4   6
ENDBRANCH   3   4
ENDBRANCH   2   3
ENDBRANCH   1   2
BRANCH   1  22
HETATM   22  C           1     -34.533  -4.004 -15.519  0.00  0.00     0.196 C 
HETATM   23  O           1     -35.089  -5.116 -15.653  0.00  0.00    -0.646 OA
HETATM   24  O           1     -34.069  -3.666 -14.409  0.00  0.00    -0.646 OA
ENDBRANCH   1  22
BRANCH   1  25
HETATM   25  N           1     -34.505  -1.698 -16.238  0.00  0.00    -0.345 N 
HETATM   26  C           1     -35.711  -1.052 -16.218  0.00  0.00     0.249 C 
HETATM   27  O           1     -36.709  -1.624 -16.586  0.00  0.00    -0.271 OA
HETATM   28  H           1     -33.668  -1.217 -15.929  0.00  0.00     0.163 HD
BRANCH  26  29
HETATM   29  C           1     -35.795   0.376 -15.737  0.00  0.00     0.274 C 
BRANCH  29  30
HETATM   30  C           1     -35.209   0.476 -14.335  0.00  0.00     0.044 C 
BRANCH  30  31
HETATM   31  C           1     -36.070  -0.322 -13.366  0.00  0.00     0.023 C 
BRANCH  31  32
HETATM   32  C           1     -35.282  -0.592 -12.090  0.00  0.00     0.138 C 
BRANCH  32  33
HETATM   33  N           1     -34.481  -1.813 -12.256  0.00  0.00    -0.227 N 
HETATM   34  C           1     -33.819  -2.274 -11.281  0.00  0.00     0.665 C 
HETATM   35  N           1     -33.844  -1.664 -10.132  0.00  0.00    -0.235 N 
HETATM   36  N           1     -33.129  -3.325 -11.424  0.00  0.00    -0.235 N 
HETATM   37  H           1     -33.297  -2.044  -9.327  0.00  0.00     0.174 HD
HETATM   38  H           1     -34.413  -0.795 -10.014  0.00  0.00     0.174 HD
HETATM   39  H           1     -32.579  -3.707 -10.615  0.00  0.00     0.174 HD
HETATM   40  H           1     -33.107  -3.817 -12.352  0.00  0.00     0.174 HD
HETATM   41  H           1     -34.460  -2.305 -13.183  0.00  0.00     0.177 HD
ENDBRANCH  32  33
ENDBRANCH  31  32
ENDBRANCH  30  31
ENDBRANCH  29  30
BRANCH  29  42
HETATM   42  N           1     -37.231   0.810 -15.709  0.00  0.00    -0.067 N 
HETATM   43  H           1     -37.673   0.609 -16.634  0.00  0.00     0.275 HD
HETATM   44  H           1     -37.738   0.286 -14.960  0.00  0.00     0.275 HD
HETATM   45  H           1     -37.282   1.835 -15.514  0.00  0.00     0.275 HD
ENDBRANCH  29  42
ENDBRANCH  26  29
ENDBRANCH   1  25
TORSDOF 17
ENDMDL
MODEL 5
REMARK VINA RESULT:      -6.8     13.716     16.444
REMARK  17 active torsions:
REMARK  status: ('A' for Active; 'I' for Inactive)
REMARK    1  A    between atoms: C_1  and  C_11 
REMARK    2  A    between atoms: C_1  and  C_7 
REMARK    3  A    between atoms: C_1  and  N_23 
REMARK    4  A    between atoms: C_2  and  C_3 
REMARK    5  A    between atoms: C_2  and  C_38 
REMARK    6  A    between atoms: C_2  and  N_12 
REMARK    7  A    between atoms: C_3  and  C_4 
REMARK    8  A    between atoms: C_4  and  N_5 
REMARK    9  A    between atoms: N_5  and  C_16 
REMARK   10  A    between atoms: C_7  and  C_18 
REMARK       I    between atoms: N_8  and  C_9 
REMARK       I    between atoms: C_9  and  N_10 
REMARK       I    between atoms: C_11  and  N_12 
REMARK   11  A    between atoms: C_15  and  C_16 
REMARK   12  A    between atoms: C_16  and  C_17 
REMARK   13  A    between atoms: C_17  and  C_35 
REMARK   14  A    between atoms: C_18  and  C_28 
REMARK       I    between atoms: N_24  and  C_26 
REMARK       I    between atoms: N_25  and  C_26 
REMARK   15  A    between atoms: N_27  and  C_28 
REMARK   16  A    between atoms: N_33  and  C_34 
REMARK   17  A    between atoms: C_34  and  C_35 
ROOT
HETATM    1  C           1     -21.367  -7.722  -2.783  0.00  0.00     0.187 C 
ENDROOT
BRANCH   1   2
HETATM    2  C           1     -20.136  -8.474  -2.298  0.00  0.00     0.066 C 
BRANCH   2   3
HETATM    3  C           1     -20.171  -9.903  -2.827  0.00  0.00     0.273 C 
BRANCH   3   4
HETATM    4  N           1     -18.828 -10.402  -2.952  0.00  0.00     0.098 N 
HETATM    5  H           1     -18.843 -11.303  -3.430  0.00  0.00     0.317 HD
BRANCH   4   6
HETATM    6  C           1     -18.082  -9.455  -3.735  0.00  0.00     0.320 C 
BRANCH   6   7
HETATM    7  C           1     -18.206  -9.804  -5.198  0.00  0.00     0.207 C 
HETATM    8  O           1     -18.591  -8.942  -6.017  0.00  0.00    -0.646 OA
HETATM    9  O           1     -17.925 -10.958  -5.589  0.00  0.00    -0.646 OA
ENDBRANCH   6   7
BRANCH   6  10
HETATM   10  C           1     -16.615  -9.503  -3.324  0.00  0.00     0.048 C 
BRANCH  10  11
HETATM   11  C           1     -16.393 -10.672  -2.374  0.00  0.00     0.023 C 
BRANCH  11  12
HETATM   12  C           1     -15.233 -11.523  -2.877  0.00  0.00     0.138 C 
BRANCH  12  13
HETATM   13  N           1     -15.129 -11.394  -4.338  0.00  0.00    -0.227 N 
HETATM   14  C           1     -15.118 -12.431  -5.066  0.00  0.00     0.665 C 
HETATM   15  N           1     -15.197 -13.577  -4.535  0.00  0.00    -0.235 N 
HETATM   16  N           1     -15.026 -12.317  -6.357  0.00  0.00    -0.235 N 
HETATM   17  H           1     -15.272 -13.669  -3.492  0.00  0.00     0.174 HD
HETATM   18  H           1     -15.188 -14.436  -5.139  0.00  0.00     0.174 HD
HETATM   19  H           1     -14.961 -11.370  -6.795  0.00  0.00     0.174 HD
HETATM   20  H           1     -15.017 -13.172  -6.957  0.00  0.00     0.174 HD
HETATM   21  H           1     -15.064 -10.443  -4.778  0.00  0.00     0.177 HD
ENDBRANCH  12  13
ENDBRANCH  11  12
ENDBRANCH  10  11
ENDBRANCH   6  10
ENDBRANCH   4   6
ENDBRANCH   3   4
ENDBRANCH   2   3
ENDBRANCH   1   2
BRANCH   1  22
HETATM   22  C           1     -22.068  -7.090  -1.605  0.00  0.00     0.196 C 
HETATM   23  O           1     -22.219  -7.738  -0.547  0.00  0.00    -0.646 OA
HETATM   24  O           1     -22.496  -5.919  -1.687  0.00  0.00    -0.646 OA
ENDBRANCH   1  22
BRANCH   1  25
HETATM   25  N           1     -20.965  -6.688  -3.717  0.00  0.00    -0.345 N 
HETATM   26  C           1     -21.163  -6.863  -5.059  0.00  0.00     0.249 C 
HETATM   27  O           1     -21.673  -7.879  -5.468  0.00  0.00    -0.271 OA
HETATM   28  H           1     -20.538  -5.836  -3.375  0.00  0.00     0.163 HD
BRANCH  26  29
HETATM   29  C           1     -20.745  -5.786  -6.031  0.00  0.00     0.274 C 
BRANCH  29  30
HETATM   30  C           1     -21.984  -5.122  -6.618  0.00  0.00     0.044 C 
BRANCH  30  31
HETATM   31  C           1     -21.572  -3.891  -7.414  0.00  0.00     0.023 C 
BRANCH  31  32
HETATM   32  C           1     -22.173  -3.966  -8.813  0.00  0.00     0.138 C 
BRANCH  32  33
HETATM   33  N           1     -23.590  -3.579  -8.759  0.00  0.00    -0.227 N 
HETATM   34  C           1     -24.354  -3.838  -9.734  0.00  0.00     0.665 C 
HETATM   35  N           1     -23.884  -4.444 -10.785  0.00  0.00    -0.235 N 
HETATM   36  N           1     -25.574  -3.505  -9.689  0.00  0.00    -0.235 N 
HETATM   37  H           1     -24.515  -4.658 -11.590  0.00  0.00     0.174 HD
HETATM   38  H           1     -22.876  -4.718 -10.823  0.00  0.00     0.174 HD
HETATM   39  H           1     -26.208  -3.720 -10.498  0.00  0.00     0.174 HD
HETATM   40  H           1     -25.953  -3.014  -8.841  0.00  0.00     0.174 HD
HETATM   41  H           1     -23.969  -3.090  -7.911  0.00  0.00     0.177 HD
ENDBRANCH  32  33
ENDBRANCH  31  32
ENDBRANCH  30  31
ENDBRANCH  29  30
BRANCH  29  42
HETATM   42  N           1     -19.936  -6.398  -7.136  0.00  0.00    -0.067 N 
HETATM   43  H           1     -19.228  -5.707  -7.473  0.00  0.00     0.275 HD
HETATM   44  H           1     -19.447  -7.250  -6.778  0.00  0.00     0.275 HD
HETATM   45  H           1     -20.567  -6.663  -7.925  0.00  0.00     0.275 HD
ENDBRANCH  29  42
ENDBRANCH  26  29
ENDBRANCH   1  25
TORSDOF 17
ENDMDL
MODEL 6
REMARK VINA RESULT:      -6.7     13.698     17.002
REMARK  17 active torsions:
REMARK  status: ('A' for Active; 'I' for Inactive)
REMARK    1  A    between atoms: C_1  and  C_11 
REMARK    2  A    between atoms: C_1  and  C_7 
REMARK    3  A    between atoms: C_1  and  N_23 
REMARK    4  A    between atoms: C_2  and  C_3 
REMARK    5  A    between atoms: C_2  and  C_38 
REMARK    6  A    between atoms: C_2  and  N_12 
REMARK    7  A    between atoms: C_3  and  C_4 
REMARK    8  A    between atoms: C_4  and  N_5 
REMARK    9  A    between atoms: N_5  and  C_16 
REMARK   10  A    between atoms: C_7  and  C_18 
REMARK       I    between atoms: N_8  and  C_9 
REMARK       I    between atoms: C_9  and  N_10 
REMARK       I    between atoms: C_11  and  N_12 
REMARK   11  A    between atoms: C_15  and  C_16 
REMARK   12  A    between atoms: C_16  and  C_17 
REMARK   13  A    between atoms: C_17  and  C_35 
REMARK   14  A    between atoms: C_18  and  C_28 
REMARK       I    between atoms: N_24  and  C_26 
REMARK       I    between atoms: N_25  and  C_26 
REMARK   15  A    between atoms: N_27  and  C_28 
REMARK   16  A    between atoms: N_33  and  C_34 
REMARK   17  A    between atoms: C_34  and  C_35 
ROOT
HETATM    1  C           1     -20.295  -9.794  -4.441  0.00  0.00     0.187 C 
ENDROOT
BRANCH   1   2
HETATM    2  C           1     -20.023 -10.299  -3.030  0.00  0.00     0.066 C 
BRANCH   2   3
HETATM    3  C           1     -20.300  -9.185  -2.029  0.00  0.00     0.273 C 
BRANCH   3   4
HETATM    4  N           1     -21.029  -9.717  -0.908  0.00  0.00     0.098 N 
HETATM    5  H           1     -20.571  -9.437  -0.041  0.00  0.00     0.317 HD
BRANCH   4   6
HETATM    6  C           1     -22.357  -9.167  -0.951  0.00  0.00     0.320 C 
BRANCH   6   7
HETATM    7  C           1     -22.364  -7.820  -0.271  0.00  0.00     0.207 C 
HETATM    8  O           1     -22.038  -7.723   0.932  0.00  0.00    -0.646 OA
HETATM    9  O           1     -22.697  -6.799  -0.912  0.00  0.00    -0.646 OA
ENDBRANCH   6   7
BRANCH   6  10
HETATM   10  C           1     -23.316 -10.104  -0.228  0.00  0.00     0.048 C 
BRANCH  10  11
HETATM   11  C           1     -23.798 -11.180  -1.193  0.00  0.00     0.023 C 
BRANCH  11  12
HETATM   12  C           1     -23.254 -12.535  -0.758  0.00  0.00     0.138 C 
BRANCH  12  13
HETATM   13  N           1     -23.478 -12.712   0.684  0.00  0.00    -0.227 N 
HETATM   14  C           1     -23.276 -13.841   1.222  0.00  0.00     0.665 C 
HETATM   15  N           1     -22.881 -14.816   0.518  0.00  0.00    -0.235 N 
HETATM   16  N           1     -23.474 -13.999   2.497  0.00  0.00    -0.235 N 
HETATM   17  H           1     -22.721 -14.689  -0.512  0.00  0.00     0.174 HD
HETATM   18  H           1     -22.714 -15.752   0.963  0.00  0.00     0.174 HD
HETATM   19  H           1     -23.799 -13.193   3.078  0.00  0.00     0.174 HD
HETATM   20  H           1     -23.307 -14.930   2.940  0.00  0.00     0.174 HD
HETATM   21  H           1     -23.805 -11.904   1.268  0.00  0.00     0.177 HD
ENDBRANCH  12  13
ENDBRANCH  11  12
ENDBRANCH  10  11
ENDBRANCH   6  10
ENDBRANCH   4   6
ENDBRANCH   3   4
ENDBRANCH   2   3
ENDBRANCH   1   2
BRANCH   1  22
HETATM   22  C           1     -21.183 -10.775  -5.165  0.00  0.00     0.196 C 
HETATM   23  O           1     -21.147 -10.846  -6.413  0.00  0.00    -0.646 OA
HETATM   24  O           1     -21.954 -11.516  -4.519  0.00  0.00    -0.646 OA
ENDBRANCH   1  22
BRANCH   1  25
HETATM   25  N           1     -20.955  -8.505  -4.373  0.00  0.00    -0.345 N 
HETATM   26  C           1     -20.597  -7.506  -5.238  0.00  0.00     0.249 C 
HETATM   27  O           1     -19.731  -7.699  -6.059  0.00  0.00    -0.271 OA
HETATM   28  H           1     -21.681  -8.343  -3.686  0.00  0.00     0.163 HD
BRANCH  26  29
HETATM   29  C           1     -21.284  -6.164  -5.168  0.00  0.00     0.274 C 
BRANCH  29  30
HETATM   30  C           1     -20.281  -5.061  -5.476  0.00  0.00     0.044 C 
BRANCH  30  31
HETATM   31  C           1     -20.865  -4.119  -6.520  0.00  0.00     0.023 C 
BRANCH  31  32
HETATM   32  C           1     -21.826  -4.887  -7.417  0.00  0.00     0.138 C 
BRANCH  32  33
HETATM   33  N           1     -23.019  -4.068  -7.674  0.00  0.00    -0.227 N 
HETATM   34  C           1     -23.531  -4.041  -8.831  0.00  0.00     0.665 C 
HETATM   35  N           1     -23.001  -4.736  -9.793  0.00  0.00    -0.235 N 
HETATM   36  N           1     -24.559  -3.335  -9.052  0.00  0.00    -0.235 N 
HETATM   37  H           1     -23.424  -4.713 -10.749  0.00  0.00     0.174 HD
HETATM   38  H           1     -22.152  -5.318  -9.611  0.00  0.00     0.174 HD
HETATM   39  H           1     -24.984  -3.312 -10.012  0.00  0.00     0.174 HD
HETATM   40  H           1     -24.987  -2.772  -8.276  0.00  0.00     0.174 HD
HETATM   41  H           1     -23.447  -3.506  -6.897  0.00  0.00     0.177 HD
ENDBRANCH  32  33
ENDBRANCH  31  32
ENDBRANCH  30  31
ENDBRANCH  29  30
BRANCH  29  42
HETATM   42  N           1     -21.841  -5.961  -3.790  0.00  0.00    -0.067 N 
HETATM   43  H           1     -21.056  -5.889  -3.104  0.00  0.00     0.275 HD
HETATM   44  H           1     -22.403  -5.080  -3.768  0.00  0.00     0.275 HD
HETATM   45  H           1     -22.451  -6.771  -3.537  0.00  0.00     0.275 HD
ENDBRANCH  29  42
ENDBRANCH  26  29
ENDBRANCH   1  25
TORSDOF 17
ENDMDL
MODEL 7
REMARK VINA RESULT:      -6.7     13.454     16.318
REMARK  17 active torsions:
REMARK  status: ('A' for Active; 'I' for Inactive)
REMARK    1  A    between atoms: C_1  and  C_11 
REMARK    2  A    between atoms: C_1  and  C_7 
REMARK    3  A    between atoms: C_1  and  N_23 
REMARK    4  A    between atoms: C_2  and  C_3 
REMARK    5  A    between atoms: C_2  and  C_38 
REMARK    6  A    between atoms: C_2  and  N_12 
REMARK    7  A    between atoms: C_3  and  C_4 
REMARK    8  A    between atoms: C_4  and  N_5 
REMARK    9  A    between atoms: N_5  and  C_16 
REMARK   10  A    between atoms: C_7  and  C_18 
REMARK       I    between atoms: N_8  and  C_9 
REMARK       I    between atoms: C_9  and  N_10 
REMARK       I    between atoms: C_11  and  N_12 
REMARK   11  A    between atoms: C_15  and  C_16 
REMARK   12  A    between atoms: C_16  and  C_17 
REMARK   13  A    between atoms: C_17  and  C_35 
REMARK   14  A    between atoms: C_18  and  C_28 
REMARK       I    between atoms: N_24  and  C_26 
REMARK       I    between atoms: N_25  and  C_26 
REMARK   15  A    between atoms: N_27  and  C_28 
REMARK   16  A    between atoms: N_33  and  C_34 
REMARK   17  A    between atoms: C_34  and  C_35 
ROOT
HETATM    1  C           1     -21.223  -7.711  -3.057  0.00  0.00     0.187 C 
ENDROOT
BRANCH   1   2
HETATM    2  C           1     -20.096  -8.500  -2.405  0.00  0.00     0.066 C 
BRANCH   2   3
HETATM    3  C           1     -20.046  -9.902  -2.999  0.00  0.00     0.273 C 
BRANCH   3   4
HETATM    4  N           1     -21.275 -10.172  -3.696  0.00  0.00     0.098 N 
HETATM    5  H           1     -21.075 -10.350  -4.680  0.00  0.00     0.317 HD
BRANCH   4   6
HETATM    6  C           1     -21.863 -11.344  -3.106  0.00  0.00     0.320 C 
BRANCH   6   7
HETATM    7  C           1     -22.001 -12.419  -4.156  0.00  0.00     0.207 C 
HETATM    8  O           1     -22.503 -12.147  -5.268  0.00  0.00    -0.646 OA
HETATM    9  O           1     -21.615 -13.583  -3.911  0.00  0.00    -0.646 OA
ENDBRANCH   6   7
BRANCH   6  10
HETATM   10  C           1     -23.238 -10.996  -2.551  0.00  0.00     0.048 C 
BRANCH  10  11
HETATM   11  C           1     -23.527 -11.859  -1.330  0.00  0.00     0.023 C 
BRANCH  11  12
HETATM   12  C           1     -22.305 -11.877  -0.420  0.00  0.00     0.138 C 
BRANCH  12  13
HETATM   13  N           1     -22.170 -10.573   0.245  0.00  0.00    -0.227 N 
HETATM   14  C           1     -21.055 -10.225   0.735  0.00  0.00     0.665 C 
HETATM   15  N           1     -20.057 -10.999   0.652  0.00  0.00    -0.235 N 
HETATM   16  N           1     -20.936  -9.072   1.324  0.00  0.00    -0.235 N 
HETATM   17  H           1     -20.154 -11.931   0.177  0.00  0.00     0.174 HD
HETATM   18  H           1     -19.134 -10.711   1.058  0.00  0.00     0.174 HD
HETATM   19  H           1     -21.759  -8.433   1.393  0.00  0.00     0.174 HD
HETATM   20  H           1     -20.016  -8.785   1.728  0.00  0.00     0.174 HD
HETATM   21  H           1     -22.997  -9.931   0.315  0.00  0.00     0.177 HD
ENDBRANCH  12  13
ENDBRANCH  11  12
ENDBRANCH  10  11
ENDBRANCH   6  10
ENDBRANCH   4   6
ENDBRANCH   3   4
ENDBRANCH   2   3
ENDBRANCH   1   2
BRANCH   1  22
HETATM   22  C           1     -22.072  -7.066  -1.989  0.00  0.00     0.196 C 
HETATM   23  O           1     -22.411  -7.723  -0.980  0.00  0.00    -0.646 OA
HETATM   24  O           1     -22.435  -5.877  -2.112  0.00  0.00    -0.646 OA
ENDBRANCH   1  22
BRANCH   1  25
HETATM   25  N           1     -20.662  -6.684  -3.913  0.00  0.00    -0.345 N 
HETATM   26  C           1     -20.619  -6.869  -5.268  0.00  0.00     0.249 C 
HETATM   27  O           1     -21.049  -7.889  -5.753  0.00  0.00    -0.271 OA
HETATM   28  H           1     -20.302  -5.829  -3.507  0.00  0.00     0.163 HD
BRANCH  26  29
HETATM   29  C           1     -20.036  -5.799  -6.158  0.00  0.00     0.274 C 
BRANCH  29  30
HETATM   30  C           1     -20.974  -4.600  -6.195  0.00  0.00     0.044 C 
BRANCH  30  31
HETATM   31  C           1     -22.216  -4.951  -7.004  0.00  0.00     0.023 C 
BRANCH  31  32
HETATM   32  C           1     -22.438  -3.893  -8.078  0.00  0.00     0.138 C 
BRANCH  32  33
HETATM   33  N           1     -23.878  -3.747  -8.331  0.00  0.00    -0.227 N 
HETATM   34  C           1     -24.312  -3.720  -9.521  0.00  0.00     0.665 C 
HETATM   35  N           1     -23.482  -3.818 -10.517  0.00  0.00    -0.235 N 
HETATM   36  N           1     -25.552  -3.594  -9.740  0.00  0.00    -0.235 N 
HETATM   37  H           1     -23.840  -3.795 -11.499  0.00  0.00     0.174 HD
HETATM   38  H           1     -22.458  -3.921 -10.336  0.00  0.00     0.174 HD
HETATM   39  H           1     -25.912  -3.572 -10.726  0.00  0.00     0.174 HD
HETATM   40  H           1     -26.222  -3.514  -8.935  0.00  0.00     0.174 HD
HETATM   41  H           1     -24.548  -3.668  -7.527  0.00  0.00     0.177 HD
ENDBRANCH  32  33
ENDBRANCH  31  32
ENDBRANCH  30  31
ENDBRANCH  29  30
BRANCH  29  42
HETATM   42  N           1     -19.866  -6.343  -7.546  0.00  0.00    -0.067 N 
HETATM   43  H           1     -19.993  -5.572  -8.240  0.00  0.00     0.275 HD
HETATM   44  H           1     -18.908  -6.747  -7.647  0.00  0.00     0.275 HD
HETATM   45  H           1     -20.579  -7.087  -7.719  0.00  0.00     0.275 HD
ENDBRANCH  29  42
ENDBRANCH  26  29
ENDBRANCH   1  25
TORSDOF 17
ENDMDL
MODEL 8
REMARK VINA RESULT:      -6.7     14.087     16.202
REMARK  17 active torsions:
REMARK  status: ('A' for Active; 'I' for Inactive)
REMARK    1  A    between atoms: C_1  and  C_11 
REMARK    2  A    between atoms: C_1  and  C_7 
REMARK    3  A    between atoms: C_1  and  N_23 
REMARK    4  A    between atoms: C_2  and  C_3 
REMARK    5  A    between atoms: C_2  and  C_38 
REMARK    6  A    between atoms: C_2  and  N_12 
REMARK    7  A    between atoms: C_3  and  C_4 
REMARK    8  A    between atoms: C_4  and  N_5 
REMARK    9  A    between atoms: N_5  and  C_16 
REMARK   10  A    between atoms: C_7  and  C_18 
REMARK       I    between atoms: N_8  and  C_9 
REMARK       I    between atoms: C_9  and  N_10 
REMARK       I    between atoms: C_11  and  N_12 
REMARK   11  A    between atoms: C_15  and  C_16 
REMARK   12  A    between atoms: C_16  and  C_17 
REMARK   13  A    between atoms: C_17  and  C_35 
REMARK   14  A    between atoms: C_18  and  C_28 
REMARK       I    between atoms: N_24  and  C_26 
REMARK       I    between atoms: N_25  and  C_26 
REMARK   15  A    between atoms: N_27  and  C_28 
REMARK   16  A    between atoms: N_33  and  C_34 
REMARK   17  A    between atoms: C_34  and  C_35 
ROOT
HETATM    1  C           1     -21.723  -7.878  -1.150  0.00  0.00     0.187 C 
ENDROOT
BRANCH   1   2
HETATM    2  C           1     -22.147  -6.474  -1.559  0.00  0.00     0.066 C 
BRANCH   2   3
HETATM    3  C           1     -22.289  -6.407  -3.075  0.00  0.00     0.273 C 
BRANCH   3   4
HETATM    4  N           1     -21.155  -5.721  -3.633  0.00  0.00     0.098 N 
HETATM    5  H           1     -20.299  -6.082  -3.212  0.00  0.00     0.317 HD
BRANCH   4   6
HETATM    6  C           1     -21.142  -5.978  -5.047  0.00  0.00     0.320 C 
BRANCH   6   7
HETATM    7  C           1     -20.705  -7.402  -5.294  0.00  0.00     0.207 C 
HETATM    8  O           1     -19.643  -7.827  -4.792  0.00  0.00    -0.646 OA
HETATM    9  O           1     -21.407  -8.155  -6.004  0.00  0.00    -0.646 OA
ENDBRANCH   6   7
BRANCH   6  10
HETATM   10  C           1     -20.167  -5.024  -5.726  0.00  0.00     0.048 C 
BRANCH  10  11
HETATM   11  C           1     -20.243  -5.211  -7.236  0.00  0.00     0.023 C 
BRANCH  11  12
HETATM   12  C           1     -20.682  -3.906  -7.888  0.00  0.00     0.138 C 
BRANCH  12  13
HETATM   13  N           1     -22.135  -3.745  -7.734  0.00  0.00    -0.227 N 
HETATM   14  C           1     -22.895  -3.854  -8.741  0.00  0.00     0.665 C 
HETATM   15  N           1     -22.403  -4.102  -9.881  0.00  0.00    -0.235 N 
HETATM   16  N           1     -24.180  -3.712  -8.604  0.00  0.00    -0.235 N 
HETATM   17  H           1     -21.365  -4.217  -9.991  0.00  0.00     0.174 HD
HETATM   18  H           1     -23.033  -4.192 -10.716  0.00  0.00     0.174 HD
HETATM   19  H           1     -24.585  -3.507  -7.663  0.00  0.00     0.174 HD
HETATM   20  H           1     -24.806  -3.802  -9.435  0.00  0.00     0.174 HD
HETATM   21  H           1     -22.543  -3.539  -6.789  0.00  0.00     0.177 HD
ENDBRANCH  12  13
ENDBRANCH  11  12
ENDBRANCH  10  11
ENDBRANCH   6  10
ENDBRANCH   4   6
ENDBRANCH   3   4
ENDBRANCH   2   3
ENDBRANCH   1   2
BRANCH   1  22
HETATM   22  C           1     -22.395  -8.249   0.150  0.00  0.00     0.196 C 
HETATM   23  O           1     -23.436  -8.941   0.139  0.00  0.00    -0.646 OA
HETATM   24  O           1     -21.910  -7.866   1.236  0.00  0.00    -0.646 OA
ENDBRANCH   1  22
BRANCH   1  25
HETATM   25  N           1     -22.113  -8.820  -2.180  0.00  0.00    -0.345 N 
HETATM   26  C           1     -21.279  -9.852  -2.516  0.00  0.00     0.249 C 
HETATM   27  O           1     -20.217  -9.978  -1.954  0.00  0.00    -0.271 OA
HETATM   28  H           1     -23.003  -8.715  -2.652  0.00  0.00     0.163 HD
BRANCH  26  29
HETATM   29  C           1     -21.685 -10.833  -3.589  0.00  0.00     0.274 C 
BRANCH  29  30
HETATM   30  C           1     -21.875 -12.212  -2.971  0.00  0.00     0.044 C 
BRANCH  30  31
HETATM   31  C           1     -22.988 -12.157  -1.934  0.00  0.00     0.023 C 
BRANCH  31  32
HETATM   32  C           1     -22.493 -12.758  -0.624  0.00  0.00     0.138 C 
BRANCH  32  33
HETATM   33  N           1     -22.022 -11.683   0.261  0.00  0.00    -0.227 N 
HETATM   34  C           1     -20.793 -11.594   0.550  0.00  0.00     0.665 C 
HETATM   35  N           1     -19.947 -12.454   0.065  0.00  0.00    -0.235 N 
HETATM   36  N           1     -20.387 -10.669   1.312  0.00  0.00    -0.235 N 
HETATM   37  H           1     -18.932 -12.381   0.304  0.00  0.00     0.174 HD
HETATM   38  H           1     -20.282 -13.219  -0.564  0.00  0.00     0.174 HD
HETATM   39  H           1     -19.368 -10.594   1.552  0.00  0.00     0.174 HD
HETATM   40  H           1     -21.071  -9.974   1.705  0.00  0.00     0.174 HD
HETATM   41  H           1     -22.705 -10.988   0.653  0.00  0.00     0.177 HD
ENDBRANCH  32  33
ENDBRANCH  31  32
ENDBRANCH  30  31
ENDBRANCH  29  30
BRANCH  29  42
HETATM   42  N           1     -20.614 -10.899  -4.637  0.00  0.00    -0.067 N 
HETATM   43  H           1     -20.065 -10.010  -4.630  0.00  0.00     0.275 HD
HETATM   44  H           1     -19.977 -11.702  -4.433  0.00  0.00     0.275 HD
HETATM   45  H           1     -21.053 -11.029  -5.576  0.00  0.00     0.275 HD
ENDBRANCH  29  42
ENDBRANCH  26  29
ENDBRANCH   1  25
TORSDOF 17
ENDMDL
MODEL 9
REMARK VINA RESULT:      -6.6     14.073     16.760
REMARK  17 active torsions:
REMARK  status: ('A' for Active; 'I' for Inactive)
REMARK    1  A    between atoms: C_1  and  C_11 
REMARK    2  A    between atoms: C_1  and  C_7 
REMARK    3  A    between atoms: C_1  and  N_23 
REMARK    4  A    between atoms: C_2  and  C_3 
REMARK    5  A    between atoms: C_2  and  C_38 
REMARK    6  A    between atoms: C_2  and  N_12 
REMARK    7  A    between atoms: C_3  and  C_4 
REMARK    8  A    between atoms: C_4  and  N_5 
REMARK    9  A    between atoms: N_5  and  C_16 
REMARK   10  A    between atoms: C_7  and  C_18 
REMARK       I    between atoms: N_8  and  C_9 
REMARK       I    between atoms: C_9  and  N_10 
REMARK       I    between atoms: C_11  and  N_12 
REMARK   11  A    between atoms: C_15  and  C_16 
REMARK   12  A    between atoms: C_16  and  C_17 
REMARK   13  A    between atoms: C_17  and  C_35 
REMARK   14  A    between atoms: C_18  and  C_28 
REMARK       I    between atoms: N_24  and  C_26 
REMARK       I    between atoms: N_25  and  C_26 
REMARK   15  A    between atoms: N_27  and  C_28 
REMARK   16  A    between atoms: N_33  and  C_34 
REMARK   17  A    between atoms: C_34  and  C_35 
ROOT
HETATM    1  C           1     -21.404  -7.729  -2.838  0.00  0.00     0.187 C 
ENDROOT
BRANCH   1   2
HETATM    2  C           1     -20.192  -8.575  -2.475  0.00  0.00     0.066 C 
BRANCH   2   3
HETATM    3  C           1     -20.435 -10.019  -2.896  0.00  0.00     0.273 C 
BRANCH   3   4
HETATM    4  N           1     -19.202 -10.597  -3.362  0.00  0.00     0.098 N 
HETATM    5  H           1     -19.407 -11.363  -4.003  0.00  0.00     0.317 HD
BRANCH   4   6
HETATM    6  C           1     -18.475  -9.570  -4.058  0.00  0.00     0.320 C 
BRANCH   6   7
HETATM    7  C           1     -18.674  -9.733  -5.545  0.00  0.00     0.207 C 
HETATM    8  O           1     -19.233 -10.758  -5.993  0.00  0.00    -0.646 OA
HETATM    9  O           1     -18.279  -8.844  -6.329  0.00  0.00    -0.646 OA
ENDBRANCH   6   7
BRANCH   6  10
HETATM   10  C           1     -16.993  -9.688  -3.729  0.00  0.00     0.048 C 
BRANCH  10  11
HETATM   11  C           1     -16.618 -11.159  -3.595  0.00  0.00     0.023 C 
BRANCH  11  12
HETATM   12  C           1     -15.543 -11.315  -2.528  0.00  0.00     0.138 C 
BRANCH  12  13
HETATM   13  N           1     -16.150 -11.178  -1.196  0.00  0.00    -0.227 N 
HETATM   14  C           1     -15.926 -12.051  -0.306  0.00  0.00     0.665 C 
HETATM   15  N           1     -15.179 -13.040  -0.563  0.00  0.00    -0.235 N 
HETATM   16  N           1     -16.463 -11.931   0.872  0.00  0.00    -0.235 N 
HETATM   17  H           1     -14.746 -13.138  -1.514  0.00  0.00     0.174 HD
HETATM   18  H           1     -14.994 -13.763   0.175  0.00  0.00     0.174 HD
HETATM   19  H           1     -17.079 -11.114   1.083  0.00  0.00     0.174 HD
HETATM   20  H           1     -16.278 -12.651   1.606  0.00  0.00     0.174 HD
HETATM   21  H           1     -16.769 -10.358  -0.983  0.00  0.00     0.177 HD
ENDBRANCH  12  13
ENDBRANCH  11  12
ENDBRANCH  10  11
ENDBRANCH   6  10
ENDBRANCH   4   6
ENDBRANCH   3   4
ENDBRANCH   2   3
ENDBRANCH   1   2
BRANCH   1  22
HETATM   22  C           1     -21.988  -7.120  -1.587  0.00  0.00     0.196 C 
HETATM   23  O           1     -22.071  -7.801  -0.542  0.00  0.00    -0.646 OA
HETATM   24  O           1     -22.388  -5.937  -1.595  0.00  0.00    -0.646 OA
ENDBRANCH   1  22
BRANCH   1  25
HETATM   25  N           1     -21.002  -6.672  -3.746  0.00  0.00    -0.345 N 
HETATM   26  C           1     -21.124  -6.847  -5.097  0.00  0.00     0.249 C 
HETATM   27  O           1     -21.568  -7.882  -5.536  0.00  0.00    -0.271 OA
HETATM   28  H           1     -20.630  -5.805  -3.379  0.00  0.00     0.163 HD
BRANCH  26  29
HETATM   29  C           1     -20.705  -5.746  -6.041  0.00  0.00     0.274 C 
BRANCH  29  30
HETATM   30  C           1     -21.943  -5.074  -6.621  0.00  0.00     0.044 C 
BRANCH  30  31
HETATM   31  C           1     -21.526  -3.862  -7.443  0.00  0.00     0.023 C 
BRANCH  31  32
HETATM   32  C           1     -22.151  -3.950  -8.830  0.00  0.00     0.138 C 
BRANCH  32  33
HETATM   33  N           1     -23.572  -3.583  -8.752  0.00  0.00    -0.227 N 
HETATM   34  C           1     -24.343  -3.830  -9.725  0.00  0.00     0.665 C 
HETATM   35  N           1     -23.878  -4.405 -10.794  0.00  0.00    -0.235 N 
HETATM   36  N           1     -25.567  -3.515  -9.658  0.00  0.00    -0.235 N 
HETATM   37  H           1     -24.515  -4.609 -11.597  0.00  0.00     0.174 HD
HETATM   38  H           1     -22.867  -4.665 -10.849  0.00  0.00     0.174 HD
HETATM   39  H           1     -26.207  -3.719 -10.465  0.00  0.00     0.174 HD
HETATM   40  H           1     -25.943  -3.049  -8.795  0.00  0.00     0.174 HD
HETATM   41  H           1     -23.948  -3.118  -7.889  0.00  0.00     0.177 HD
ENDBRANCH  32  33
ENDBRANCH  31  32
ENDBRANCH  30  31
ENDBRANCH  29  30
BRANCH  29  42
HETATM   42  N           1     -19.887  -6.329  -7.156  0.00  0.00    -0.067 N 
HETATM   43  H           1     -18.897  -6.009  -7.066  0.00  0.00     0.275 HD
HETATM   44  H           1     -19.921  -7.373  -7.103  0.00  0.00     0.275 HD
HETATM   45  H           1     -20.273  -6.013  -8.074  0.00  0.00     0.275 HD
ENDBRANCH  29  42
ENDBRANCH  26  29
ENDBRANCH   1  25
TORSDOF 17
ENDMDL
