MODEL 1
REMARK VINA RESULT:      -6.2      0.000      0.000
REMARK  3 active torsions:
REMARK  status: ('A' for Active; 'I' for Inactive)
REMARK    1  A    between atoms: C_1  and  C_2 
REMARK       I    between atoms: C_2  and  N_12 
REMARK    2  A    between atoms: C_4  and  C_11 
REMARK    3  A    between atoms: C_11  and  N_12 
ROOT
HETATM    1  C           1     -27.736  -5.377 -17.155  0.00  0.00     0.251 C 
HETATM    2  N           1     -27.091  -6.572 -16.990  0.00  0.00    -0.349 N 
HETATM    3  O           1     -27.442  -4.432 -16.464  0.00  0.00    -0.271 OA
HETATM    4  H           1     -27.337  -7.365 -17.569  0.00  0.00     0.163 HD
ENDROOT
BRANCH   1   5
HETATM    5  C           1     -28.815  -5.239 -18.202  0.00  0.00     0.311 C 
HETATM    6  N           1     -29.741  -6.366 -18.145  0.00  0.00     0.097 N 
HETATM    7  C           1     -30.620  -6.075 -17.016  0.00  0.00     0.271 C 
HETATM    8  H           1     -30.295  -6.423 -19.000  0.00  0.00     0.317 HD
HETATM    9  C           1     -30.879  -4.582 -17.132  0.00  0.00     0.033 C 
HETATM   10  C           1     -29.693  -4.034 -17.917  0.00  0.00     0.047 C 
ENDBRANCH   1   5
BRANCH   2  11
HETATM   11  C           1     -26.054  -6.705 -15.984  0.00  0.00     0.235 C 
BRANCH  11  12
HETATM   12  C           1     -24.801  -7.252 -16.621  0.00  0.00     0.191 C 
HETATM   13  O           1     -24.252  -8.270 -16.145  0.00  0.00    -0.647 OA
HETATM   14  O           1     -24.313  -6.691 -17.625  0.00  0.00    -0.647 OA
ENDBRANCH  11  12
ENDBRANCH   2  11
TORSDOF 3
ENDMDL
MODEL 2
REMARK VINA RESULT:      -5.8      9.118     10.486
REMARK  3 active torsions:
REMARK  status: ('A' for Active; 'I' for Inactive)
REMARK    1  A    between atoms: C_1  and  C_2 
REMARK       I    between atoms: C_2  and  N_12 
REMARK    2  A    between atoms: C_4  and  C_11 
REMARK    3  A    between atoms: C_11  and  N_12 
ROOT
HETATM    1  C           1     -35.321  -1.836 -11.374  0.00  0.00     0.251 C 
HETATM    2  N           1     -34.623  -0.827 -11.981  0.00  0.00    -0.349 N 
HETATM    3  O           1     -36.528  -1.844 -11.415  0.00  0.00    -0.271 OA
HETATM    4  H           1     -33.611  -0.820 -11.946  0.00  0.00     0.163 HD
ENDROOT
BRANCH   1   5
HETATM    5  C           1     -34.584  -2.938 -10.654  0.00  0.00     0.311 C 
HETATM    6  N           1     -35.135  -4.245 -11.000  0.00  0.00     0.097 N 
HETATM    7  C           1     -34.577  -4.554 -12.313  0.00  0.00     0.271 C 
HETATM    8  H           1     -34.837  -4.953 -10.329  0.00  0.00     0.317 HD
HETATM    9  C           1     -33.137  -4.079 -12.217  0.00  0.00     0.033 C 
HETATM   10  C           1     -33.141  -3.018 -11.122  0.00  0.00     0.047 C 
ENDBRANCH   1   5
BRANCH   2  11
HETATM   11  C           1     -35.332   0.232 -12.672  0.00  0.00     0.235 C 
BRANCH  11  12
HETATM   12  C           1     -35.344  -0.053 -14.154  0.00  0.00     0.191 C 
HETATM   13  O           1     -36.236  -0.780 -14.642  0.00  0.00    -0.647 OA
HETATM   14  O           1     -34.464   0.437 -14.892  0.00  0.00    -0.647 OA
ENDBRANCH  11  12
ENDBRANCH   2  11
TORSDOF 3
ENDMDL
MODEL 3
REMARK VINA RESULT:      -5.7      9.786     11.760
REMARK  3 active torsions:
REMARK  status: ('A' for Active; 'I' for Inactive)
REMARK    1  A    between atoms: C_1  and  C_2 
REMARK       I    between atoms: C_2  and  N_12 
REMARK    2  A    between atoms: C_4  and  C_11 
REMARK    3  A    between atoms: C_11  and  N_12 
ROOT
HETATM    1  C           1     -22.373  -4.246  -7.153  0.00  0.00     0.251 C 
HETATM    2  N           1     -22.659  -3.812  -8.419  0.00  0.00    -0.349 N 
HETATM    3  O           1     -23.228  -4.786  -6.492  0.00  0.00    -0.271 OA
HETATM    4  H           1     -21.943  -3.360  -8.973  0.00  0.00     0.163 HD
ENDROOT
BRANCH   1   5
HETATM    5  C           1     -20.990  -4.052  -6.582  0.00  0.00     0.311 C 
HETATM    6  N           1     -20.705  -5.051  -5.557  0.00  0.00     0.097 N 
HETATM    7  C           1     -20.370  -6.265  -6.296  0.00  0.00     0.271 C 
HETATM    8  H           1     -19.907  -4.769  -4.987  0.00  0.00     0.317 HD
HETATM    9  C           1     -19.524  -5.763  -7.454  0.00  0.00     0.033 C 
HETATM   10  C           1     -19.929  -4.305  -7.639  0.00  0.00     0.047 C 
ENDBRANCH   1   5
BRANCH   2  11
HETATM   11  C           1     -23.989  -3.998  -8.967  0.00  0.00     0.235 C 
BRANCH  11  12
HETATM   12  C           1     -24.040  -3.437 -10.366  0.00  0.00     0.191 C 
HETATM   13  O           1     -22.980  -3.221 -10.992  0.00  0.00    -0.647 OA
HETATM   14  O           1     -25.142  -3.189 -10.900  0.00  0.00    -0.647 OA
ENDBRANCH  11  12
ENDBRANCH   2  11
TORSDOF 3
ENDMDL
MODEL 4
REMARK VINA RESULT:      -5.2      6.311      8.296
REMARK  3 active torsions:
REMARK  status: ('A' for Active; 'I' for Inactive)
REMARK    1  A    between atoms: C_1  and  C_2 
REMARK       I    between atoms: C_2  and  N_12 
REMARK    2  A    between atoms: C_4  and  C_11 
REMARK    3  A    between atoms: C_11  and  N_12 
ROOT
HETATM    1  C           1     -34.218  -3.194 -13.405  0.00  0.00     0.251 C 
HETATM    2  N           1     -33.740  -4.216 -14.180  0.00  0.00    -0.349 N 
HETATM    3  O           1     -34.993  -2.393 -13.873  0.00  0.00    -0.271 OA
HETATM    4  H           1     -33.092  -4.887 -13.788  0.00  0.00     0.163 HD
ENDROOT
BRANCH   1   5
HETATM    5  C           1     -33.779  -3.066 -11.967  0.00  0.00     0.311 C 
HETATM    6  N           1     -34.933  -2.979 -11.077  0.00  0.00     0.097 N 
HETATM    7  C           1     -35.412  -4.352 -10.944  0.00  0.00     0.271 C 
HETATM    8  H           1     -34.657  -2.625 -10.161  0.00  0.00     0.317 HD
HETATM    9  C           1     -34.138  -5.173 -10.839  0.00  0.00     0.033 C 
HETATM   10  C           1     -33.062  -4.324 -11.508  0.00  0.00     0.047 C 
ENDBRANCH   1   5
BRANCH   2  11
HETATM   11  C           1     -34.162  -4.337 -15.562  0.00  0.00     0.235 C 
BRANCH  11  12
HETATM   12  C           1     -33.038  -3.907 -16.472  0.00  0.00     0.191 C 
HETATM   13  O           1     -31.908  -4.430 -16.360  0.00  0.00    -0.647 OA
HETATM   14  O           1     -33.237  -3.029 -17.339  0.00  0.00    -0.647 OA
ENDBRANCH  11  12
ENDBRANCH   2  11
TORSDOF 3
ENDMDL
MODEL 5
REMARK VINA RESULT:      -5.0     19.362     20.733
REMARK  3 active torsions:
REMARK  status: ('A' for Active; 'I' for Inactive)
REMARK    1  A    between atoms: C_1  and  C_2 
REMARK       I    between atoms: C_2  and  N_12 
REMARK    2  A    between atoms: C_4  and  C_11 
REMARK    3  A    between atoms: C_11  and  N_12 
ROOT
HETATM    1  C           1     -12.410   5.995 -19.940  0.00  0.00     0.251 C 
HETATM    2  N           1     -11.328   6.782 -20.228  0.00  0.00    -0.349 N 
HETATM    3  O           1     -13.504   6.492 -19.820  0.00  0.00    -0.271 OA
HETATM    4  H           1     -10.411   6.366 -20.328  0.00  0.00     0.163 HD
ENDROOT
BRANCH   1   5
HETATM    5  C           1     -12.236   4.505 -19.773  0.00  0.00     0.311 C 
HETATM    6  N           1     -13.174   3.774 -20.619  0.00  0.00     0.097 N 
HETATM    7  C           1     -12.590   3.822 -21.957  0.00  0.00     0.271 C 
HETATM    8  H           1     -13.253   2.803 -20.318  0.00  0.00     0.317 HD
HETATM    9  C           1     -11.105   3.615 -21.713  0.00  0.00     0.033 C 
HETATM   10  C           1     -10.874   4.060 -20.274  0.00  0.00     0.047 C 
ENDBRANCH   1   5
BRANCH   2  11
HETATM   11  C           1     -11.495   8.214 -20.388  0.00  0.00     0.235 C 
BRANCH  11  12
HETATM   12  C           1     -10.386   8.935 -19.661  0.00  0.00     0.191 C 
HETATM   13  O           1     -10.237   8.772 -18.430  0.00  0.00    -0.647 OA
HETATM   14  O           1      -9.617   9.693 -20.289  0.00  0.00    -0.647 OA
ENDBRANCH  11  12
ENDBRANCH   2  11
TORSDOF 3
ENDMDL
MODEL 6
REMARK VINA RESULT:      -4.8     11.558     13.246
REMARK  3 active torsions:
REMARK  status: ('A' for Active; 'I' for Inactive)
REMARK    1  A    between atoms: C_1  and  C_2 
REMARK       I    between atoms: C_2  and  N_12 
REMARK    2  A    between atoms: C_4  and  C_11 
REMARK    3  A    between atoms: C_11  and  N_12 
ROOT
HETATM    1  C           1     -20.565  -5.792  -6.466  0.00  0.00     0.251 C 
HETATM    2  N           1     -21.534  -5.766  -5.500  0.00  0.00    -0.349 N 
HETATM    3  O           1     -19.990  -6.824  -6.716  0.00  0.00    -0.271 OA
HETATM    4  H           1     -22.016  -4.901  -5.290  0.00  0.00     0.163 HD
ENDROOT
BRANCH   1   5
HETATM    5  C           1     -20.213  -4.532  -7.217  0.00  0.00     0.311 C 
HETATM    6  N           1     -20.116  -4.791  -8.650  0.00  0.00     0.097 N 
HETATM    7  C           1     -21.498  -4.839  -9.120  0.00  0.00     0.271 C 
HETATM    8  H           1     -19.623  -4.034  -9.123  0.00  0.00     0.317 HD
HETATM    9  C           1     -22.179  -3.714  -8.359  0.00  0.00     0.033 C 
HETATM   10  C           1     -21.330  -3.509  -7.109  0.00  0.00     0.047 C 
ENDBRANCH   1   5
BRANCH   2  11
HETATM   11  C           1     -21.872  -6.977  -4.777  0.00  0.00     0.235 C 
BRANCH  11  12
HETATM   12  C           1     -21.695  -6.746  -3.297  0.00  0.00     0.191 C 
HETATM   13  O           1     -20.801  -7.356  -2.672  0.00  0.00    -0.647 OA
HETATM   14  O           1     -22.442  -5.945  -2.696  0.00  0.00    -0.647 OA
ENDBRANCH  11  12
ENDBRANCH   2  11
TORSDOF 3
ENDMDL
MODEL 7
REMARK VINA RESULT:      -4.7      9.476     11.316
REMARK  3 active torsions:
REMARK  status: ('A' for Active; 'I' for Inactive)
REMARK    1  A    between atoms: C_1  and  C_2 
REMARK       I    between atoms: C_2  and  N_12 
REMARK    2  A    between atoms: C_4  and  C_11 
REMARK    3  A    between atoms: C_11  and  N_12 
ROOT
HETATM    1  C           1     -21.521  -4.483  -8.642  0.00  0.00     0.251 C 
HETATM    2  N           1     -20.493  -4.145  -9.481  0.00  0.00    -0.349 N 
HETATM    3  O           1     -22.463  -5.109  -9.065  0.00  0.00    -0.271 OA
HETATM    4  H           1     -19.703  -3.620  -9.127  0.00  0.00     0.163 HD
ENDROOT
BRANCH   1   5
HETATM    5  C           1     -21.477  -4.074  -7.191  0.00  0.00     0.311 C 
HETATM    6  N           1     -22.341  -4.929  -6.383  0.00  0.00     0.097 N 
HETATM    7  C           1     -21.580  -6.161  -6.193  0.00  0.00     0.271 C 
HETATM    8  H           1     -22.528  -4.502  -5.476  0.00  0.00     0.317 HD
HETATM    9  C           1     -20.160  -5.678  -5.954  0.00  0.00     0.033 C 
HETATM   10  C           1     -20.094  -4.302  -6.607  0.00  0.00     0.047 C 
ENDBRANCH   1   5
BRANCH   2  11
HETATM   11  C           1     -20.535  -4.537 -10.876  0.00  0.00     0.235 C 
BRANCH  11  12
HETATM   12  C           1     -21.545  -3.688 -11.608  0.00  0.00     0.191 C 
HETATM   13  O           1     -22.462  -4.231 -12.261  0.00  0.00    -0.647 OA
HETATM   14  O           1     -21.465  -2.442 -11.561  0.00  0.00    -0.647 OA
ENDBRANCH  11  12
ENDBRANCH   2  11
TORSDOF 3
ENDMDL
MODEL 8
REMARK VINA RESULT:      -4.7      9.325     10.825
REMARK  3 active torsions:
REMARK  status: ('A' for Active; 'I' for Inactive)
REMARK    1  A    between atoms: C_1  and  C_2 
REMARK       I    between atoms: C_2  and  N_12 
REMARK    2  A    between atoms: C_4  and  C_11 
REMARK    3  A    between atoms: C_11  and  N_12 
ROOT
HETATM    1  C           1     -21.307  -4.390  -8.715  0.00  0.00     0.251 C 
HETATM    2  N           1     -21.579  -5.115  -7.586  0.00  0.00    -0.349 N 
HETATM    3  O           1     -20.223  -4.478  -9.241  0.00  0.00    -0.271 OA
HETATM    4  H           1     -22.488  -5.041  -7.145  0.00  0.00     0.163 HD
ENDROOT
BRANCH   1   5
HETATM    5  C           1     -22.359  -3.483  -9.303  0.00  0.00     0.311 C 
HETATM    6  N           1     -22.282  -3.473 -10.760  0.00  0.00     0.097 N 
HETATM    7  C           1     -22.931  -4.711 -11.180  0.00  0.00     0.271 C 
HETATM    8  H           1     -22.789  -2.676 -11.145  0.00  0.00     0.317 HD
HETATM    9  C           1     -24.128  -4.828 -10.251  0.00  0.00     0.033 C 
HETATM   10  C           1     -23.752  -4.015  -9.017  0.00  0.00     0.047 C 
ENDBRANCH   1   5
BRANCH   2  11
HETATM   11  C           1     -20.568  -5.987  -7.021  0.00  0.00     0.235 C 
BRANCH  11  12
HETATM   12  C           1     -21.176  -6.813  -5.915  0.00  0.00     0.191 C 
HETATM   13  O           1     -21.587  -6.258  -4.873  0.00  0.00    -0.647 OA
HETATM   14  O           1     -21.271  -8.053  -6.041  0.00  0.00    -0.647 OA
ENDBRANCH  11  12
ENDBRANCH   2  11
TORSDOF 3
ENDMDL
MODEL 9
REMARK VINA RESULT:      -4.7     13.088     14.738
REMARK  3 active torsions:
REMARK  status: ('A' for Active; 'I' for Inactive)
REMARK    1  A    between atoms: C_1  and  C_2 
REMARK       I    between atoms: C_2  and  N_12 
REMARK    2  A    between atoms: C_4  and  C_11 
REMARK    3  A    between atoms: C_11  and  N_12 
ROOT
HETATM    1  C           1     -21.541  -6.189  -4.556  0.00  0.00     0.251 C 
HETATM    2  N           1     -21.194  -6.086  -3.236  0.00  0.00    -0.349 N 
HETATM    3  O           1     -22.701  -6.319  -4.866  0.00  0.00    -0.271 OA
HETATM    4  H           1     -20.221  -5.977  -2.976  0.00  0.00     0.163 HD
ENDROOT
BRANCH   1   5
HETATM    5  C           1     -20.476  -6.141  -5.623  0.00  0.00     0.311 C 
HETATM    6  N           1     -21.043  -6.431  -6.937  0.00  0.00     0.097 N 
HETATM    7  C           1     -21.694  -5.191  -7.349  0.00  0.00     0.271 C 
HETATM    8  H           1     -20.308  -6.667  -7.604  0.00  0.00     0.317 HD
HETATM    9  C           1     -20.727  -4.107  -6.903  0.00  0.00     0.033 C 
HETATM   10  C           1     -19.922  -4.735  -5.771  0.00  0.00     0.047 C 
ENDBRANCH   1   5
BRANCH   2  11
HETATM   11  C           1     -22.217  -6.133  -2.210  0.00  0.00     0.235 C 
BRANCH  11  12
HETATM   12  C           1     -21.995  -7.338  -1.330  0.00  0.00     0.191 C 
HETATM   13  O           1     -22.218  -7.266  -0.102  0.00  0.00    -0.647 OA
HETATM   14  O           1     -21.589  -8.410  -1.830  0.00  0.00    -0.647 OA
ENDBRANCH  11  12
ENDBRANCH   2  11
TORSDOF 3
ENDMDL
