MODEL 1
REMARK VINA RESULT:      -6.3      0.000      0.000
REMARK  16 active torsions:
REMARK  status: ('A' for Active; 'I' for Inactive)
REMARK    1  A    between atoms: C_5  and  C_19 
REMARK    2  A    between atoms: C_5  and  C_6 
REMARK    3  A    between atoms: C_6  and  C_7 
REMARK    4  A    between atoms: C_7  and  N_8 
REMARK       I    between atoms: N_8  and  C_9 
REMARK       I    between atoms: C_9  and  N_10 
REMARK    5  A    between atoms: N_12  and  C_19 
REMARK    6  A    between atoms: C_13  and  C_20 
REMARK    7  A    between atoms: C_13  and  C_14 
REMARK    8  A    between atoms: C_13  and  N_28 
REMARK    9  A    between atoms: C_19  and  C_29 
REMARK   10  A    between atoms: C_20  and  C_21 
REMARK   11  A    between atoms: C_21  and  S_22 
REMARK   12  A    between atoms: C_24  and  C_25 
REMARK   13  A    between atoms: C_25  and  C_26 
REMARK   14  A    between atoms: C_25  and  N_30 
REMARK   15  A    between atoms: C_26  and  C_27 
REMARK   16  A    between atoms: C_27  and  N_28 
REMARK       I    between atoms: C_29  and  N_30 
ROOT
HETATM    1  O           1     -19.476  -6.909  -6.856  0.00  0.00    -0.271 OA
HETATM    2  H           1     -21.268  -7.976  -4.512  0.00  0.00     0.163 HD
HETATM    3  C           1     -20.414  -6.952  -6.096  0.00  0.00     0.249 C 
HETATM    4  N           1     -20.483  -7.939  -5.149  0.00  0.00    -0.345 N 
ENDROOT
BRANCH   3   5
HETATM    5  C           1     -21.509  -5.918  -6.188  0.00  0.00     0.274 C 
BRANCH   5   6
HETATM    6  C           1     -20.895  -4.525  -6.172  0.00  0.00     0.044 C 
BRANCH   6   7
HETATM    7  C           1     -21.518  -3.681  -7.275  0.00  0.00     0.023 C 
BRANCH   7   8
HETATM    8  C           1     -22.373  -4.567  -8.172  0.00  0.00     0.138 C 
BRANCH   8   9
HETATM    9  N           1     -23.691  -3.944  -8.363  0.00  0.00    -0.227 N 
HETATM   10  C           1     -24.257  -3.996  -9.494  0.00  0.00     0.665 C 
HETATM   11  N           1     -25.392  -3.460  -9.659  0.00  0.00    -0.235 N 
HETATM   12  N           1     -23.673  -4.599 -10.487  0.00  0.00    -0.235 N 
HETATM   13  H           1     -25.862  -3.503 -10.597  0.00  0.00     0.174 HD
HETATM   14  H           1     -25.864  -2.973  -8.858  0.00  0.00     0.174 HD
HETATM   15  H           1     -24.140  -4.641 -11.420  0.00  0.00     0.174 HD
HETATM   16  H           1     -22.736  -5.041 -10.350  0.00  0.00     0.174 HD
HETATM   17  H           1     -24.163  -3.458  -7.561  0.00  0.00     0.177 HD
ENDBRANCH   8   9
ENDBRANCH   7   8
ENDBRANCH   6   7
ENDBRANCH   5   6
BRANCH   5  18
HETATM   18  N           1     -22.437  -6.068  -5.019  0.00  0.00    -0.067 N 
HETATM   19  H           1     -21.878  -6.169  -4.141  0.00  0.00     0.275 HD
HETATM   20  H           1     -23.046  -5.222  -4.948  0.00  0.00     0.275 HD
HETATM   21  H           1     -23.031  -6.917  -5.152  0.00  0.00     0.275 HD
ENDBRANCH   5  18
ENDBRANCH   3   5
BRANCH   4  22
HETATM   22  C           1     -19.430  -8.933  -5.060  0.00  0.00     0.187 C 
BRANCH  22  23
HETATM   23  C           1     -19.955 -10.264  -5.540  0.00  0.00     0.196 C 
HETATM   24  O           1     -19.187 -11.247  -5.618  0.00  0.00    -0.646 OA
HETATM   25  O           1     -21.156 -10.383  -5.862  0.00  0.00    -0.646 OA
ENDBRANCH  22  23
BRANCH  22  26
HETATM   26  C           1     -18.973  -9.059  -3.613  0.00  0.00     0.066 C 
BRANCH  26  27
HETATM   27  C           1     -20.073  -9.709  -2.786  0.00  0.00     0.273 C 
BRANCH  27  28
HETATM   28  N           1     -20.320  -8.919  -1.610  0.00  0.00     0.098 N 
HETATM   29  H           1     -19.756  -8.069  -1.646  0.00  0.00     0.317 HD
BRANCH  28  30
HETATM   30  C           1     -21.715  -8.570  -1.602  0.00  0.00     0.321 C 
BRANCH  30  31
HETATM   31  C           1     -22.354  -9.066  -0.313  0.00  0.00     0.057 C 
BRANCH  31  32
HETATM   32  C           1     -23.056 -10.393  -0.571  0.00  0.00     0.076 C 
BRANCH  32  33
HETATM   33  S           1     -22.003 -11.756   0.000  0.00  0.00    -0.173 SA
HETATM   34  C           1     -23.341 -12.758   0.708  0.00  0.00     0.089 C 
ENDBRANCH  32  33
ENDBRANCH  31  32
ENDBRANCH  30  31
BRANCH  30  35
HETATM   35  C           1     -21.857  -7.070  -1.691  0.00  0.00     0.207 C 
HETATM   36  O           1     -22.655  -6.473  -0.937  0.00  0.00    -0.646 OA
HETATM   37  O           1     -21.178  -6.426  -2.520  0.00  0.00    -0.646 OA
ENDBRANCH  30  35
ENDBRANCH  28  30
ENDBRANCH  27  28
ENDBRANCH  26  27
ENDBRANCH  22  26
ENDBRANCH   4  22
TORSDOF 16
ENDMDL
MODEL 2
REMARK VINA RESULT:      -6.1      2.271      4.486
REMARK  16 active torsions:
REMARK  status: ('A' for Active; 'I' for Inactive)
REMARK    1  A    between atoms: C_5  and  C_19 
REMARK    2  A    between atoms: C_5  and  C_6 
REMARK    3  A    between atoms: C_6  and  C_7 
REMARK    4  A    between atoms: C_7  and  N_8 
REMARK       I    between atoms: N_8  and  C_9 
REMARK       I    between atoms: C_9  and  N_10 
REMARK    5  A    between atoms: N_12  and  C_19 
REMARK    6  A    between atoms: C_13  and  C_20 
REMARK    7  A    between atoms: C_13  and  C_14 
REMARK    8  A    between atoms: C_13  and  N_28 
REMARK    9  A    between atoms: C_19  and  C_29 
REMARK   10  A    between atoms: C_20  and  C_21 
REMARK   11  A    between atoms: C_21  and  S_22 
REMARK   12  A    between atoms: C_24  and  C_25 
REMARK   13  A    between atoms: C_25  and  C_26 
REMARK   14  A    between atoms: C_25  and  N_30 
REMARK   15  A    between atoms: C_26  and  C_27 
REMARK   16  A    between atoms: C_27  and  N_28 
REMARK       I    between atoms: C_29  and  N_30 
ROOT
HETATM    1  O           1     -21.576  -7.935  -5.422  0.00  0.00    -0.271 OA
HETATM    2  H           1     -20.639  -5.716  -3.412  0.00  0.00     0.163 HD
HETATM    3  C           1     -21.132  -6.872  -5.057  0.00  0.00     0.249 C 
HETATM    4  N           1     -21.009  -6.605  -3.719  0.00  0.00    -0.345 N 
ENDROOT
BRANCH   3   5
HETATM    5  C           1     -20.714  -5.839  -6.073  0.00  0.00     0.274 C 
BRANCH   5   6
HETATM    6  C           1     -21.948  -5.134  -6.618  0.00  0.00     0.044 C 
BRANCH   6   7
HETATM    7  C           1     -21.526  -3.891  -7.389  0.00  0.00     0.023 C 
BRANCH   7   8
HETATM    8  C           1     -22.119  -3.935  -8.792  0.00  0.00     0.138 C 
BRANCH   8   9
HETATM    9  N           1     -23.536  -3.551  -8.737  0.00  0.00    -0.227 N 
HETATM   10  C           1     -24.316  -3.872  -9.681  0.00  0.00     0.665 C 
HETATM   11  N           1     -25.537  -3.542  -9.634  0.00  0.00    -0.235 N 
HETATM   12  N           1     -23.863  -4.543 -10.699  0.00  0.00    -0.235 N 
HETATM   13  H           1     -26.184  -3.809 -10.417  0.00  0.00     0.174 HD
HETATM   14  H           1     -25.903  -3.001  -8.812  0.00  0.00     0.174 HD
HETATM   15  H           1     -24.506  -4.808 -11.478  0.00  0.00     0.174 HD
HETATM   16  H           1     -22.855  -4.815 -10.737  0.00  0.00     0.174 HD
HETATM   17  H           1     -23.902  -3.010  -7.915  0.00  0.00     0.177 HD
ENDBRANCH   8   9
ENDBRANCH   7   8
ENDBRANCH   6   7
ENDBRANCH   5   6
BRANCH   5  18
HETATM   18  N           1     -19.986  -6.513  -7.199  0.00  0.00    -0.067 N 
HETATM   19  H           1     -20.679  -6.934  -7.860  0.00  0.00     0.275 HD
HETATM   20  H           1     -19.405  -5.808  -7.708  0.00  0.00     0.275 HD
HETATM   21  H           1     -19.370  -7.264  -6.816  0.00  0.00     0.275 HD
ENDBRANCH   5  18
ENDBRANCH   3   5
BRANCH   4  22
HETATM   22  C           1     -21.412  -7.598  -2.742  0.00  0.00     0.187 C 
BRANCH  22  23
HETATM   23  C           1     -22.065  -6.912  -1.567  0.00  0.00     0.196 C 
HETATM   24  O           1     -22.471  -5.735  -1.678  0.00  0.00    -0.646 OA
HETATM   25  O           1     -22.199  -7.520  -0.484  0.00  0.00    -0.646 OA
ENDBRANCH  22  23
BRANCH  22  26
HETATM   26  C           1     -20.186  -8.366  -2.265  0.00  0.00     0.066 C 
BRANCH  26  27
HETATM   27  C           1     -20.299  -9.822  -2.695  0.00  0.00     0.273 C 
BRANCH  27  28
HETATM   28  N           1     -18.983 -10.378  -2.855  0.00  0.00     0.098 N 
HETATM   29  H           1     -19.054 -11.309  -3.267  0.00  0.00     0.317 HD
BRANCH  28  30
HETATM   30  C           1     -18.248  -9.516  -3.741  0.00  0.00     0.321 C 
BRANCH  30  31
HETATM   31  C           1     -16.761  -9.624  -3.435  0.00  0.00     0.057 C 
BRANCH  31  32
HETATM   32  C           1     -16.540 -10.661  -2.341  0.00  0.00     0.076 C 
BRANCH  32  33
HETATM   33  S           1     -15.783 -12.147  -3.059  0.00  0.00    -0.173 SA
HETATM   34  C           1     -15.111 -11.334  -4.536  0.00  0.00     0.089 C 
ENDBRANCH  32  33
ENDBRANCH  31  32
ENDBRANCH  30  31
BRANCH  30  35
HETATM   35  C           1     -18.501  -9.932  -5.169  0.00  0.00     0.207 C 
HETATM   36  O           1     -18.555  -9.068  -6.071  0.00  0.00    -0.646 OA
HETATM   37  O           1     -18.657 -11.140  -5.451  0.00  0.00    -0.646 OA
ENDBRANCH  30  35
ENDBRANCH  28  30
ENDBRANCH  27  28
ENDBRANCH  26  27
ENDBRANCH  22  26
ENDBRANCH   4  22
TORSDOF 16
ENDMDL
MODEL 3
REMARK VINA RESULT:      -5.9      2.263      4.181
REMARK  16 active torsions:
REMARK  status: ('A' for Active; 'I' for Inactive)
REMARK    1  A    between atoms: C_5  and  C_19 
REMARK    2  A    between atoms: C_5  and  C_6 
REMARK    3  A    between atoms: C_6  and  C_7 
REMARK    4  A    between atoms: C_7  and  N_8 
REMARK       I    between atoms: N_8  and  C_9 
REMARK       I    between atoms: C_9  and  N_10 
REMARK    5  A    between atoms: N_12  and  C_19 
REMARK    6  A    between atoms: C_13  and  C_20 
REMARK    7  A    between atoms: C_13  and  C_14 
REMARK    8  A    between atoms: C_13  and  N_28 
REMARK    9  A    between atoms: C_19  and  C_29 
REMARK   10  A    between atoms: C_20  and  C_21 
REMARK   11  A    between atoms: C_21  and  S_22 
REMARK   12  A    between atoms: C_24  and  C_25 
REMARK   13  A    between atoms: C_25  and  C_26 
REMARK   14  A    between atoms: C_25  and  N_30 
REMARK   15  A    between atoms: C_26  and  C_27 
REMARK   16  A    between atoms: C_27  and  N_28 
REMARK       I    between atoms: C_29  and  N_30 
ROOT
HETATM    1  O           1     -21.959  -7.682  -5.188  0.00  0.00    -0.271 OA
HETATM    2  H           1     -20.306  -5.816  -3.283  0.00  0.00     0.163 HD
HETATM    3  C           1     -21.256  -6.754  -4.865  0.00  0.00     0.249 C 
HETATM    4  N           1     -20.893  -6.593  -3.554  0.00  0.00    -0.345 N 
ENDROOT
BRANCH   3   5
HETATM    5  C           1     -20.778  -5.771  -5.905  0.00  0.00     0.274 C 
BRANCH   5   6
HETATM    6  C           1     -21.978  -5.096  -6.556  0.00  0.00     0.044 C 
BRANCH   6   7
HETATM    7  C           1     -21.517  -3.861  -7.317  0.00  0.00     0.023 C 
BRANCH   7   8
HETATM    8  C           1     -22.082  -3.893  -8.731  0.00  0.00     0.138 C 
BRANCH   8   9
HETATM    9  N           1     -23.516  -3.572  -8.694  0.00  0.00    -0.227 N 
HETATM   10  C           1     -24.260  -3.886  -9.669  0.00  0.00     0.665 C 
HETATM   11  N           1     -25.495  -3.610  -9.637  0.00  0.00    -0.235 N 
HETATM   12  N           1     -23.756  -4.492 -10.703  0.00  0.00    -0.235 N 
HETATM   13  H           1     -26.113  -3.871 -10.445  0.00  0.00     0.174 HD
HETATM   14  H           1     -25.902  -3.121  -8.802  0.00  0.00     0.174 HD
HETATM   15  H           1     -24.370  -4.750 -11.507  0.00  0.00     0.174 HD
HETATM   16  H           1     -22.736  -4.719 -10.729  0.00  0.00     0.174 HD
HETATM   17  H           1     -23.923  -3.084  -7.859  0.00  0.00     0.177 HD
ENDBRANCH   8   9
ENDBRANCH   7   8
ENDBRANCH   6   7
ENDBRANCH   5   6
BRANCH   5  18
HETATM   18  N           1     -19.985  -6.497  -6.952  0.00  0.00    -0.067 N 
HETATM   19  H           1     -19.970  -5.933  -7.831  0.00  0.00     0.275 HD
HETATM   20  H           1     -19.008  -6.638  -6.611  0.00  0.00     0.275 HD
HETATM   21  H           1     -20.427  -7.425  -7.141  0.00  0.00     0.275 HD
ENDBRANCH   5  18
ENDBRANCH   3   5
BRANCH   4  22
HETATM   22  C           1     -21.353  -7.538  -2.554  0.00  0.00     0.187 C 
BRANCH  22  23
HETATM   23  C           1     -22.156  -6.808  -1.505  0.00  0.00     0.196 C 
HETATM   24  O           1     -22.452  -5.605  -1.669  0.00  0.00    -0.646 OA
HETATM   25  O           1     -22.523  -7.407  -0.471  0.00  0.00    -0.646 OA
ENDBRANCH  22  23
BRANCH  22  26
HETATM   26  C           1     -20.153  -8.209  -1.901  0.00  0.00     0.066 C 
BRANCH  26  27
HETATM   27  C           1     -20.259  -9.718  -2.069  0.00  0.00     0.273 C 
BRANCH  27  28
HETATM   28  N           1     -20.453 -10.033  -3.458  0.00  0.00     0.098 N 
HETATM   29  H           1     -20.568  -9.170  -3.991  0.00  0.00     0.317 HD
BRANCH  28  30
HETATM   30  C           1     -19.281 -10.727  -3.918  0.00  0.00     0.321 C 
BRANCH  30  31
HETATM   31  C           1     -19.697 -11.983  -4.672  0.00  0.00     0.057 C 
BRANCH  31  32
HETATM   32  C           1     -21.199 -11.950  -4.924  0.00  0.00     0.076 C 
BRANCH  32  33
HETATM   33  S           1     -21.515 -12.003  -6.710  0.00  0.00    -0.173 SA
HETATM   34  C           1     -21.209 -13.780  -6.914  0.00  0.00     0.089 C 
ENDBRANCH  32  33
ENDBRANCH  31  32
ENDBRANCH  30  31
BRANCH  30  35
HETATM   35  C           1     -18.492  -9.827  -4.836  0.00  0.00     0.207 C 
HETATM   36  O           1     -17.276  -9.626  -4.622  0.00  0.00    -0.646 OA
HETATM   37  O           1     -19.053  -9.280  -5.810  0.00  0.00    -0.646 OA
ENDBRANCH  30  35
ENDBRANCH  28  30
ENDBRANCH  27  28
ENDBRANCH  26  27
ENDBRANCH  22  26
ENDBRANCH   4  22
TORSDOF 16
ENDMDL
MODEL 4
REMARK VINA RESULT:      -5.9      2.057      2.805
REMARK  16 active torsions:
REMARK  status: ('A' for Active; 'I' for Inactive)
REMARK    1  A    between atoms: C_5  and  C_19 
REMARK    2  A    between atoms: C_5  and  C_6 
REMARK    3  A    between atoms: C_6  and  C_7 
REMARK    4  A    between atoms: C_7  and  N_8 
REMARK       I    between atoms: N_8  and  C_9 
REMARK       I    between atoms: C_9  and  N_10 
REMARK    5  A    between atoms: N_12  and  C_19 
REMARK    6  A    between atoms: C_13  and  C_20 
REMARK    7  A    between atoms: C_13  and  C_14 
REMARK    8  A    between atoms: C_13  and  N_28 
REMARK    9  A    between atoms: C_19  and  C_29 
REMARK   10  A    between atoms: C_20  and  C_21 
REMARK   11  A    between atoms: C_21  and  S_22 
REMARK   12  A    between atoms: C_24  and  C_25 
REMARK   13  A    between atoms: C_25  and  C_26 
REMARK   14  A    between atoms: C_25  and  N_30 
REMARK   15  A    between atoms: C_26  and  C_27 
REMARK   16  A    between atoms: C_27  and  N_28 
REMARK       I    between atoms: C_29  and  N_30 
ROOT
HETATM    1  O           1     -22.660  -5.900  -5.350  0.00  0.00    -0.271 OA
HETATM    2  H           1     -19.833  -7.137  -4.783  0.00  0.00     0.163 HD
HETATM    3  C           1     -21.472  -6.081  -5.478  0.00  0.00     0.249 C 
HETATM    4  N           1     -20.827  -6.986  -4.677  0.00  0.00    -0.345 N 
ENDROOT
BRANCH   3   5
HETATM    5  C           1     -20.699  -5.310  -6.518  0.00  0.00     0.274 C 
BRANCH   5   6
HETATM    6  C           1     -21.668  -4.527  -7.395  0.00  0.00     0.044 C 
BRANCH   6   7
HETATM    7  C           1     -20.962  -4.095  -8.672  0.00  0.00     0.023 C 
BRANCH   7   8
HETATM    8  C           1     -21.955  -4.093  -9.827  0.00  0.00     0.138 C 
BRANCH   8   9
HETATM    9  N           1     -23.273  -3.662  -9.341  0.00  0.00    -0.227 N 
HETATM   10  C           1     -24.310  -3.903 -10.026  0.00  0.00     0.665 C 
HETATM   11  N           1     -25.445  -3.533  -9.606  0.00  0.00    -0.235 N 
HETATM   12  N           1     -24.209  -4.533 -11.159  0.00  0.00    -0.235 N 
HETATM   13  H           1     -26.306  -3.734 -10.174  0.00  0.00     0.174 HD
HETATM   14  H           1     -25.527  -3.025  -8.692  0.00  0.00     0.174 HD
HETATM   15  H           1     -25.064  -4.732 -11.724  0.00  0.00     0.174 HD
HETATM   16  H           1     -23.271  -4.839 -11.504  0.00  0.00     0.174 HD
HETATM   17  H           1     -23.354  -3.155  -8.426  0.00  0.00     0.177 HD
ENDBRANCH   8   9
ENDBRANCH   7   8
ENDBRANCH   6   7
ENDBRANCH   5   6
BRANCH   5  18
HETATM   18  N           1     -19.917  -6.267  -7.370  0.00  0.00    -0.067 N 
HETATM   19  H           1     -20.577  -6.882  -7.898  0.00  0.00     0.275 HD
HETATM   20  H           1     -19.327  -5.729  -8.044  0.00  0.00     0.275 HD
HETATM   21  H           1     -19.305  -6.855  -6.761  0.00  0.00     0.275 HD
ENDBRANCH   5  18
ENDBRANCH   3   5
BRANCH   4  22
HETATM   22  C           1     -21.571  -7.727  -3.676  0.00  0.00     0.187 C 
BRANCH  22  23
HETATM   23  C           1     -21.356  -7.096  -2.322  0.00  0.00     0.196 C 
HETATM   24  O           1     -20.414  -7.481  -1.596  0.00  0.00    -0.646 OA
HETATM   25  O           1     -22.121  -6.190  -1.926  0.00  0.00    -0.646 OA
ENDBRANCH  22  23
BRANCH  22  26
HETATM   26  C           1     -21.084  -9.169  -3.648  0.00  0.00     0.066 C 
BRANCH  26  27
HETATM   27  C           1     -22.202 -10.073  -3.145  0.00  0.00     0.273 C 
BRANCH  27  28
HETATM   28  N           1     -21.904 -10.505  -1.806  0.00  0.00     0.098 N 
HETATM   29  H           1     -21.104  -9.981  -1.449  0.00  0.00     0.317 HD
BRANCH  28  30
HETATM   30  C           1     -23.057 -10.233  -0.992  0.00  0.00     0.321 C 
BRANCH  30  31
HETATM   31  C           1     -23.584 -11.537  -0.408  0.00  0.00     0.057 C 
BRANCH  31  32
HETATM   32  C           1     -22.555 -12.641  -0.618  0.00  0.00     0.076 C 
BRANCH  32  33
HETATM   33  S           1     -21.787 -13.063   0.971  0.00  0.00    -0.173 SA
HETATM   34  C           1     -23.289 -13.723   1.748  0.00  0.00     0.089 C 
ENDBRANCH  32  33
ENDBRANCH  31  32
ENDBRANCH  30  31
BRANCH  30  35
HETATM   35  C           1     -22.673  -9.299   0.128  0.00  0.00     0.207 C 
HETATM   36  O           1     -21.589  -9.458   0.730  0.00  0.00    -0.646 OA
HETATM   37  O           1     -23.438  -8.366   0.455  0.00  0.00    -0.646 OA
ENDBRANCH  30  35
ENDBRANCH  28  30
ENDBRANCH  27  28
ENDBRANCH  26  27
ENDBRANCH  22  26
ENDBRANCH   4  22
TORSDOF 16
ENDMDL
MODEL 5
REMARK VINA RESULT:      -5.8      1.658      3.568
REMARK  16 active torsions:
REMARK  status: ('A' for Active; 'I' for Inactive)
REMARK    1  A    between atoms: C_5  and  C_19 
REMARK    2  A    between atoms: C_5  and  C_6 
REMARK    3  A    between atoms: C_6  and  C_7 
REMARK    4  A    between atoms: C_7  and  N_8 
REMARK       I    between atoms: N_8  and  C_9 
REMARK       I    between atoms: C_9  and  N_10 
REMARK    5  A    between atoms: N_12  and  C_19 
REMARK    6  A    between atoms: C_13  and  C_20 
REMARK    7  A    between atoms: C_13  and  C_14 
REMARK    8  A    between atoms: C_13  and  N_28 
REMARK    9  A    between atoms: C_19  and  C_29 
REMARK   10  A    between atoms: C_20  and  C_21 
REMARK   11  A    between atoms: C_21  and  S_22 
REMARK   12  A    between atoms: C_24  and  C_25 
REMARK   13  A    between atoms: C_25  and  C_26 
REMARK   14  A    between atoms: C_25  and  N_30 
REMARK   15  A    between atoms: C_26  and  C_27 
REMARK   16  A    between atoms: C_27  and  N_28 
REMARK       I    between atoms: C_29  and  N_30 
ROOT
HETATM    1  O           1     -21.915  -7.607  -5.433  0.00  0.00    -0.271 OA
HETATM    2  H           1     -20.246  -5.877  -3.417  0.00  0.00     0.163 HD
HETATM    3  C           1     -21.216  -6.698  -5.051  0.00  0.00     0.249 C 
HETATM    4  N           1     -20.830  -6.638  -3.739  0.00  0.00    -0.345 N 
ENDROOT
BRANCH   3   5
HETATM    5  C           1     -20.771  -5.629  -6.018  0.00  0.00     0.274 C 
BRANCH   5   6
HETATM    6  C           1     -21.991  -4.997  -6.674  0.00  0.00     0.044 C 
BRANCH   6   7
HETATM    7  C           1     -21.562  -3.776  -7.475  0.00  0.00     0.023 C 
BRANCH   7   8
HETATM    8  C           1     -22.149  -3.854  -8.878  0.00  0.00     0.138 C 
BRANCH   8   9
HETATM    9  N           1     -23.571  -3.484  -8.836  0.00  0.00    -0.227 N 
HETATM   10  C           1     -24.359  -3.895  -9.738  0.00  0.00     0.665 C 
HETATM   11  N           1     -25.583  -3.577  -9.702  0.00  0.00    -0.235 N 
HETATM   12  N           1     -23.910  -4.645 -10.701  0.00  0.00    -0.235 N 
HETATM   13  H           1     -26.237  -3.918 -10.450  0.00  0.00     0.174 HD
HETATM   14  H           1     -25.946  -2.972  -8.925  0.00  0.00     0.174 HD
HETATM   15  H           1     -24.560  -4.984 -11.445  0.00  0.00     0.174 HD
HETATM   16  H           1     -22.898  -4.908 -10.730  0.00  0.00     0.174 HD
HETATM   17  H           1     -23.933  -2.880  -8.059  0.00  0.00     0.177 HD
ENDBRANCH   8   9
ENDBRANCH   7   8
ENDBRANCH   6   7
ENDBRANCH   5   6
BRANCH   5  18
HETATM   18  N           1     -19.898  -6.243  -7.073  0.00  0.00    -0.067 N 
HETATM   19  H           1     -20.412  -7.026  -7.539  0.00  0.00     0.275 HD
HETATM   20  H           1     -19.651  -5.518  -7.784  0.00  0.00     0.275 HD
HETATM   21  H           1     -19.027  -6.613  -6.633  0.00  0.00     0.275 HD
ENDBRANCH   5  18
ENDBRANCH   3   5
BRANCH   4  22
HETATM   22  C           1     -21.259  -7.665  -2.809  0.00  0.00     0.187 C 
BRANCH  22  23
HETATM   23  C           1     -21.969  -7.023  -1.643  0.00  0.00     0.196 C 
HETATM   24  O           1     -21.916  -7.551  -0.511  0.00  0.00    -0.646 OA
HETATM   25  O           1     -22.610  -5.963  -1.808  0.00  0.00    -0.646 OA
ENDBRANCH  22  23
BRANCH  22  26
HETATM   26  C           1     -20.043  -8.432  -2.305  0.00  0.00     0.066 C 
BRANCH  26  27
HETATM   27  C           1     -20.078  -9.854  -2.847  0.00  0.00     0.273 C 
BRANCH  27  28
HETATM   28  N           1     -21.092  -9.956  -3.861  0.00  0.00     0.098 N 
HETATM   29  H           1     -20.741  -9.562  -4.735  0.00  0.00     0.317 HD
BRANCH  28  30
HETATM   30  C           1     -21.384 -11.351  -4.049  0.00  0.00     0.321 C 
BRANCH  30  31
HETATM   31  C           1     -22.656 -11.710  -3.291  0.00  0.00     0.057 C 
BRANCH  31  32
HETATM   32  C           1     -22.365 -12.845  -2.318  0.00  0.00     0.076 C 
BRANCH  32  33
HETATM   33  S           1     -22.365 -12.204  -0.621  0.00  0.00    -0.173 SA
HETATM   34  C           1     -23.412 -10.759  -0.954  0.00  0.00     0.089 C 
ENDBRANCH  32  33
ENDBRANCH  31  32
ENDBRANCH  30  31
BRANCH  30  35
HETATM   35  C           1     -21.578 -11.631  -5.519  0.00  0.00     0.207 C 
HETATM   36  O           1     -22.153 -12.679  -5.885  0.00  0.00    -0.646 OA
HETATM   37  O           1     -21.164 -10.814  -6.371  0.00  0.00    -0.646 OA
ENDBRANCH  30  35
ENDBRANCH  28  30
ENDBRANCH  27  28
ENDBRANCH  26  27
ENDBRANCH  22  26
ENDBRANCH   4  22
TORSDOF 16
ENDMDL
MODEL 6
REMARK VINA RESULT:      -5.8      1.544      1.943
REMARK  16 active torsions:
REMARK  status: ('A' for Active; 'I' for Inactive)
REMARK    1  A    between atoms: C_5  and  C_19 
REMARK    2  A    between atoms: C_5  and  C_6 
REMARK    3  A    between atoms: C_6  and  C_7 
REMARK    4  A    between atoms: C_7  and  N_8 
REMARK       I    between atoms: N_8  and  C_9 
REMARK       I    between atoms: C_9  and  N_10 
REMARK    5  A    between atoms: N_12  and  C_19 
REMARK    6  A    between atoms: C_13  and  C_20 
REMARK    7  A    between atoms: C_13  and  C_14 
REMARK    8  A    between atoms: C_13  and  N_28 
REMARK    9  A    between atoms: C_19  and  C_29 
REMARK   10  A    between atoms: C_20  and  C_21 
REMARK   11  A    between atoms: C_21  and  S_22 
REMARK   12  A    between atoms: C_24  and  C_25 
REMARK   13  A    between atoms: C_25  and  C_26 
REMARK   14  A    between atoms: C_25  and  N_30 
REMARK   15  A    between atoms: C_26  and  C_27 
REMARK   16  A    between atoms: C_27  and  N_28 
REMARK       I    between atoms: C_29  and  N_30 
ROOT
HETATM    1  O           1     -20.895  -6.179  -4.392  0.00  0.00    -0.271 OA
HETATM    2  H           1     -19.576  -7.800  -6.731  0.00  0.00     0.163 HD
HETATM    3  C           1     -20.460  -6.392  -5.499  0.00  0.00     0.249 C 
HETATM    4  N           1     -19.941  -7.621  -5.805  0.00  0.00    -0.345 N 
ENDROOT
BRANCH   3   5
HETATM    5  C           1     -20.488  -5.304  -6.543  0.00  0.00     0.274 C 
BRANCH   5   6
HETATM    6  C           1     -21.907  -4.769  -6.682  0.00  0.00     0.044 C 
BRANCH   6   7
HETATM    7  C           1     -21.983  -3.831  -7.878  0.00  0.00     0.023 C 
BRANCH   7   8
HETATM    8  C           1     -23.280  -4.078  -8.638  0.00  0.00     0.138 C 
BRANCH   8   9
HETATM    9  N           1     -22.979  -4.716  -9.927  0.00  0.00    -0.227 N 
HETATM   10  C           1     -23.742  -4.529 -10.920  0.00  0.00     0.665 C 
HETATM   11  N           1     -23.483  -5.077 -12.031  0.00  0.00    -0.235 N 
HETATM   12  N           1     -24.792  -3.771 -10.798  0.00  0.00    -0.235 N 
HETATM   13  H           1     -24.116  -4.922 -12.854  0.00  0.00     0.174 HD
HETATM   14  H           1     -22.636  -5.689 -12.129  0.00  0.00     0.174 HD
HETATM   15  H           1     -25.422  -3.617 -11.617  0.00  0.00     0.174 HD
HETATM   16  H           1     -25.006  -3.318  -9.881  0.00  0.00     0.174 HD
HETATM   17  H           1     -22.131  -5.327 -10.026  0.00  0.00     0.177 HD
ENDBRANCH   8   9
ENDBRANCH   7   8
ENDBRANCH   6   7
ENDBRANCH   5   6
BRANCH   5  18
HETATM   18  N           1     -20.036  -5.865  -7.860  0.00  0.00    -0.067 N 
HETATM   19  H           1     -19.489  -6.740  -7.697  0.00  0.00     0.275 HD
HETATM   20  H           1     -20.871  -6.081  -8.450  0.00  0.00     0.275 HD
HETATM   21  H           1     -19.435  -5.164  -8.348  0.00  0.00     0.275 HD
ENDBRANCH   5  18
ENDBRANCH   3   5
BRANCH   4  22
HETATM   22  C           1     -19.913  -8.667  -4.800  0.00  0.00     0.187 C 
BRANCH  22  23
HETATM   23  C           1     -18.686  -9.522  -4.998  0.00  0.00     0.196 C 
HETATM   24  O           1     -18.385  -9.929  -6.141  0.00  0.00    -0.646 OA
HETATM   25  O           1     -17.970  -9.825  -4.020  0.00  0.00    -0.646 OA
ENDBRANCH  22  23
BRANCH  22  26
HETATM   26  C           1     -21.161  -9.530  -4.933  0.00  0.00     0.066 C 
BRANCH  26  27
HETATM   27  C           1     -21.795  -9.722  -3.562  0.00  0.00     0.273 C 
BRANCH  27  28
HETATM   28  N           1     -21.440  -8.619  -2.711  0.00  0.00     0.098 N 
HETATM   29  H           1     -21.885  -7.766  -3.053  0.00  0.00     0.317 HD
BRANCH  28  30
HETATM   30  C           1     -21.922  -8.913  -1.389  0.00  0.00     0.321 C 
BRANCH  30  31
HETATM   31  C           1     -20.873  -9.718  -0.634  0.00  0.00     0.057 C 
BRANCH  31  32
HETATM   32  C           1     -21.563 -10.678   0.328  0.00  0.00     0.076 C 
BRANCH  32  33
HETATM   33  S           1     -23.123 -11.249  -0.402  0.00  0.00    -0.173 SA
HETATM   34  C           1     -23.304 -12.722   0.642  0.00  0.00     0.089 C 
ENDBRANCH  32  33
ENDBRANCH  31  32
ENDBRANCH  30  31
BRANCH  30  35
HETATM   35  C           1     -22.193  -7.624  -0.654  0.00  0.00     0.207 C 
HETATM   36  O           1     -22.621  -6.628  -1.276  0.00  0.00    -0.646 OA
HETATM   37  O           1     -21.988  -7.551   0.578  0.00  0.00    -0.646 OA
ENDBRANCH  30  35
ENDBRANCH  28  30
ENDBRANCH  27  28
ENDBRANCH  26  27
ENDBRANCH  22  26
ENDBRANCH   4  22
TORSDOF 16
ENDMDL
MODEL 7
REMARK VINA RESULT:      -5.6      2.579      4.607
REMARK  16 active torsions:
REMARK  status: ('A' for Active; 'I' for Inactive)
REMARK    1  A    between atoms: C_5  and  C_19 
REMARK    2  A    between atoms: C_5  and  C_6 
REMARK    3  A    between atoms: C_6  and  C_7 
REMARK    4  A    between atoms: C_7  and  N_8 
REMARK       I    between atoms: N_8  and  C_9 
REMARK       I    between atoms: C_9  and  N_10 
REMARK    5  A    between atoms: N_12  and  C_19 
REMARK    6  A    between atoms: C_13  and  C_20 
REMARK    7  A    between atoms: C_13  and  C_14 
REMARK    8  A    between atoms: C_13  and  N_28 
REMARK    9  A    between atoms: C_19  and  C_29 
REMARK   10  A    between atoms: C_20  and  C_21 
REMARK   11  A    between atoms: C_21  and  S_22 
REMARK   12  A    between atoms: C_24  and  C_25 
REMARK   13  A    between atoms: C_25  and  C_26 
REMARK   14  A    between atoms: C_25  and  N_30 
REMARK   15  A    between atoms: C_26  and  C_27 
REMARK   16  A    between atoms: C_27  and  N_28 
REMARK       I    between atoms: C_29  and  N_30 
ROOT
HETATM    1  O           1     -22.806  -6.425  -5.055  0.00  0.00    -0.271 OA
HETATM    2  H           1     -19.982  -7.247  -3.964  0.00  0.00     0.163 HD
HETATM    3  C           1     -21.601  -6.498  -5.015  0.00  0.00     0.249 C 
HETATM    4  N           1     -20.991  -7.185  -3.999  0.00  0.00    -0.345 N 
ENDROOT
BRANCH   3   5
HETATM    5  C           1     -20.767  -5.833  -6.082  0.00  0.00     0.274 C 
BRANCH   5   6
HETATM    6  C           1     -21.642  -5.521  -7.288  0.00  0.00     0.044 C 
BRANCH   6   7
HETATM    7  C           1     -21.781  -4.012  -7.439  0.00  0.00     0.023 C 
BRANCH   7   8
HETATM    8  C           1     -22.273  -3.683  -8.842  0.00  0.00     0.138 C 
BRANCH   8   9
HETATM    9  N           1     -23.714  -3.397  -8.802  0.00  0.00    -0.227 N 
HETATM   10  C           1     -24.461  -3.777  -9.751  0.00  0.00     0.665 C 
HETATM   11  N           1     -25.703  -3.531  -9.716  0.00  0.00    -0.235 N 
HETATM   12  N           1     -23.954  -4.420 -10.760  0.00  0.00    -0.235 N 
HETATM   13  H           1     -26.323  -3.846 -10.503  0.00  0.00     0.174 HD
HETATM   14  H           1     -26.113  -3.012  -8.901  0.00  0.00     0.174 HD
HETATM   15  H           1     -24.570  -4.733 -11.543  0.00  0.00     0.174 HD
HETATM   16  H           1     -22.929  -4.623 -10.788  0.00  0.00     0.174 HD
HETATM   17  H           1     -24.124  -2.878  -7.987  0.00  0.00     0.177 HD
ENDBRANCH   8   9
ENDBRANCH   7   8
ENDBRANCH   6   7
ENDBRANCH   5   6
BRANCH   5  18
HETATM   18  N           1     -19.658  -6.755  -6.495  0.00  0.00    -0.067 N 
HETATM   19  H           1     -18.747  -6.243  -6.458  0.00  0.00     0.275 HD
HETATM   20  H           1     -19.625  -7.572  -5.845  0.00  0.00     0.275 HD
HETATM   21  H           1     -19.828  -7.090  -7.470  0.00  0.00     0.275 HD
ENDBRANCH   5  18
ENDBRANCH   3   5
BRANCH   4  22
HETATM   22  C           1     -21.792  -7.825  -2.973  0.00  0.00     0.187 C 
BRANCH  22  23
HETATM   23  C           1     -21.864  -6.929  -1.761  0.00  0.00     0.196 C 
HETATM   24  O           1     -21.562  -7.377  -0.634  0.00  0.00    -0.646 OA
HETATM   25  O           1     -22.227  -5.739  -1.884  0.00  0.00    -0.646 OA
ENDBRANCH  22  23
BRANCH  22  26
HETATM   26  C           1     -21.155  -9.153  -2.586  0.00  0.00     0.066 C 
BRANCH  26  27
HETATM   27  C           1     -19.734  -9.213  -3.130  0.00  0.00     0.273 C 
BRANCH  27  28
HETATM   28  N           1     -19.072 -10.380  -2.615  0.00  0.00     0.098 N 
HETATM   29  H           1     -19.687 -11.189  -2.706  0.00  0.00     0.317 HD
BRANCH  28  30
HETATM   30  C           1     -17.884 -10.590  -3.397  0.00  0.00     0.321 C 
BRANCH  30  31
HETATM   31  C           1     -17.905  -9.667  -4.608  0.00  0.00     0.057 C 
BRANCH  31  32
HETATM   32  C           1     -17.540 -10.460  -5.857  0.00  0.00     0.076 C 
BRANCH  32  33
HETATM   33  S           1     -18.305 -12.104  -5.776  0.00  0.00    -0.173 SA
HETATM   34  C           1     -17.929 -12.583  -7.486  0.00  0.00     0.089 C 
ENDBRANCH  32  33
ENDBRANCH  31  32
ENDBRANCH  30  31
BRANCH  30  35
HETATM   35  C           1     -16.669 -10.290  -2.555  0.00  0.00     0.207 C 
HETATM   36  O           1     -15.959  -9.294  -2.815  0.00  0.00    -0.646 OA
HETATM   37  O           1     -16.370 -11.037  -1.599  0.00  0.00    -0.646 OA
ENDBRANCH  30  35
ENDBRANCH  28  30
ENDBRANCH  27  28
ENDBRANCH  26  27
ENDBRANCH  22  26
ENDBRANCH   4  22
TORSDOF 16
ENDMDL
MODEL 8
REMARK VINA RESULT:      -5.6      1.918      2.392
REMARK  16 active torsions:
REMARK  status: ('A' for Active; 'I' for Inactive)
REMARK    1  A    between atoms: C_5  and  C_19 
REMARK    2  A    between atoms: C_5  and  C_6 
REMARK    3  A    between atoms: C_6  and  C_7 
REMARK    4  A    between atoms: C_7  and  N_8 
REMARK       I    between atoms: N_8  and  C_9 
REMARK       I    between atoms: C_9  and  N_10 
REMARK    5  A    between atoms: N_12  and  C_19 
REMARK    6  A    between atoms: C_13  and  C_20 
REMARK    7  A    between atoms: C_13  and  C_14 
REMARK    8  A    between atoms: C_13  and  N_28 
REMARK    9  A    between atoms: C_19  and  C_29 
REMARK   10  A    between atoms: C_20  and  C_21 
REMARK   11  A    between atoms: C_21  and  S_22 
REMARK   12  A    between atoms: C_24  and  C_25 
REMARK   13  A    between atoms: C_25  and  C_26 
REMARK   14  A    between atoms: C_25  and  N_30 
REMARK   15  A    between atoms: C_26  and  C_27 
REMARK   16  A    between atoms: C_27  and  N_28 
REMARK       I    between atoms: C_29  and  N_30 
ROOT
HETATM    1  O           1     -19.560  -7.250  -6.346  0.00  0.00    -0.271 OA
HETATM    2  H           1     -21.615  -7.640  -4.008  0.00  0.00     0.163 HD
HETATM    3  C           1     -20.545  -7.046  -5.678  0.00  0.00     0.249 C 
HETATM    4  N           1     -20.790  -7.809  -4.568  0.00  0.00    -0.345 N 
ENDROOT
BRANCH   3   5
HETATM    5  C           1     -21.508  -5.951  -6.066  0.00  0.00     0.274 C 
BRANCH   5   6
HETATM    6  C           1     -20.766  -4.622  -6.131  0.00  0.00     0.044 C 
BRANCH   6   7
HETATM    7  C           1     -21.336  -3.776  -7.261  0.00  0.00     0.023 C 
BRANCH   7   8
HETATM    8  C           1     -21.537  -4.644  -8.496  0.00  0.00     0.138 C 
BRANCH   8   9
HETATM    9  N           1     -20.702  -4.136  -9.594  0.00  0.00    -0.227 N 
HETATM   10  C           1     -21.245  -3.690 -10.647  0.00  0.00     0.665 C 
HETATM   11  N           1     -20.527  -3.251 -11.593  0.00  0.00    -0.235 N 
HETATM   12  N           1     -22.541  -3.682 -10.757  0.00  0.00    -0.235 N 
HETATM   13  H           1     -20.977  -2.881 -12.466  0.00  0.00     0.174 HD
HETATM   14  H           1     -19.481  -3.258 -11.504  0.00  0.00     0.174 HD
HETATM   15  H           1     -22.988  -3.314 -11.627  0.00  0.00     0.174 HD
HETATM   16  H           1     -23.134  -4.044  -9.977  0.00  0.00     0.174 HD
HETATM   17  H           1     -19.657  -4.142  -9.504  0.00  0.00     0.177 HD
ENDBRANCH   8   9
ENDBRANCH   7   8
ENDBRANCH   6   7
ENDBRANCH   5   6
BRANCH   5  18
HETATM   18  N           1     -22.602  -5.862  -5.043  0.00  0.00    -0.067 N 
HETATM   19  H           1     -22.922  -4.870  -4.960  0.00  0.00     0.275 HD
HETATM   20  H           1     -23.403  -6.463  -5.338  0.00  0.00     0.275 HD
HETATM   21  H           1     -22.241  -6.189  -4.118  0.00  0.00     0.275 HD
ENDBRANCH   5  18
ENDBRANCH   3   5
BRANCH   4  22
HETATM   22  C           1     -19.864  -8.862  -4.195  0.00  0.00     0.187 C 
BRANCH  22  23
HETATM   23  C           1     -20.311 -10.165  -4.812  0.00  0.00     0.196 C 
HETATM   24  O           1     -19.787 -10.565  -5.874  0.00  0.00    -0.646 OA
HETATM   25  O           1     -21.204 -10.844  -4.262  0.00  0.00    -0.646 OA
ENDBRANCH  22  23
BRANCH  22  26
HETATM   26  C           1     -19.839  -9.001  -2.678  0.00  0.00     0.066 C 
BRANCH  26  27
HETATM   27  C           1     -20.895  -8.091  -2.067  0.00  0.00     0.273 C 
BRANCH  27  28
HETATM   28  N           1     -20.916  -8.271  -0.640  0.00  0.00     0.098 N 
HETATM   29  H           1     -21.445  -7.513  -0.208  0.00  0.00     0.317 HD
BRANCH  28  30
HETATM   30  C           1     -21.566  -9.525  -0.367  0.00  0.00     0.321 C 
BRANCH  30  31
HETATM   31  C           1     -20.838 -10.237   0.764  0.00  0.00     0.057 C 
BRANCH  31  32
HETATM   32  C           1     -20.630 -11.700   0.393  0.00  0.00     0.076 C 
BRANCH  32  33
HETATM   33  S           1     -18.913 -11.951  -0.140  0.00  0.00    -0.173 SA
HETATM   34  C           1     -19.309 -12.598  -1.789  0.00  0.00     0.089 C 
ENDBRANCH  32  33
ENDBRANCH  31  32
ENDBRANCH  30  31
BRANCH  30  35
HETATM   35  C           1     -22.997  -9.271   0.035  0.00  0.00     0.207 C 
HETATM   36  O           1     -23.323  -8.166   0.521  0.00  0.00    -0.646 OA
HETATM   37  O           1     -23.857 -10.166  -0.115  0.00  0.00    -0.646 OA
ENDBRANCH  30  35
ENDBRANCH  28  30
ENDBRANCH  27  28
ENDBRANCH  26  27
ENDBRANCH  22  26
ENDBRANCH   4  22
TORSDOF 16
ENDMDL
MODEL 9
REMARK VINA RESULT:      -5.6      2.363      3.732
REMARK  16 active torsions:
REMARK  status: ('A' for Active; 'I' for Inactive)
REMARK    1  A    between atoms: C_5  and  C_19 
REMARK    2  A    between atoms: C_5  and  C_6 
REMARK    3  A    between atoms: C_6  and  C_7 
REMARK    4  A    between atoms: C_7  and  N_8 
REMARK       I    between atoms: N_8  and  C_9 
REMARK       I    between atoms: C_9  and  N_10 
REMARK    5  A    between atoms: N_12  and  C_19 
REMARK    6  A    between atoms: C_13  and  C_20 
REMARK    7  A    between atoms: C_13  and  C_14 
REMARK    8  A    between atoms: C_13  and  N_28 
REMARK    9  A    between atoms: C_19  and  C_29 
REMARK   10  A    between atoms: C_20  and  C_21 
REMARK   11  A    between atoms: C_21  and  S_22 
REMARK   12  A    between atoms: C_24  and  C_25 
REMARK   13  A    between atoms: C_25  and  C_26 
REMARK   14  A    between atoms: C_25  and  N_30 
REMARK   15  A    between atoms: C_26  and  C_27 
REMARK   16  A    between atoms: C_27  and  N_28 
REMARK       I    between atoms: C_29  and  N_30 
ROOT
HETATM    1  O           1     -21.349  -7.857  -5.476  0.00  0.00    -0.271 OA
HETATM    2  H           1     -20.725  -5.570  -3.421  0.00  0.00     0.163 HD
HETATM    3  C           1     -21.016  -6.762  -5.088  0.00  0.00     0.249 C 
HETATM    4  N           1     -21.003  -6.486  -3.747  0.00  0.00    -0.345 N 
ENDROOT
BRANCH   3   5
HETATM    5  C           1     -20.613  -5.699  -6.080  0.00  0.00     0.274 C 
BRANCH   5   6
HETATM    6  C           1     -21.861  -5.041  -6.653  0.00  0.00     0.044 C 
BRANCH   6   7
HETATM    7  C           1     -21.827  -5.123  -8.173  0.00  0.00     0.023 C 
BRANCH   7   8
HETATM    8  C           1     -22.192  -3.768  -8.765  0.00  0.00     0.138 C 
BRANCH   8   9
HETATM    9  N           1     -23.646  -3.572  -8.680  0.00  0.00    -0.227 N 
HETATM   10  C           1     -24.371  -3.757  -9.702  0.00  0.00     0.665 C 
HETATM   11  N           1     -25.623  -3.589  -9.629  0.00  0.00    -0.235 N 
HETATM   12  N           1     -23.828  -4.121 -10.826  0.00  0.00    -0.235 N 
HETATM   13  H           1     -26.224  -3.742 -10.477  0.00  0.00     0.174 HD
HETATM   14  H           1     -26.061  -3.294  -8.722  0.00  0.00     0.174 HD
HETATM   15  H           1     -24.425  -4.274 -11.669  0.00  0.00     0.174 HD
HETATM   16  H           1     -22.794  -4.260 -10.886  0.00  0.00     0.174 HD
HETATM   17  H           1     -24.084  -3.278  -7.773  0.00  0.00     0.177 HD
ENDBRANCH   8   9
ENDBRANCH   7   8
ENDBRANCH   6   7
ENDBRANCH   5   6
BRANCH   5  18
HETATM   18  N           1     -19.825  -6.327  -7.192  0.00  0.00    -0.067 N 
HETATM   19  H           1     -20.154  -5.949  -8.109  0.00  0.00     0.275 HD
HETATM   20  H           1     -18.811  -6.105  -7.067  0.00  0.00     0.275 HD
HETATM   21  H           1     -19.961  -7.363  -7.174  0.00  0.00     0.275 HD
ENDBRANCH   5  18
ENDBRANCH   3   5
BRANCH   4  22
HETATM   22  C           1     -21.390  -7.508  -2.793  0.00  0.00     0.187 C 
BRANCH  22  23
HETATM   23  C           1     -22.134  -6.869  -1.646  0.00  0.00     0.196 C 
HETATM   24  O           1     -22.464  -7.555  -0.655  0.00  0.00    -0.646 OA
HETATM   25  O           1     -22.420  -5.653  -1.687  0.00  0.00    -0.646 OA
ENDBRANCH  22  23
BRANCH  22  26
HETATM   26  C           1     -20.144  -8.207  -2.265  0.00  0.00     0.066 C 
BRANCH  26  27
HETATM   27  C           1     -20.261  -9.705  -2.506  0.00  0.00     0.273 C 
BRANCH  27  28
HETATM   28  N           1     -21.023 -10.304  -1.444  0.00  0.00     0.098 N 
HETATM   29  H           1     -21.265  -9.593  -0.754  0.00  0.00     0.317 HD
BRANCH  28  30
HETATM   30  C           1     -22.226 -10.842  -2.019  0.00  0.00     0.321 C 
BRANCH  30  31
HETATM   31  C           1     -21.879 -12.038  -2.896  0.00  0.00     0.057 C 
BRANCH  31  32
HETATM   32  C           1     -22.559 -11.888  -4.252  0.00  0.00     0.076 C 
BRANCH  32  33
HETATM   33  S           1     -22.573 -13.491  -5.102  0.00  0.00    -0.173 SA
HETATM   34  C           1     -21.577 -12.970  -6.527  0.00  0.00     0.089 C 
ENDBRANCH  32  33
ENDBRANCH  31  32
ENDBRANCH  30  31
BRANCH  30  35
HETATM   35  C           1     -23.157 -11.281  -0.915  0.00  0.00     0.207 C 
HETATM   36  O           1     -22.723 -11.425   0.248  0.00  0.00    -0.646 OA
HETATM   37  O           1     -24.362 -11.503  -1.165  0.00  0.00    -0.646 OA
ENDBRANCH  30  35
ENDBRANCH  28  30
ENDBRANCH  27  28
ENDBRANCH  26  27
ENDBRANCH  22  26
ENDBRANCH   4  22
TORSDOF 16
ENDMDL
