MODEL 1
REMARK VINA RESULT:      -6.1      0.000      0.000
REMARK  8 active torsions:
REMARK  status: ('A' for Active; 'I' for Inactive)
REMARK    1  A    between atoms: N_1  and  C_16 
REMARK       I    between atoms: N_1  and  C_3 
REMARK    2  A    between atoms: C_3  and  C_18 
REMARK    3  A    between atoms: C_10  and  C_16 
REMARK    4  A    between atoms: C_13  and  C_15 
REMARK    5  A    between atoms: C_15  and  C_16 
REMARK    6  A    between atoms: C_17  and  C_19 
REMARK    7  A    between atoms: C_18  and  C_19 
REMARK    8  A    between atoms: C_18  and  N_20 
ROOT
HETATM    1  N           1     -22.891  -4.532  -8.672  0.00  0.00    -0.344 N 
HETATM    2  C           1     -22.173  -4.172  -7.564  0.00  0.00     0.249 C 
HETATM    3  O           1     -21.567  -3.128  -7.550  0.00  0.00    -0.271 OA
HETATM    4  H           1     -23.398  -5.408  -8.684  0.00  0.00     0.163 HD
ENDROOT
BRANCH   2   5
HETATM    5  C           1     -22.140  -5.081  -6.359  0.00  0.00     0.278 C 
BRANCH   5   6
HETATM    6  C           1     -21.330  -6.329  -6.686  0.00  0.00     0.021 C 
HETATM    7  C           1     -19.865  -5.952  -6.865  0.00  0.00     0.012 C 
BRANCH   6   8
HETATM    8  C           1     -21.460  -7.331  -5.546  0.00  0.00     0.002 C 
HETATM    9  C           1     -20.075  -7.803  -5.124  0.00  0.00     0.005 C 
ENDBRANCH   6   8
ENDBRANCH   5   6
BRANCH   5  10
HETATM   10  N           1     -23.540  -5.476  -5.992  0.00  0.00    -0.066 N 
HETATM   11  H           1     -24.192  -5.198  -6.760  0.00  0.00     0.275 HD
HETATM   12  H           1     -23.818  -4.993  -5.108  0.00  0.00     0.275 HD
HETATM   13  H           1     -23.585  -6.510  -5.854  0.00  0.00     0.275 HD
ENDBRANCH   5  10
ENDBRANCH   2   5
BRANCH   1  14
HETATM   14  C           1     -22.923  -3.660  -9.830  0.00  0.00     0.195 C 
BRANCH  14  15
HETATM   15  C           1     -24.356  -3.411 -10.231  0.00  0.00     0.197 C 
HETATM   16  O           1     -24.760  -3.768 -11.359  0.00  0.00    -0.646 OA
HETATM   17  O           1     -25.140  -2.850  -9.436  0.00  0.00    -0.646 OA
ENDBRANCH  14  15
BRANCH  14  18
HETATM   18  C           1     -22.179  -4.320 -10.983  0.00  0.00     0.149 C 
BRANCH  18  19
HETATM   19  C           1     -20.702  -4.037 -10.858  0.00  0.00     0.175 C 
HETATM   20  O           1     -19.954  -4.863 -10.291  0.00  0.00    -0.648 OA
HETATM   21  O           1     -20.227  -2.978 -11.322  0.00  0.00    -0.648 OA
ENDBRANCH  18  19
ENDBRANCH  14  18
ENDBRANCH   1  14
TORSDOF 8
ENDMDL
MODEL 2
REMARK VINA RESULT:      -5.6      5.085      7.528
REMARK  8 active torsions:
REMARK  status: ('A' for Active; 'I' for Inactive)
REMARK    1  A    between atoms: N_1  and  C_16 
REMARK       I    between atoms: N_1  and  C_3 
REMARK    2  A    between atoms: C_3  and  C_18 
REMARK    3  A    between atoms: C_10  and  C_16 
REMARK    4  A    between atoms: C_13  and  C_15 
REMARK    5  A    between atoms: C_15  and  C_16 
REMARK    6  A    between atoms: C_17  and  C_19 
REMARK    7  A    between atoms: C_18  and  C_19 
REMARK    8  A    between atoms: C_18  and  N_20 
ROOT
HETATM    1  N           1     -20.826  -7.912  -3.352  0.00  0.00    -0.344 N 
HETATM    2  C           1     -21.236  -8.630  -2.262  0.00  0.00     0.249 C 
HETATM    3  O           1     -21.487  -9.807  -2.374  0.00  0.00    -0.271 OA
HETATM    4  H           1     -20.616  -6.926  -3.259  0.00  0.00     0.163 HD
ENDROOT
BRANCH   2   5
HETATM    5  C           1     -21.375  -7.953  -0.921  0.00  0.00     0.278 C 
BRANCH   5   6
HETATM    6  C           1     -21.785  -8.980   0.127  0.00  0.00     0.021 C 
HETATM    7  C           1     -21.102  -8.658   1.449  0.00  0.00     0.012 C 
BRANCH   6   8
HETATM    8  C           1     -23.297  -8.937   0.314  0.00  0.00     0.002 C 
HETATM    9  C           1     -23.881 -10.317   0.041  0.00  0.00     0.005 C 
ENDBRANCH   6   8
ENDBRANCH   5   6
BRANCH   5  10
HETATM   10  N           1     -22.423  -6.883  -1.008  0.00  0.00    -0.066 N 
HETATM   11  H           1     -22.712  -6.760  -2.004  0.00  0.00     0.275 HD
HETATM   12  H           1     -22.034  -5.984  -0.645  0.00  0.00     0.275 HD
HETATM   13  H           1     -23.252  -7.160  -0.436  0.00  0.00     0.275 HD
ENDBRANCH   5  10
ENDBRANCH   2   5
BRANCH   1  14
HETATM   14  C           1     -20.692  -8.562  -4.641  0.00  0.00     0.195 C 
BRANCH  14  15
HETATM   15  C           1     -19.232  -8.814  -4.927  0.00  0.00     0.197 C 
HETATM   16  O           1     -18.450  -9.085  -3.991  0.00  0.00    -0.646 OA
HETATM   17  O           1     -18.805  -8.753  -6.101  0.00  0.00    -0.646 OA
ENDBRANCH  14  15
BRANCH  14  18
HETATM   18  C           1     -21.275  -7.664  -5.725  0.00  0.00     0.149 C 
BRANCH  18  19
HETATM   19  C           1     -21.652  -6.332  -5.127  0.00  0.00     0.175 C 
HETATM   20  O           1     -22.822  -6.132  -4.735  0.00  0.00    -0.648 OA
HETATM   21  O           1     -20.796  -5.427  -5.023  0.00  0.00    -0.648 OA
ENDBRANCH  18  19
ENDBRANCH  14  18
ENDBRANCH   1  14
TORSDOF 8
ENDMDL
MODEL 3
REMARK VINA RESULT:      -5.5      3.744      6.405
REMARK  8 active torsions:
REMARK  status: ('A' for Active; 'I' for Inactive)
REMARK    1  A    between atoms: N_1  and  C_16 
REMARK       I    between atoms: N_1  and  C_3 
REMARK    2  A    between atoms: C_3  and  C_18 
REMARK    3  A    between atoms: C_10  and  C_16 
REMARK    4  A    between atoms: C_13  and  C_15 
REMARK    5  A    between atoms: C_15  and  C_16 
REMARK    6  A    between atoms: C_17  and  C_19 
REMARK    7  A    between atoms: C_18  and  C_19 
REMARK    8  A    between atoms: C_18  and  N_20 
ROOT
HETATM    1  N           1     -20.899  -6.443  -4.703  0.00  0.00    -0.344 N 
HETATM    2  C           1     -21.668  -5.702  -5.559  0.00  0.00     0.249 C 
HETATM    3  O           1     -22.863  -5.870  -5.595  0.00  0.00    -0.271 OA
HETATM    4  H           1     -19.897  -6.303  -4.673  0.00  0.00     0.163 HD
ENDROOT
BRANCH   2   5
HETATM    5  C           1     -21.022  -4.676  -6.457  0.00  0.00     0.278 C 
BRANCH   5   6
HETATM    6  C           1     -21.382  -4.971  -7.907  0.00  0.00     0.021 C 
HETATM    7  C           1     -22.375  -3.929  -8.407  0.00  0.00     0.012 C 
BRANCH   6   8
HETATM    8  C           1     -20.123  -4.922  -8.763  0.00  0.00     0.002 C 
HETATM    9  C           1     -20.469  -4.386 -10.146  0.00  0.00     0.005 C 
ENDBRANCH   6   8
ENDBRANCH   5   6
BRANCH   5  10
HETATM   10  N           1     -19.532  -4.734  -6.291  0.00  0.00    -0.066 N 
HETATM   11  H           1     -19.120  -3.800  -6.515  0.00  0.00     0.275 HD
HETATM   12  H           1     -19.137  -5.452  -6.938  0.00  0.00     0.275 HD
HETATM   13  H           1     -19.301  -4.988  -5.304  0.00  0.00     0.275 HD
ENDBRANCH   5  10
ENDBRANCH   2   5
BRANCH   1  14
HETATM   14  C           1     -21.519  -7.429  -3.840  0.00  0.00     0.195 C 
BRANCH  14  15
HETATM   15  C           1     -21.628  -6.874  -2.441  0.00  0.00     0.197 C 
HETATM   16  O           1     -20.976  -7.394  -1.510  0.00  0.00    -0.646 OA
HETATM   17  O           1     -22.370  -5.894  -2.213  0.00  0.00    -0.646 OA
ENDBRANCH  14  15
BRANCH  14  18
HETATM   18  C           1     -20.669  -8.692  -3.820  0.00  0.00     0.149 C 
BRANCH  18  19
HETATM   19  C           1     -20.240  -9.033  -5.226  0.00  0.00     0.175 C 
HETATM   20  O           1     -21.073  -9.486  -6.041  0.00  0.00    -0.648 OA
HETATM   21  O           1     -19.052  -8.863  -5.577  0.00  0.00    -0.648 OA
ENDBRANCH  18  19
ENDBRANCH  14  18
ENDBRANCH   1  14
TORSDOF 8
ENDMDL
MODEL 4
REMARK VINA RESULT:      -5.5      3.392      6.459
REMARK  8 active torsions:
REMARK  status: ('A' for Active; 'I' for Inactive)
REMARK    1  A    between atoms: N_1  and  C_16 
REMARK       I    between atoms: N_1  and  C_3 
REMARK    2  A    between atoms: C_3  and  C_18 
REMARK    3  A    between atoms: C_10  and  C_16 
REMARK    4  A    between atoms: C_13  and  C_15 
REMARK    5  A    between atoms: C_15  and  C_16 
REMARK    6  A    between atoms: C_17  and  C_19 
REMARK    7  A    between atoms: C_18  and  C_19 
REMARK    8  A    between atoms: C_18  and  N_20 
ROOT
HETATM    1  N           1     -21.686  -6.369  -5.674  0.00  0.00    -0.344 N 
HETATM    2  C           1     -21.161  -5.234  -6.231  0.00  0.00     0.249 C 
HETATM    3  O           1     -20.056  -4.863  -5.915  0.00  0.00    -0.271 OA
HETATM    4  H           1     -22.612  -6.680  -5.937  0.00  0.00     0.163 HD
ENDROOT
BRANCH   2   5
HETATM    5  C           1     -21.963  -4.447  -7.238  0.00  0.00     0.278 C 
BRANCH   5   6
HETATM    6  C           1     -21.661  -4.960  -8.640  0.00  0.00     0.021 C 
HETATM    7  C           1     -22.854  -4.689  -9.549  0.00  0.00     0.012 C 
BRANCH   6   8
HETATM    8  C           1     -20.434  -4.245  -9.189  0.00  0.00     0.002 C 
HETATM    9  C           1     -20.516  -4.188 -10.709  0.00  0.00     0.005 C 
ENDBRANCH   6   8
ENDBRANCH   5   6
BRANCH   5  10
HETATM   10  N           1     -21.593  -2.996  -7.147  0.00  0.00    -0.066 N 
HETATM   11  H           1     -22.185  -2.531  -6.422  0.00  0.00     0.275 HD
HETATM   12  H           1     -21.752  -2.537  -8.072  0.00  0.00     0.275 HD
HETATM   13  H           1     -20.586  -2.910  -6.883  0.00  0.00     0.275 HD
ENDBRANCH   5  10
ENDBRANCH   2   5
BRANCH   1  14
HETATM   14  C           1     -20.916  -7.125  -4.706  0.00  0.00     0.195 C 
BRANCH  14  15
HETATM   15  C           1     -20.364  -8.367  -5.363  0.00  0.00     0.197 C 
HETATM   16  O           1     -19.153  -8.428  -5.666  0.00  0.00    -0.646 OA
HETATM   17  O           1     -21.118  -9.334  -5.604  0.00  0.00    -0.646 OA
ENDBRANCH  14  15
BRANCH  14  18
HETATM   18  C           1     -21.814  -7.523  -3.542  0.00  0.00     0.149 C 
BRANCH  18  19
HETATM   19  C           1     -21.890  -6.386  -2.553  0.00  0.00     0.175 C 
HETATM   20  O           1     -21.258  -5.329  -2.766  0.00  0.00    -0.648 OA
HETATM   21  O           1     -22.586  -6.500  -1.520  0.00  0.00    -0.648 OA
ENDBRANCH  18  19
ENDBRANCH  14  18
ENDBRANCH   1  14
TORSDOF 8
ENDMDL
MODEL 5
REMARK VINA RESULT:      -5.2      5.444      7.773
REMARK  8 active torsions:
REMARK  status: ('A' for Active; 'I' for Inactive)
REMARK    1  A    between atoms: N_1  and  C_16 
REMARK       I    between atoms: N_1  and  C_3 
REMARK    2  A    between atoms: C_3  and  C_18 
REMARK    3  A    between atoms: C_10  and  C_16 
REMARK    4  A    between atoms: C_13  and  C_15 
REMARK    5  A    between atoms: C_15  and  C_16 
REMARK    6  A    between atoms: C_17  and  C_19 
REMARK    7  A    between atoms: C_18  and  C_19 
REMARK    8  A    between atoms: C_18  and  N_20 
ROOT
HETATM    1  N           1     -21.338  -8.789  -3.332  0.00  0.00    -0.344 N 
HETATM    2  C           1     -21.881 -10.013  -3.050  0.00  0.00     0.249 C 
HETATM    3  O           1     -22.416 -10.653  -3.923  0.00  0.00    -0.271 OA
HETATM    4  H           1     -20.890  -8.253  -2.600  0.00  0.00     0.163 HD
ENDROOT
BRANCH   2   5
HETATM    5  C           1     -21.809 -10.564  -1.647  0.00  0.00     0.278 C 
BRANCH   5   6
HETATM    6  C           1     -22.896  -9.924  -0.793  0.00  0.00     0.021 C 
HETATM    7  C           1     -23.756 -11.012  -0.163  0.00  0.00     0.012 C 
BRANCH   6   8
HETATM    8  C           1     -22.251  -9.088   0.305  0.00  0.00     0.002 C 
HETATM    9  C           1     -23.166  -7.923   0.660  0.00  0.00     0.005 C 
ENDBRANCH   6   8
ENDBRANCH   5   6
BRANCH   5  10
HETATM   10  N           1     -20.465 -10.256  -1.057  0.00  0.00    -0.066 N 
HETATM   11  H           1     -19.873 -11.117  -1.070  0.00  0.00     0.275 HD
HETATM   12  H           1     -20.583  -9.930  -0.071  0.00  0.00     0.275 HD
HETATM   13  H           1     -20.001  -9.507  -1.619  0.00  0.00     0.275 HD
ENDBRANCH   5  10
ENDBRANCH   2   5
BRANCH   1  14
HETATM   14  C           1     -21.407  -8.259  -4.680  0.00  0.00     0.195 C 
BRANCH  14  15
HETATM   15  C           1     -20.011  -8.109  -5.233  0.00  0.00     0.197 C 
HETATM   16  O           1     -19.799  -7.345  -6.198  0.00  0.00    -0.646 OA
HETATM   17  O           1     -19.065  -8.750  -4.724  0.00  0.00    -0.646 OA
ENDBRANCH  14  15
BRANCH  14  18
HETATM   18  C           1     -22.093  -6.900  -4.657  0.00  0.00     0.149 C 
BRANCH  18  19
HETATM   19  C           1     -21.800  -6.210  -3.347  0.00  0.00     0.175 C 
HETATM   20  O           1     -22.643  -6.238  -2.424  0.00  0.00    -0.648 OA
HETATM   21  O           1     -20.715  -5.611  -3.184  0.00  0.00    -0.648 OA
ENDBRANCH  18  19
ENDBRANCH  14  18
ENDBRANCH   1  14
TORSDOF 8
ENDMDL
MODEL 6
REMARK VINA RESULT:      -5.0      4.221      6.639
REMARK  8 active torsions:
REMARK  status: ('A' for Active; 'I' for Inactive)
REMARK    1  A    between atoms: N_1  and  C_16 
REMARK       I    between atoms: N_1  and  C_3 
REMARK    2  A    between atoms: C_3  and  C_18 
REMARK    3  A    between atoms: C_10  and  C_16 
REMARK    4  A    between atoms: C_13  and  C_15 
REMARK    5  A    between atoms: C_15  and  C_16 
REMARK    6  A    between atoms: C_17  and  C_19 
REMARK    7  A    between atoms: C_18  and  C_19 
REMARK    8  A    between atoms: C_18  and  N_20 
ROOT
HETATM    1  N           1     -19.949  -7.704  -5.063  0.00  0.00    -0.344 N 
HETATM    2  C           1     -20.020  -9.053  -5.282  0.00  0.00     0.249 C 
HETATM    3  O           1     -21.069  -9.559  -5.602  0.00  0.00    -0.271 OA
HETATM    4  H           1     -19.070  -7.281  -4.795  0.00  0.00     0.163 HD
ENDROOT
BRANCH   2   5
HETATM    5  C           1     -18.787  -9.909  -5.124  0.00  0.00     0.278 C 
BRANCH   5   6
HETATM    6  C           1     -18.013  -9.462  -3.892  0.00  0.00     0.021 C 
HETATM    7  C           1     -18.610 -10.114  -2.651  0.00  0.00     0.012 C 
BRANCH   6   8
HETATM    8  C           1     -16.554  -9.878  -4.030  0.00  0.00     0.002 C 
HETATM    9  C           1     -15.857  -9.742  -2.683  0.00  0.00     0.005 C 
ENDBRANCH   6   8
ENDBRANCH   5   6
BRANCH   5  10
HETATM   10  N           1     -17.919  -9.763  -6.339  0.00  0.00    -0.066 N 
HETATM   11  H           1     -17.225 -10.544  -6.366  0.00  0.00     0.275 HD
HETATM   12  H           1     -17.413  -8.850  -6.299  0.00  0.00     0.275 HD
HETATM   13  H           1     -18.513  -9.796  -7.198  0.00  0.00     0.275 HD
ENDBRANCH   5  10
ENDBRANCH   2   5
BRANCH   1  14
HETATM   14  C           1     -21.134  -6.882  -5.215  0.00  0.00     0.195 C 
BRANCH  14  15
HETATM   15  C           1     -21.059  -6.129  -6.521  0.00  0.00     0.197 C 
HETATM   16  O           1     -20.133  -6.366  -7.326  0.00  0.00    -0.646 OA
HETATM   17  O           1     -21.923  -5.270  -6.798  0.00  0.00    -0.646 OA
ENDBRANCH  14  15
BRANCH  14  18
HETATM   18  C           1     -21.214  -5.891  -4.061  0.00  0.00     0.149 C 
BRANCH  18  19
HETATM   19  C           1     -21.824  -6.567  -2.858  0.00  0.00     0.175 C 
HETATM   20  O           1     -21.575  -7.769  -2.624  0.00  0.00    -0.648 OA
HETATM   21  O           1     -22.579  -5.925  -2.096  0.00  0.00    -0.648 OA
ENDBRANCH  18  19
ENDBRANCH  14  18
ENDBRANCH   1  14
TORSDOF 8
ENDMDL
MODEL 7
REMARK VINA RESULT:      -5.0      5.530      7.691
REMARK  8 active torsions:
REMARK  status: ('A' for Active; 'I' for Inactive)
REMARK    1  A    between atoms: N_1  and  C_16 
REMARK       I    between atoms: N_1  and  C_3 
REMARK    2  A    between atoms: C_3  and  C_18 
REMARK    3  A    between atoms: C_10  and  C_16 
REMARK    4  A    between atoms: C_13  and  C_15 
REMARK    5  A    between atoms: C_15  and  C_16 
REMARK    6  A    between atoms: C_17  and  C_19 
REMARK    7  A    between atoms: C_18  and  C_19 
REMARK    8  A    between atoms: C_18  and  N_20 
ROOT
HETATM    1  N           1     -21.517  -8.752  -3.206  0.00  0.00    -0.344 N 
HETATM    2  C           1     -21.044  -9.295  -2.042  0.00  0.00     0.249 C 
HETATM    3  O           1     -20.105  -8.787  -1.477  0.00  0.00    -0.271 OA
HETATM    4  H           1     -22.303  -9.178  -3.680  0.00  0.00     0.163 HD
ENDROOT
BRANCH   2   5
HETATM    5  C           1     -21.696 -10.527  -1.464  0.00  0.00     0.278 C 
BRANCH   5   6
HETATM    6  C           1     -23.021 -10.145  -0.817  0.00  0.00     0.021 C 
HETATM    7  C           1     -23.862 -11.397  -0.602  0.00  0.00     0.012 C 
BRANCH   6   8
HETATM    8  C           1     -22.755  -9.475   0.525  0.00  0.00     0.002 C 
HETATM    9  C           1     -23.202  -8.020   0.464  0.00  0.00     0.005 C 
ENDBRANCH   6   8
ENDBRANCH   5   6
BRANCH   5  10
HETATM   10  N           1     -20.793 -11.132  -0.431  0.00  0.00    -0.066 N 
HETATM   11  H           1     -21.293 -11.177   0.485  0.00  0.00     0.275 HD
HETATM   12  H           1     -19.934 -10.545  -0.331  0.00  0.00     0.275 HD
HETATM   13  H           1     -20.522 -12.097  -0.728  0.00  0.00     0.275 HD
ENDBRANCH   5  10
ENDBRANCH   2   5
BRANCH   1  14
HETATM   14  C           1     -20.890  -7.568  -3.761  0.00  0.00     0.195 C 
BRANCH  14  15
HETATM   15  C           1     -21.893  -6.441  -3.800  0.00  0.00     0.197 C 
HETATM   16  O           1     -22.371  -5.993  -2.736  0.00  0.00    -0.646 OA
HETATM   17  O           1     -22.245  -5.956  -4.897  0.00  0.00    -0.646 OA
ENDBRANCH  14  15
BRANCH  14  18
HETATM   18  C           1     -20.405  -7.866  -5.174  0.00  0.00     0.149 C 
BRANCH  18  19
HETATM   19  C           1     -19.653  -9.174  -5.183  0.00  0.00     0.175 C 
HETATM   20  O           1     -18.561  -9.271  -4.584  0.00  0.00    -0.648 OA
HETATM   21  O           1     -20.122 -10.161  -5.791  0.00  0.00    -0.648 OA
ENDBRANCH  18  19
ENDBRANCH  14  18
ENDBRANCH   1  14
TORSDOF 8
ENDMDL
MODEL 8
REMARK VINA RESULT:      -5.0      7.602     10.015
REMARK  8 active torsions:
REMARK  status: ('A' for Active; 'I' for Inactive)
REMARK    1  A    between atoms: N_1  and  C_16 
REMARK       I    between atoms: N_1  and  C_3 
REMARK    2  A    between atoms: C_3  and  C_18 
REMARK    3  A    between atoms: C_10  and  C_16 
REMARK    4  A    between atoms: C_13  and  C_15 
REMARK    5  A    between atoms: C_15  and  C_16 
REMARK    6  A    between atoms: C_17  and  C_19 
REMARK    7  A    between atoms: C_18  and  C_19 
REMARK    8  A    between atoms: C_18  and  N_20 
ROOT
HETATM    1  N           1     -21.525  -9.719  -0.882  0.00  0.00    -0.344 N 
HETATM    2  C           1     -21.233 -10.678   0.050  0.00  0.00     0.249 C 
HETATM    3  O           1     -20.684 -10.370   1.081  0.00  0.00    -0.271 OA
HETATM    4  H           1     -21.984  -9.977  -1.746  0.00  0.00     0.163 HD
ENDROOT
BRANCH   2   5
HETATM    5  C           1     -21.598 -12.119  -0.210  0.00  0.00     0.278 C 
BRANCH   5   6
HETATM    6  C           1     -22.962 -12.415   0.398  0.00  0.00     0.021 C 
HETATM    7  C           1     -24.047 -12.175  -0.644  0.00  0.00     0.012 C 
BRANCH   6   8
HETATM    8  C           1     -23.010 -13.869   0.853  0.00  0.00     0.002 C 
HETATM    9  C           1     -23.510 -13.935   2.290  0.00  0.00     0.005 C 
ENDBRANCH   6   8
ENDBRANCH   5   6
BRANCH   5  10
HETATM   10  N           1     -20.569 -13.015   0.413  0.00  0.00    -0.066 N 
HETATM   11  H           1     -21.046 -13.743   0.991  0.00  0.00     0.275 HD
HETATM   12  H           1     -19.935 -12.448   1.021  0.00  0.00     0.275 HD
HETATM   13  H           1     -20.010 -13.478  -0.338  0.00  0.00     0.275 HD
ENDBRANCH   5  10
ENDBRANCH   2   5
BRANCH   1  14
HETATM   14  C           1     -21.174  -8.335  -0.632  0.00  0.00     0.195 C 
BRANCH  14  15
HETATM   15  C           1     -22.432  -7.532  -0.403  0.00  0.00     0.197 C 
HETATM   16  O           1     -22.662  -6.520  -1.098  0.00  0.00    -0.646 OA
HETATM   17  O           1     -23.243  -7.880   0.482  0.00  0.00    -0.646 OA
ENDBRANCH  14  15
BRANCH  14  18
HETATM   18  C           1     -20.427  -7.776  -1.835  0.00  0.00     0.149 C 
BRANCH  18  19
HETATM   19  C           1     -20.577  -8.718  -3.004  0.00  0.00     0.175 C 
HETATM   20  O           1     -19.691  -9.569  -3.238  0.00  0.00    -0.648 OA
HETATM   21  O           1     -21.586  -8.648  -3.739  0.00  0.00    -0.648 OA
ENDBRANCH  18  19
ENDBRANCH  14  18
ENDBRANCH   1  14
TORSDOF 8
ENDMDL
MODEL 9
REMARK VINA RESULT:      -4.9      6.493      9.535
REMARK  8 active torsions:
REMARK  status: ('A' for Active; 'I' for Inactive)
REMARK    1  A    between atoms: N_1  and  C_16 
REMARK       I    between atoms: N_1  and  C_3 
REMARK    2  A    between atoms: C_3  and  C_18 
REMARK    3  A    between atoms: C_10  and  C_16 
REMARK    4  A    between atoms: C_13  and  C_15 
REMARK    5  A    between atoms: C_15  and  C_16 
REMARK    6  A    between atoms: C_17  and  C_19 
REMARK    7  A    between atoms: C_18  and  C_19 
REMARK    8  A    between atoms: C_18  and  N_20 
ROOT
HETATM    1  N           1     -21.278  -9.166  -1.696  0.00  0.00    -0.344 N 
HETATM    2  C           1     -20.341  -8.736  -2.597  0.00  0.00     0.249 C 
HETATM    3  O           1     -19.166  -8.795  -2.321  0.00  0.00    -0.271 OA
HETATM    4  H           1     -22.262  -9.116  -1.927  0.00  0.00     0.163 HD
ENDROOT
BRANCH   2   5
HETATM    5  C           1     -20.776  -8.188  -3.933  0.00  0.00     0.278 C 
BRANCH   5   6
HETATM    6  C           1     -21.839  -7.118  -3.722  0.00  0.00     0.021 C 
HETATM    7  C           1     -21.243  -5.955  -2.939  0.00  0.00     0.012 C 
BRANCH   6   8
HETATM    8  C           1     -22.332  -6.618  -5.075  0.00  0.00     0.002 C 
HETATM    9  C           1     -21.299  -5.673  -5.674  0.00  0.00     0.005 C 
ENDBRANCH   6   8
ENDBRANCH   5   6
BRANCH   5  10
HETATM   10  N           1     -21.343  -9.298  -4.768  0.00  0.00    -0.066 N 
HETATM   11  H           1     -21.831  -8.893  -5.599  0.00  0.00     0.275 HD
HETATM   12  H           1     -22.025  -9.848  -4.198  0.00  0.00     0.275 HD
HETATM   13  H           1     -20.570  -9.923  -5.088  0.00  0.00     0.275 HD
ENDBRANCH   5  10
ENDBRANCH   2   5
BRANCH   1  14
HETATM   14  C           1     -20.860  -9.693  -0.411  0.00  0.00     0.195 C 
BRANCH  14  15
HETATM   15  C           1     -21.299 -11.132  -0.292  0.00  0.00     0.197 C 
HETATM   16  O           1     -21.517 -11.628   0.834  0.00  0.00    -0.646 OA
HETATM   17  O           1     -21.445 -11.828  -1.320  0.00  0.00    -0.646 OA
ENDBRANCH  14  15
BRANCH  14  18
HETATM   18  C           1     -21.496  -8.874   0.704  0.00  0.00     0.149 C 
BRANCH  18  19
HETATM   19  C           1     -22.844  -8.369   0.252  0.00  0.00     0.175 C 
HETATM   20  O           1     -22.958  -7.208  -0.197  0.00  0.00    -0.648 OA
HETATM   21  O           1     -23.848  -9.111   0.327  0.00  0.00    -0.648 OA
ENDBRANCH  18  19
ENDBRANCH  14  18
ENDBRANCH   1  14
TORSDOF 8
ENDMDL
