MODEL 1
REMARK VINA RESULT:      -6.3      0.000      0.000
REMARK  5 active torsions:
REMARK  status: ('A' for Active; 'I' for Inactive)
REMARK    1  A    between atoms: C_3  and  C_7 
REMARK    2  A    between atoms: C_3  and  C_4 
REMARK    3  A    between atoms: C_4  and  C_5 
REMARK    4  A    between atoms: C_4  and  N_11 
REMARK       I    between atoms: N_11  and  C_12 
REMARK    5  A    between atoms: C_12  and  C_13 
ROOT
HETATM    1  H           1     -22.150  -6.257  -6.648  0.00  0.00     0.275 HD
HETATM    2  H           1     -22.321  -5.786  -5.017  0.00  0.00     0.275 HD
HETATM    3  C           1     -21.498  -4.307  -6.251  0.00  0.00     0.274 C 
HETATM    4  C           1     -19.294  -7.091  -6.084  0.00  0.00     0.027 C 
HETATM    5  C           1     -19.679  -5.870  -6.910  0.00  0.00     0.004 C 
HETATM    6  C           1     -20.059  -4.726  -5.981  0.00  0.00     0.042 C 
HETATM    7  C           1     -20.475  -7.511  -5.218  0.00  0.00     0.229 C 
HETATM    8  H           1     -22.453  -8.139  -5.501  0.00  0.00     0.274 HD
HETATM    9  H           1     -21.908  -7.013  -6.661  0.00  0.00     0.274 HD
HETATM   10  H           1     -21.383  -8.635  -6.733  0.00  0.00     0.274 HD
HETATM   11  N           1     -22.411  -5.472  -6.010  0.00  0.00    -0.067 N 
HETATM   12  N           1     -21.643  -7.850  -6.095  0.00  0.00    -0.079 N 
HETATM   13  H           1     -23.398  -5.184  -6.195  0.00  0.00     0.275 HD
ENDROOT
BRANCH   3  14
HETATM   14  C           1     -21.628  -3.854  -7.685  0.00  0.00     0.249 C 
HETATM   15  N           1     -22.814  -4.021  -8.349  0.00  0.00    -0.344 N 
HETATM   16  H           1     -23.602  -4.447  -7.879  0.00  0.00     0.163 HD
HETATM   17  O           1     -20.687  -3.345  -8.246  0.00  0.00    -0.271 OA
BRANCH  15  18
HETATM   18  C           1     -22.939  -3.585  -9.727  0.00  0.00     0.195 C 
BRANCH  18  19
HETATM   19  C           1     -22.423  -4.678 -10.653  0.00  0.00     0.149 C 
BRANCH  19  20
HETATM   20  C           1     -21.445  -4.085 -11.637  0.00  0.00     0.175 C 
HETATM   21  O           1     -21.851  -3.641 -12.733  0.00  0.00    -0.648 OA
HETATM   22  O           1     -20.227  -4.037 -11.356  0.00  0.00    -0.648 OA
ENDBRANCH  19  20
ENDBRANCH  18  19
BRANCH  18  23
HETATM   23  C           1     -24.389  -3.306 -10.037  0.00  0.00     0.197 C 
HETATM   24  O           1     -25.113  -2.741  -9.188  0.00  0.00    -0.646 OA
HETATM   25  O           1     -24.868  -3.641 -11.142  0.00  0.00    -0.646 OA
ENDBRANCH  18  23
ENDBRANCH  15  18
ENDBRANCH   3  14
TORSDOF 5
ENDMDL
MODEL 2
REMARK VINA RESULT:      -5.9      3.879      6.563
REMARK  5 active torsions:
REMARK  status: ('A' for Active; 'I' for Inactive)
REMARK    1  A    between atoms: C_3  and  C_7 
REMARK    2  A    between atoms: C_3  and  C_4 
REMARK    3  A    between atoms: C_4  and  C_5 
REMARK    4  A    between atoms: C_4  and  N_11 
REMARK       I    between atoms: N_11  and  C_12 
REMARK    5  A    between atoms: C_12  and  C_13 
ROOT
HETATM    1  H           1     -19.923  -5.281  -8.799  0.00  0.00     0.275 HD
HETATM    2  H           1     -19.138  -3.787  -8.550  0.00  0.00     0.275 HD
HETATM    3  C           1     -20.386  -4.370  -6.972  0.00  0.00     0.274 C 
HETATM    4  C           1     -22.331  -3.806  -9.893  0.00  0.00     0.027 C 
HETATM    5  C           1     -22.305  -4.518  -8.546  0.00  0.00     0.004 C 
HETATM    6  C           1     -21.605  -3.639  -7.520  0.00  0.00     0.042 C 
HETATM    7  C           1     -20.904  -3.532 -10.350  0.00  0.00     0.229 C 
HETATM    8  H           1     -19.185  -4.640 -10.799  0.00  0.00     0.274 HD
HETATM    9  H           1     -20.145  -5.317  -9.561  0.00  0.00     0.274 HD
HETATM   10  H           1     -20.644  -5.432 -11.189  0.00  0.00     0.274 HD
HETATM   11  N           1     -19.442  -4.678  -8.096  0.00  0.00    -0.067 N 
HETATM   12  N           1     -20.163  -4.829 -10.485  0.00  0.00    -0.079 N 
HETATM   13  H           1     -18.606  -5.178  -7.719  0.00  0.00     0.275 HD
ENDROOT
BRANCH   3  14
HETATM   14  C           1     -20.824  -5.657  -6.316  0.00  0.00     0.249 C 
HETATM   15  N           1     -20.896  -5.738  -4.951  0.00  0.00    -0.344 N 
HETATM   16  H           1     -20.658  -4.935  -4.382  0.00  0.00     0.163 HD
HETATM   17  O           1     -21.108  -6.615  -6.994  0.00  0.00    -0.271 OA
BRANCH  15  18
HETATM   18  C           1     -21.317  -6.975  -4.321  0.00  0.00     0.195 C 
BRANCH  18  19
HETATM   19  C           1     -20.208  -8.011  -4.448  0.00  0.00     0.149 C 
BRANCH  19  20
HETATM   20  C           1     -20.811  -9.362  -4.743  0.00  0.00     0.175 C 
HETATM   21  O           1     -20.990  -9.722  -5.927  0.00  0.00    -0.648 OA
HETATM   22  O           1     -21.131 -10.121  -3.803  0.00  0.00    -0.648 OA
ENDBRANCH  19  20
ENDBRANCH  18  19
BRANCH  18  23
HETATM   23  C           1     -21.606  -6.724  -2.862  0.00  0.00     0.197 C 
HETATM   24  O           1     -20.940  -7.311  -1.982  0.00  0.00    -0.646 OA
HETATM   25  O           1     -22.514  -5.929  -2.533  0.00  0.00    -0.646 OA
ENDBRANCH  18  23
ENDBRANCH  15  18
ENDBRANCH   3  14
TORSDOF 5
ENDMDL
MODEL 3
REMARK VINA RESULT:      -5.7      4.928      8.070
REMARK  5 active torsions:
REMARK  status: ('A' for Active; 'I' for Inactive)
REMARK    1  A    between atoms: C_3  and  C_7 
REMARK    2  A    between atoms: C_3  and  C_4 
REMARK    3  A    between atoms: C_4  and  C_5 
REMARK    4  A    between atoms: C_4  and  N_11 
REMARK       I    between atoms: N_11  and  C_12 
REMARK    5  A    between atoms: C_12  and  C_13 
ROOT
HETATM    1  H           1     -22.053  -4.579  -5.736  0.00  0.00     0.275 HD
HETATM    2  H           1     -22.930  -5.313  -7.001  0.00  0.00     0.275 HD
HETATM    3  C           1     -21.913  -6.667  -5.768  0.00  0.00     0.274 C 
HETATM    4  C           1     -19.571  -4.605  -7.471  0.00  0.00     0.027 C 
HETATM    5  C           1     -19.772  -5.500  -6.255  0.00  0.00     0.004 C 
HETATM    6  C           1     -20.657  -6.679  -6.630  0.00  0.00     0.042 C 
HETATM    7  C           1     -20.923  -4.092  -7.952  0.00  0.00     0.229 C 
HETATM    8  H           1     -22.505  -2.952  -7.187  0.00  0.00     0.274 HD
HETATM    9  H           1     -21.717  -3.919  -6.022  0.00  0.00     0.274 HD
HETATM   10  H           1     -20.970  -2.495  -6.598  0.00  0.00     0.274 HD
HETATM   11  N           1     -22.661  -5.387  -5.994  0.00  0.00    -0.067 N 
HETATM   12  N           1     -21.578  -3.305  -6.856  0.00  0.00    -0.079 N 
HETATM   13  H           1     -23.523  -5.380  -5.403  0.00  0.00     0.275 HD
ENDROOT
BRANCH   3  14
HETATM   14  C           1     -21.526  -6.774  -4.314  0.00  0.00     0.249 C 
HETATM   15  N           1     -21.260  -8.000  -3.765  0.00  0.00    -0.344 N 
HETATM   16  H           1     -21.321  -8.834  -4.335  0.00  0.00     0.163 HD
HETATM   17  O           1     -21.453  -5.778  -3.633  0.00  0.00    -0.271 OA
BRANCH  15  18
HETATM   18  C           1     -20.888  -8.102  -2.367  0.00  0.00     0.195 C 
BRANCH  18  19
HETATM   19  C           1     -22.066  -8.642  -1.568  0.00  0.00     0.149 C 
BRANCH  19  20
HETATM   20  C           1     -22.508  -7.610  -0.560  0.00  0.00     0.175 C 
HETATM   21  O           1     -22.958  -7.971   0.549  0.00  0.00    -0.648 OA
HETATM   22  O           1     -22.423  -6.393  -0.834  0.00  0.00    -0.648 OA
ENDBRANCH  19  20
ENDBRANCH  18  19
BRANCH  18  23
HETATM   23  C           1     -19.712  -9.036  -2.226  0.00  0.00     0.197 C 
HETATM   24  O           1     -18.671  -8.837  -2.889  0.00  0.00    -0.646 OA
HETATM   25  O           1     -19.778 -10.011  -1.446  0.00  0.00    -0.646 OA
ENDBRANCH  18  23
ENDBRANCH  15  18
ENDBRANCH   3  14
TORSDOF 5
ENDMDL
MODEL 4
REMARK VINA RESULT:      -5.7      6.071      8.518
REMARK  5 active torsions:
REMARK  status: ('A' for Active; 'I' for Inactive)
REMARK    1  A    between atoms: C_3  and  C_7 
REMARK    2  A    between atoms: C_3  and  C_4 
REMARK    3  A    between atoms: C_4  and  C_5 
REMARK    4  A    between atoms: C_4  and  N_11 
REMARK       I    between atoms: N_11  and  C_12 
REMARK    5  A    between atoms: C_12  and  C_13 
ROOT
HETATM    1  H           1     -20.905 -12.005  -0.515  0.00  0.00     0.275 HD
HETATM    2  H           1     -21.228 -13.271  -1.611  0.00  0.00     0.275 HD
HETATM    3  C           1     -21.593 -11.359  -2.384  0.00  0.00     0.274 C 
HETATM    4  C           1     -23.819 -12.007   0.310  0.00  0.00     0.027 C 
HETATM    5  C           1     -23.166 -10.904  -0.512  0.00  0.00     0.004 C 
HETATM    6  C           1     -23.056 -11.348  -1.964  0.00  0.00     0.042 C 
HETATM    7  C           1     -22.972 -13.271   0.228  0.00  0.00     0.229 C 
HETATM    8  H           1     -21.021 -13.858   0.713  0.00  0.00     0.274 HD
HETATM    9  H           1     -21.152 -12.234   0.204  0.00  0.00     0.274 HD
HETATM   10  H           1     -21.676 -12.685   1.765  0.00  0.00     0.274 HD
HETATM   11  N           1     -20.830 -12.311  -1.510  0.00  0.00    -0.067 N 
HETATM   12  N           1     -21.601 -12.991   0.769  0.00  0.00    -0.079 N 
HETATM   13  H           1     -19.826 -12.318  -1.799  0.00  0.00     0.275 HD
ENDROOT
BRANCH   3  14
HETATM   14  C           1     -21.017  -9.972  -2.239  0.00  0.00     0.249 C 
HETATM   15  N           1     -21.589  -8.921  -2.904  0.00  0.00    -0.344 N 
HETATM   16  H           1     -22.398  -9.074  -3.492  0.00  0.00     0.163 HD
HETATM   17  O           1     -20.050  -9.789  -1.537  0.00  0.00    -0.271 OA
BRANCH  15  18
HETATM   18  C           1     -21.035  -7.588  -2.765  0.00  0.00     0.195 C 
BRANCH  18  19
HETATM   19  C           1     -20.915  -6.943  -4.139  0.00  0.00     0.149 C 
BRANCH  19  20
HETATM   20  C           1     -20.493  -7.982  -5.148  0.00  0.00     0.175 C 
HETATM   21  O           1     -19.356  -8.498  -5.077  0.00  0.00    -0.648 OA
HETATM   22  O           1     -21.279  -8.326  -6.057  0.00  0.00    -0.648 OA
ENDBRANCH  19  20
ENDBRANCH  18  19
BRANCH  18  23
HETATM   23  C           1     -21.942  -6.754  -1.895  0.00  0.00     0.197 C 
HETATM   24  O           1     -22.354  -5.646  -2.301  0.00  0.00    -0.646 OA
HETATM   25  O           1     -22.282  -7.171  -0.765  0.00  0.00    -0.646 OA
ENDBRANCH  18  23
ENDBRANCH  15  18
ENDBRANCH   3  14
TORSDOF 5
ENDMDL
MODEL 5
REMARK VINA RESULT:      -5.5      6.678      9.299
REMARK  5 active torsions:
REMARK  status: ('A' for Active; 'I' for Inactive)
REMARK    1  A    between atoms: C_3  and  C_7 
REMARK    2  A    between atoms: C_3  and  C_4 
REMARK    3  A    between atoms: C_4  and  C_5 
REMARK    4  A    between atoms: C_4  and  N_11 
REMARK       I    between atoms: N_11  and  C_12 
REMARK    5  A    between atoms: C_12  and  C_13 
ROOT
HETATM    1  H           1     -20.771  -8.767  -3.802  0.00  0.00     0.275 HD
HETATM    2  H           1     -19.305  -7.904  -3.677  0.00  0.00     0.275 HD
HETATM    3  C           1     -20.663  -7.511  -2.131  0.00  0.00     0.274 C 
HETATM    4  C           1     -22.016  -6.402  -5.225  0.00  0.00     0.027 C 
HETATM    5  C           1     -22.369  -6.826  -3.805  0.00  0.00     0.004 C 
HETATM    6  C           1     -21.301  -6.326  -2.844  0.00  0.00     0.042 C 
HETATM    7  C           1     -20.668  -6.996  -5.612  0.00  0.00     0.229 C 
HETATM    8  H           1     -19.816  -8.899  -5.808  0.00  0.00     0.274 HD
HETATM    9  H           1     -20.982  -8.784  -4.568  0.00  0.00     0.274 HD
HETATM   10  H           1     -21.474  -8.836  -6.201  0.00  0.00     0.274 HD
HETATM   11  N           1     -20.037  -8.424  -3.143  0.00  0.00    -0.067 N 
HETATM   12  N           1     -20.740  -8.492  -5.542  0.00  0.00    -0.079 N 
HETATM   13  H           1     -19.599  -9.237  -2.654  0.00  0.00     0.275 HD
ENDROOT
BRANCH   3  14
HETATM   14  C           1     -21.719  -8.263  -1.360  0.00  0.00     0.249 C 
HETATM   15  N           1     -21.783  -9.628  -1.439  0.00  0.00    -0.344 N 
HETATM   16  H           1     -21.120 -10.133  -2.014  0.00  0.00     0.163 HD
HETATM   17  O           1     -22.510  -7.660  -0.673  0.00  0.00    -0.271 OA
BRANCH  15  18
HETATM   18  C           1     -22.798 -10.350  -0.698  0.00  0.00     0.195 C 
BRANCH  18  19
HETATM   19  C           1     -23.589 -11.235  -1.652  0.00  0.00     0.149 C 
BRANCH  19  20
HETATM   20  C           1     -22.759 -11.521  -2.879  0.00  0.00     0.175 C 
HETATM   21  O           1     -22.755 -10.714  -3.834  0.00  0.00    -0.648 OA
HETATM   22  O           1     -22.075 -12.566  -2.941  0.00  0.00    -0.648 OA
ENDBRANCH  19  20
ENDBRANCH  18  19
BRANCH  18  23
HETATM   23  C           1     -22.139 -11.207   0.354  0.00  0.00     0.197 C 
HETATM   24  O           1     -22.648 -12.302   0.678  0.00  0.00    -0.646 OA
HETATM   25  O           1     -21.084 -10.822   0.904  0.00  0.00    -0.646 OA
ENDBRANCH  18  23
ENDBRANCH  15  18
ENDBRANCH   3  14
TORSDOF 5
ENDMDL
MODEL 6
REMARK VINA RESULT:      -5.5      7.464     10.154
REMARK  5 active torsions:
REMARK  status: ('A' for Active; 'I' for Inactive)
REMARK    1  A    between atoms: C_3  and  C_7 
REMARK    2  A    between atoms: C_3  and  C_4 
REMARK    3  A    between atoms: C_4  and  C_5 
REMARK    4  A    between atoms: C_4  and  N_11 
REMARK       I    between atoms: N_11  and  C_12 
REMARK    5  A    between atoms: C_12  and  C_13 
ROOT
HETATM    1  H           1     -21.492 -13.125  -1.415  0.00  0.00     0.275 HD
HETATM    2  H           1     -22.590 -13.567  -2.644  0.00  0.00     0.275 HD
HETATM    3  C           1     -22.848 -11.615  -1.929  0.00  0.00     0.274 C 
HETATM    4  C           1     -23.532 -13.943   0.668  0.00  0.00     0.027 C 
HETATM    5  C           1     -23.142 -12.500   0.376  0.00  0.00     0.004 C 
HETATM    6  C           1     -23.868 -12.019  -0.872  0.00  0.00     0.042 C 
HETATM    7  C           1     -23.145 -14.823  -0.513  0.00  0.00     0.229 C 
HETATM    8  H           1     -21.399 -15.345  -1.544  0.00  0.00     0.274 HD
HETATM    9  H           1     -21.396 -13.751  -0.936  0.00  0.00     0.274 HD
HETATM   10  H           1     -21.166 -15.071   0.123  0.00  0.00     0.274 HD
HETATM   11  N           1     -21.990 -12.797  -2.272  0.00  0.00    -0.067 N 
HETATM   12  N           1     -21.664 -14.741  -0.734  0.00  0.00    -0.079 N 
HETATM   13  H           1     -21.291 -12.519  -2.997  0.00  0.00     0.275 HD
ENDROOT
BRANCH   3  14
HETATM   14  C           1     -21.981 -10.502  -1.393  0.00  0.00     0.249 C 
HETATM   15  N           1     -22.541  -9.295  -1.070  0.00  0.00    -0.344 N 
HETATM   16  H           1     -23.535  -9.150  -1.189  0.00  0.00     0.163 HD
HETATM   17  O           1     -20.794 -10.676  -1.251  0.00  0.00    -0.271 OA
BRANCH  15  18
HETATM   18  C           1     -21.707  -8.226  -0.555  0.00  0.00     0.195 C 
BRANCH  18  19
HETATM   19  C           1     -22.155  -6.901  -1.156  0.00  0.00     0.149 C 
BRANCH  19  20
HETATM   20  C           1     -21.736  -6.837  -2.604  0.00  0.00     0.175 C 
HETATM   21  O           1     -20.796  -7.551  -3.016  0.00  0.00    -0.648 OA
HETATM   22  O           1     -22.330  -6.070  -3.393  0.00  0.00    -0.648 OA
ENDBRANCH  19  20
ENDBRANCH  18  19
BRANCH  18  23
HETATM   23  C           1     -21.836  -8.166   0.947  0.00  0.00     0.197 C 
HETATM   24  O           1     -20.878  -8.514   1.672  0.00  0.00    -0.646 OA
HETATM   25  O           1     -22.902  -7.771   1.468  0.00  0.00    -0.646 OA
ENDBRANCH  18  23
ENDBRANCH  15  18
ENDBRANCH   3  14
TORSDOF 5
ENDMDL
MODEL 7
REMARK VINA RESULT:      -5.4      7.549      9.362
REMARK  5 active torsions:
REMARK  status: ('A' for Active; 'I' for Inactive)
REMARK    1  A    between atoms: C_3  and  C_7 
REMARK    2  A    between atoms: C_3  and  C_4 
REMARK    3  A    between atoms: C_4  and  C_5 
REMARK    4  A    between atoms: C_4  and  N_11 
REMARK       I    between atoms: N_11  and  C_12 
REMARK    5  A    between atoms: C_12  and  C_13 
ROOT
HETATM    1  H           1     -18.936 -11.831  -4.267  0.00  0.00     0.275 HD
HETATM    2  H           1     -17.551 -12.221  -3.351  0.00  0.00     0.275 HD
HETATM    3  C           1     -18.624 -10.578  -2.618  0.00  0.00     0.274 C 
HETATM    4  C           1     -17.306  -9.813  -5.829  0.00  0.00     0.027 C 
HETATM    5  C           1     -18.381  -9.441  -4.816  0.00  0.00     0.004 C 
HETATM    6  C           1     -17.816  -9.558  -3.408  0.00  0.00     0.042 C 
HETATM    7  C           1     -16.850 -11.245  -5.583  0.00  0.00     0.229 C 
HETATM    8  H           1     -17.705 -13.157  -5.562  0.00  0.00     0.274 HD
HETATM    9  H           1     -18.755 -11.920  -5.035  0.00  0.00     0.274 HD
HETATM   10  H           1     -18.406 -12.094  -6.697  0.00  0.00     0.274 HD
HETATM   11  N           1     -18.548 -11.912  -3.301  0.00  0.00    -0.067 N 
HETATM   12  N           1     -18.018 -12.175  -5.730  0.00  0.00    -0.079 N 
HETATM   13  H           1     -19.102 -12.612  -2.759  0.00  0.00     0.275 HD
ENDROOT
BRANCH   3  14
HETATM   14  C           1     -20.064 -10.132  -2.546  0.00  0.00     0.249 C 
HETATM   15  N           1     -20.442  -9.187  -1.630  0.00  0.00    -0.344 N 
HETATM   16  H           1     -19.756  -8.787  -1.003  0.00  0.00     0.163 HD
HETATM   17  O           1     -20.883 -10.610  -3.294  0.00  0.00    -0.271 OA
BRANCH  15  18
HETATM   18  C           1     -21.826  -8.759  -1.560  0.00  0.00     0.195 C 
BRANCH  18  19
HETATM   19  C           1     -22.431  -9.215  -0.239  0.00  0.00     0.149 C 
BRANCH  19  20
HETATM   20  C           1     -21.330  -9.452   0.765  0.00  0.00     0.175 C 
HETATM   21  O           1     -20.929  -8.513   1.487  0.00  0.00    -0.648 OA
HETATM   22  O           1     -20.819 -10.588   0.875  0.00  0.00    -0.648 OA
ENDBRANCH  19  20
ENDBRANCH  18  19
BRANCH  18  23
HETATM   23  C           1     -21.892  -7.255  -1.652  0.00  0.00     0.197 C 
HETATM   24  O           1     -22.681  -6.618  -0.920  0.00  0.00    -0.646 OA
HETATM   25  O           1     -21.160  -6.644  -2.460  0.00  0.00    -0.646 OA
ENDBRANCH  18  23
ENDBRANCH  15  18
ENDBRANCH   3  14
TORSDOF 5
ENDMDL
MODEL 8
REMARK VINA RESULT:      -5.3      7.134      9.489
REMARK  5 active torsions:
REMARK  status: ('A' for Active; 'I' for Inactive)
REMARK    1  A    between atoms: C_3  and  C_7 
REMARK    2  A    between atoms: C_3  and  C_4 
REMARK    3  A    between atoms: C_4  and  C_5 
REMARK    4  A    between atoms: C_4  and  N_11 
REMARK       I    between atoms: N_11  and  C_12 
REMARK    5  A    between atoms: C_12  and  C_13 
ROOT
HETATM    1  H           1     -22.076 -11.862  -1.931  0.00  0.00     0.275 HD
HETATM    2  H           1     -23.593 -12.578  -2.240  0.00  0.00     0.275 HD
HETATM    3  C           1     -23.670 -10.944  -0.932  0.00  0.00     0.274 C 
HETATM    4  C           1     -21.798 -13.578   0.548  0.00  0.00     0.027 C 
HETATM    5  C           1     -22.046 -12.075   0.574  0.00  0.00     0.004 C 
HETATM    6  C           1     -23.521 -11.799   0.320  0.00  0.00     0.042 C 
HETATM    7  C           1     -22.191 -14.135  -0.814  0.00  0.00     0.229 C 
HETATM    8  H           1     -21.638 -13.858  -2.815  0.00  0.00     0.274 HD
HETATM    9  H           1     -21.539 -12.444  -1.864  0.00  0.00     0.274 HD
HETATM   10  H           1     -20.356 -13.664  -1.707  0.00  0.00     0.274 HD
HETATM   11  N           1     -23.087 -11.673  -2.106  0.00  0.00    -0.067 N 
HETATM   12  N           1     -21.369 -13.475  -1.881  0.00  0.00    -0.079 N 
HETATM   13  H           1     -23.191 -11.087  -2.965  0.00  0.00     0.275 HD
ENDROOT
BRANCH   3  14
HETATM   14  C           1     -22.940  -9.637  -0.739  0.00  0.00     0.249 C 
HETATM   15  N           1     -22.009  -9.232  -1.657  0.00  0.00    -0.344 N 
HETATM   16  H           1     -21.811  -9.808  -2.465  0.00  0.00     0.163 HD
HETATM   17  O           1     -23.176  -8.950   0.226  0.00  0.00    -0.271 OA
BRANCH  15  18
HETATM   18  C           1     -21.308  -7.976  -1.471  0.00  0.00     0.195 C 
BRANCH  18  19
HETATM   19  C           1     -19.831  -8.168  -1.790  0.00  0.00     0.149 C 
BRANCH  19  20
HETATM   20  C           1     -19.609  -9.559  -2.330  0.00  0.00     0.175 C 
HETATM   21  O           1     -19.343 -10.499  -1.549  0.00  0.00    -0.648 OA
HETATM   22  O           1     -19.691  -9.772  -3.559  0.00  0.00    -0.648 OA
ENDBRANCH  19  20
ENDBRANCH  18  19
BRANCH  18  23
HETATM   23  C           1     -21.890  -6.933  -2.393  0.00  0.00     0.197 C 
HETATM   24  O           1     -21.733  -7.033  -3.629  0.00  0.00    -0.646 OA
HETATM   25  O           1     -22.529  -5.968  -1.920  0.00  0.00    -0.646 OA
ENDBRANCH  18  23
ENDBRANCH  15  18
ENDBRANCH   3  14
TORSDOF 5
ENDMDL
MODEL 9
REMARK VINA RESULT:      -5.2      6.077      8.563
REMARK  5 active torsions:
REMARK  status: ('A' for Active; 'I' for Inactive)
REMARK    1  A    between atoms: C_3  and  C_7 
REMARK    2  A    between atoms: C_3  and  C_4 
REMARK    3  A    between atoms: C_4  and  C_5 
REMARK    4  A    between atoms: C_4  and  N_11 
REMARK       I    between atoms: N_11  and  C_12 
REMARK    5  A    between atoms: C_12  and  C_13 
ROOT
HETATM    1  H           1     -17.515 -12.092  -3.544  0.00  0.00     0.275 HD
HETATM    2  H           1     -16.477 -12.147  -2.191  0.00  0.00     0.275 HD
HETATM    3  C           1     -17.647 -10.412  -2.301  0.00  0.00     0.274 C 
HETATM    4  C           1     -15.415 -10.529  -5.064  0.00  0.00     0.027 C 
HETATM    5  C           1     -16.722  -9.933  -4.559  0.00  0.00     0.004 C 
HETATM    6  C           1     -16.600  -9.622  -3.074  0.00  0.00     0.042 C 
HETATM    7  C           1     -15.113 -11.812  -4.300  0.00  0.00     0.229 C 
HETATM    8  H           1     -16.017 -13.676  -3.991  0.00  0.00     0.274 HD
HETATM    9  H           1     -17.122 -12.388  -4.167  0.00  0.00     0.274 HD
HETATM   10  H           1     -16.309 -13.009  -5.533  0.00  0.00     0.274 HD
HETATM   11  N           1     -17.431 -11.880  -2.525  0.00  0.00    -0.067 N 
HETATM   12  N           1     -16.225 -12.796  -4.514  0.00  0.00    -0.079 N 
HETATM   13  H           1     -18.149 -12.421  -1.994  0.00  0.00     0.275 HD
ENDROOT
BRANCH   3  14
HETATM   14  C           1     -19.025 -10.028  -2.782  0.00  0.00     0.249 C 
HETATM   15  N           1     -19.381  -8.708  -2.852  0.00  0.00    -0.344 N 
HETATM   16  H           1     -18.720  -7.990  -2.583  0.00  0.00     0.163 HD
HETATM   17  O           1     -19.814 -10.884  -3.104  0.00  0.00    -0.271 OA
BRANCH  15  18
HETATM   18  C           1     -20.705  -8.338  -3.315  0.00  0.00     0.195 C 
BRANCH  18  19
HETATM   19  C           1     -21.188  -7.116  -2.545  0.00  0.00     0.149 C 
BRANCH  19  20
HETATM   20  C           1     -21.881  -7.559  -1.280  0.00  0.00     0.175 C 
HETATM   21  O           1     -22.770  -6.843  -0.771  0.00  0.00    -0.648 OA
HETATM   22  O           1     -21.565  -8.642  -0.741  0.00  0.00    -0.648 OA
ENDBRANCH  19  20
ENDBRANCH  18  19
BRANCH  18  23
HETATM   23  C           1     -20.652  -8.018  -4.788  0.00  0.00     0.197 C 
HETATM   24  O           1     -20.863  -8.916  -5.632  0.00  0.00    -0.646 OA
HETATM   25  O           1     -20.397  -6.853  -5.166  0.00  0.00    -0.646 OA
ENDBRANCH  18  23
ENDBRANCH  15  18
ENDBRANCH   3  14
TORSDOF 5
ENDMDL
