MODEL 1
REMARK VINA RESULT:      -8.0      0.000      0.000
REMARK  8 active torsions:
REMARK  status: ('A' for Active; 'I' for Inactive)
REMARK    1  A    between atoms: C_7  and  C_10 
REMARK    2  A    between atoms: C_7  and  C_8 
REMARK    3  A    between atoms: C_7  and  N_19 
REMARK    4  A    between atoms: C_8  and  C_17 
REMARK       I    between atoms: C_10  and  N_11 
REMARK    5  A    between atoms: N_11  and  C_18 
REMARK    6  A    between atoms: C_13  and  C_21 
REMARK    7  A    between atoms: C_14  and  C_18 
REMARK    8  A    between atoms: C_18  and  C_21 
ROOT
HETATM    1  C           1     -21.932  -6.572  -5.606  0.00  0.00     0.190 C 
ENDROOT
BRANCH   1   2
HETATM    2  N           1     -22.316  -6.401  -4.218  0.00  0.00    -0.344 N 
HETATM    3  C           1     -21.392  -6.581  -3.225  0.00  0.00     0.249 C 
HETATM    4  O           1     -20.729  -5.647  -2.841  0.00  0.00    -0.271 OA
HETATM    5  H           1     -23.268  -6.149  -3.985  0.00  0.00     0.163 HD
BRANCH   3   6
HETATM    6  C           1     -21.201  -7.945  -2.611  0.00  0.00     0.278 C 
BRANCH   6   7
HETATM    7  C           1     -21.305  -7.839  -1.095  0.00  0.00     0.021 C 
HETATM    8  C           1     -22.559  -7.058  -0.725  0.00  0.00     0.012 C 
BRANCH   7   9
HETATM    9  C           1     -21.382  -9.236  -0.492  0.00  0.00     0.002 C 
HETATM   10  C           1     -22.816  -9.529  -0.073  0.00  0.00     0.005 C 
ENDBRANCH   7   9
ENDBRANCH   6   7
BRANCH   6  11
HETATM   11  N           1     -19.849  -8.476  -2.983  0.00  0.00    -0.066 N 
HETATM   12  H           1     -19.944  -9.457  -3.331  0.00  0.00     0.275 HD
HETATM   13  H           1     -19.226  -8.463  -2.144  0.00  0.00     0.275 HD
HETATM   14  H           1     -19.434  -7.880  -3.733  0.00  0.00     0.275 HD
ENDBRANCH   6  11
ENDBRANCH   3   6
ENDBRANCH   1   2
BRANCH   1  15
HETATM   15  C           1     -20.963  -7.723  -5.721  0.00  0.00     0.197 C 
HETATM   16  O           1     -21.386  -8.900  -5.703  0.00  0.00    -0.646 OA
HETATM   17  O           1     -19.739  -7.500  -5.835  0.00  0.00    -0.646 OA
ENDBRANCH   1  15
BRANCH   1  18
HETATM   18  C           1     -21.270  -5.297  -6.110  0.00  0.00     0.077 C 
BRANCH  18  19
HETATM   19  C           1     -22.051  -4.749  -7.262  0.00  0.00    -0.028 A 
HETATM   20  C           1     -21.560  -4.525  -8.578  0.00  0.00    -0.002 A 
HETATM   21  C           1     -22.616  -4.009  -9.329  0.00  0.00     0.042 A 
HETATM   22  C           1     -20.312  -4.714  -9.203  0.00  0.00     0.014 A 
HETATM   23  N           1     -23.705  -3.925  -8.491  0.00  0.00    -0.365 N 
HETATM   24  C           1     -22.487  -3.669 -10.681  0.00  0.00     0.030 A 
HETATM   25  C           1     -23.374  -4.370  -7.239  0.00  0.00     0.096 A 
HETATM   26  H           1     -24.653  -3.571  -8.771  0.00  0.00     0.165 HD
HETATM   27  C           1     -21.239  -3.866 -11.280  0.00  0.00     0.002 A 
HETATM   28  C           1     -20.166  -4.380 -10.555  0.00  0.00     0.001 A 
ENDBRANCH  18  19
ENDBRANCH   1  18
TORSDOF 8
ENDMDL
MODEL 2
REMARK VINA RESULT:      -7.8      2.206      3.150
REMARK  8 active torsions:
REMARK  status: ('A' for Active; 'I' for Inactive)
REMARK    1  A    between atoms: C_7  and  C_10 
REMARK    2  A    between atoms: C_7  and  C_8 
REMARK    3  A    between atoms: C_7  and  N_19 
REMARK    4  A    between atoms: C_8  and  C_17 
REMARK       I    between atoms: C_10  and  N_11 
REMARK    5  A    between atoms: N_11  and  C_18 
REMARK    6  A    between atoms: C_13  and  C_21 
REMARK    7  A    between atoms: C_14  and  C_18 
REMARK    8  A    between atoms: C_18  and  C_21 
ROOT
HETATM    1  C           1     -20.780  -9.143  -4.352  0.00  0.00     0.190 C 
ENDROOT
BRANCH   1   2
HETATM    2  N           1     -20.491  -9.435  -2.961  0.00  0.00    -0.344 N 
HETATM    3  C           1     -21.422 -10.073  -2.188  0.00  0.00     0.249 C 
HETATM    4  O           1     -21.430 -11.280  -2.125  0.00  0.00    -0.271 OA
HETATM    5  H           1     -19.600  -9.166  -2.563  0.00  0.00     0.163 HD
BRANCH   3   6
HETATM    6  C           1     -22.440  -9.271  -1.416  0.00  0.00     0.278 C 
BRANCH   6   7
HETATM    7  C           1     -21.736  -8.155  -0.655  0.00  0.00     0.021 C 
HETATM    8  C           1     -22.207  -6.805  -1.183  0.00  0.00     0.012 C 
BRANCH   7   9
HETATM    9  C           1     -22.069  -8.263   0.827  0.00  0.00     0.002 C 
HETATM   10  C           1     -20.833  -8.714   1.594  0.00  0.00     0.005 C 
ENDBRANCH   7   9
ENDBRANCH   6   7
BRANCH   6  11
HETATM   11  N           1     -23.151 -10.166  -0.445  0.00  0.00    -0.066 N 
HETATM   12  H           1     -22.871 -11.158  -0.618  0.00  0.00     0.275 HD
HETATM   13  H           1     -24.183 -10.068  -0.572  0.00  0.00     0.275 HD
HETATM   14  H           1     -22.893  -9.897   0.531  0.00  0.00     0.275 HD
ENDBRANCH   6  11
ENDBRANCH   3   6
ENDBRANCH   1   2
BRANCH   1  15
HETATM   15  C           1     -20.346 -10.306  -5.210  0.00  0.00     0.197 C 
HETATM   16  O           1     -19.304 -10.937  -4.927  0.00  0.00    -0.646 OA
HETATM   17  O           1     -21.028 -10.639  -6.203  0.00  0.00    -0.646 OA
ENDBRANCH   1  15
BRANCH   1  18
HETATM   18  C           1     -20.025  -7.890  -4.775  0.00  0.00     0.077 C 
BRANCH  18  19
HETATM   19  C           1     -20.992  -6.879  -5.306  0.00  0.00    -0.028 A 
HETATM   20  C           1     -20.728  -5.919  -6.322  0.00  0.00    -0.002 A 
HETATM   21  C           1     -21.899  -5.183  -6.506  0.00  0.00     0.042 A 
HETATM   22  C           1     -19.600  -5.605  -7.103  0.00  0.00     0.014 A 
HETATM   23  N           1     -22.834  -5.685  -5.629  0.00  0.00    -0.365 N 
HETATM   24  C           1     -22.000  -4.143  -7.438  0.00  0.00     0.030 A 
HETATM   25  C           1     -22.296  -6.711  -4.899  0.00  0.00     0.096 A 
HETATM   26  H           1     -23.819  -5.333  -5.534  0.00  0.00     0.165 HD
HETATM   27  C           1     -20.867  -3.850  -8.203  0.00  0.00     0.002 A 
HETATM   28  C           1     -19.684  -4.568  -8.041  0.00  0.00     0.001 A 
ENDBRANCH  18  19
ENDBRANCH   1  18
TORSDOF 8
ENDMDL
MODEL 3
REMARK VINA RESULT:      -7.8      1.760      7.837
REMARK  8 active torsions:
REMARK  status: ('A' for Active; 'I' for Inactive)
REMARK    1  A    between atoms: C_7  and  C_10 
REMARK    2  A    between atoms: C_7  and  C_8 
REMARK    3  A    between atoms: C_7  and  N_19 
REMARK    4  A    between atoms: C_8  and  C_17 
REMARK       I    between atoms: C_10  and  N_11 
REMARK    5  A    between atoms: N_11  and  C_18 
REMARK    6  A    between atoms: C_13  and  C_21 
REMARK    7  A    between atoms: C_14  and  C_18 
REMARK    8  A    between atoms: C_18  and  C_21 
ROOT
HETATM    1  C           1     -21.258  -7.279  -5.650  0.00  0.00     0.190 C 
ENDROOT
BRANCH   1   2
HETATM    2  N           1     -20.499  -6.573  -6.663  0.00  0.00    -0.344 N 
HETATM    3  C           1     -20.810  -5.276  -6.971  0.00  0.00     0.249 C 
HETATM    4  O           1     -20.279  -4.369  -6.374  0.00  0.00    -0.271 OA
HETATM    5  H           1     -19.740  -7.039  -7.143  0.00  0.00     0.163 HD
BRANCH   3   6
HETATM    6  C           1     -21.815  -4.978  -8.056  0.00  0.00     0.278 C 
BRANCH   6   7
HETATM    7  C           1     -21.178  -4.078  -9.107  0.00  0.00     0.021 C 
HETATM    8  C           1     -20.071  -4.841  -9.824  0.00  0.00     0.012 C 
BRANCH   7   9
HETATM    9  C           1     -22.235  -3.650 -10.117  0.00  0.00     0.002 C 
HETATM   10  C           1     -21.991  -4.363 -11.440  0.00  0.00     0.005 C 
ENDBRANCH   7   9
ENDBRANCH   6   7
BRANCH   6  11
HETATM   11  N           1     -23.003  -4.284  -7.459  0.00  0.00    -0.066 N 
HETATM   12  H           1     -23.178  -4.658  -6.499  0.00  0.00     0.275 HD
HETATM   13  H           1     -23.843  -4.454  -8.057  0.00  0.00     0.275 HD
HETATM   14  H           1     -22.817  -3.258  -7.404  0.00  0.00     0.275 HD
ENDBRANCH   6  11
ENDBRANCH   3   6
ENDBRANCH   1   2
BRANCH   1  15
HETATM   15  C           1     -22.034  -6.286  -4.820  0.00  0.00     0.197 C 
HETATM   16  O           1     -21.469  -5.675  -3.887  0.00  0.00    -0.646 OA
HETATM   17  O           1     -23.241  -6.075  -5.064  0.00  0.00    -0.646 OA
ENDBRANCH   1  15
BRANCH   1  18
HETATM   18  C           1     -20.305  -8.057  -4.753  0.00  0.00     0.077 C 
BRANCH  18  19
HETATM   19  C           1     -21.082  -9.028  -3.921  0.00  0.00    -0.028 A 
HETATM   20  C           1     -21.330  -8.925  -2.524  0.00  0.00    -0.002 A 
HETATM   21  C           1     -22.089 -10.038  -2.158  0.00  0.00     0.042 A 
HETATM   22  C           1     -20.979  -7.989  -1.533  0.00  0.00     0.014 A 
HETATM   23  N           1     -22.289 -10.783  -3.298  0.00  0.00    -0.365 N 
HETATM   24  C           1     -22.517 -10.262  -0.844  0.00  0.00     0.030 A 
HETATM   25  C           1     -21.685 -10.182  -4.370  0.00  0.00     0.096 A 
HETATM   26  H           1     -22.829 -11.683  -3.341  0.00  0.00     0.165 HD
HETATM   27  C           1     -22.157  -9.317   0.122  0.00  0.00     0.002 A 
HETATM   28  C           1     -21.400  -8.198  -0.214  0.00  0.00     0.001 A 
ENDBRANCH  18  19
ENDBRANCH   1  18
TORSDOF 8
ENDMDL
MODEL 4
REMARK VINA RESULT:      -7.6      4.201      7.521
REMARK  8 active torsions:
REMARK  status: ('A' for Active; 'I' for Inactive)
REMARK    1  A    between atoms: C_7  and  C_10 
REMARK    2  A    between atoms: C_7  and  C_8 
REMARK    3  A    between atoms: C_7  and  N_19 
REMARK    4  A    between atoms: C_8  and  C_17 
REMARK       I    between atoms: C_10  and  N_11 
REMARK    5  A    between atoms: N_11  and  C_18 
REMARK    6  A    between atoms: C_13  and  C_21 
REMARK    7  A    between atoms: C_14  and  C_18 
REMARK    8  A    between atoms: C_18  and  C_21 
ROOT
HETATM    1  C           1     -21.242  -7.651  -3.057  0.00  0.00     0.190 C 
ENDROOT
BRANCH   1   2
HETATM    2  N           1     -20.045  -7.607  -3.874  0.00  0.00    -0.344 N 
HETATM    3  C           1     -19.909  -8.460  -4.935  0.00  0.00     0.249 C 
HETATM    4  O           1     -20.302  -8.131  -6.029  0.00  0.00    -0.271 OA
HETATM    5  H           1     -19.311  -6.945  -3.659  0.00  0.00     0.163 HD
BRANCH   3   6
HETATM    6  C           1     -19.269  -9.813  -4.738  0.00  0.00     0.278 C 
BRANCH   6   7
HETATM    7  C           1     -18.311  -9.754  -3.556  0.00  0.00     0.021 C 
HETATM    8  C           1     -18.552 -10.953  -2.648  0.00  0.00     0.012 C 
BRANCH   7   9
HETATM    9  C           1     -16.876  -9.785  -4.064  0.00  0.00     0.002 C 
HETATM   10  C           1     -15.918  -9.631  -2.891  0.00  0.00     0.005 C 
ENDBRANCH   7   9
ENDBRANCH   6   7
BRANCH   6  11
HETATM   11  N           1     -18.513 -10.192  -5.976  0.00  0.00    -0.066 N 
HETATM   12  H           1     -18.700 -11.195  -6.205  0.00  0.00     0.275 HD
HETATM   13  H           1     -17.490 -10.057  -5.815  0.00  0.00     0.275 HD
HETATM   14  H           1     -18.822  -9.591  -6.772  0.00  0.00     0.275 HD
ENDBRANCH   6  11
ENDBRANCH   3   6
ENDBRANCH   1   2
BRANCH   1  15
HETATM   15  C           1     -22.021  -6.371  -3.237  0.00  0.00     0.197 C 
HETATM   16  O           1     -22.451  -6.055  -4.368  0.00  0.00    -0.646 OA
HETATM   17  O           1     -22.237  -5.627  -2.256  0.00  0.00    -0.646 OA
ENDBRANCH   1  15
BRANCH   1  18
HETATM   18  C           1     -20.852  -7.806  -1.593  0.00  0.00     0.077 C 
BRANCH  18  19
HETATM   19  C           1     -21.974  -8.450  -0.841  0.00  0.00    -0.028 A 
HETATM   20  C           1     -22.480  -9.763  -1.051  0.00  0.00    -0.002 A 
HETATM   21  C           1     -23.518  -9.954  -0.139  0.00  0.00     0.042 A 
HETATM   22  C           1     -22.152 -10.810  -1.933  0.00  0.00     0.014 A 
HETATM   23  N           1     -23.632  -8.794   0.593  0.00  0.00    -0.365 N 
HETATM   24  C           1     -24.249 -11.145  -0.064  0.00  0.00     0.030 A 
HETATM   25  C           1     -22.702  -7.877   0.177  0.00  0.00     0.096 A 
HETATM   26  H           1     -24.330  -8.633   1.361  0.00  0.00     0.165 HD
HETATM   27  C           1     -23.904 -12.171  -0.950  0.00  0.00     0.002 A 
HETATM   28  C           1     -22.872 -12.009  -1.871  0.00  0.00     0.001 A 
ENDBRANCH  18  19
ENDBRANCH   1  18
TORSDOF 8
ENDMDL
MODEL 5
REMARK VINA RESULT:      -7.5      3.055      6.710
REMARK  8 active torsions:
REMARK  status: ('A' for Active; 'I' for Inactive)
REMARK    1  A    between atoms: C_7  and  C_10 
REMARK    2  A    between atoms: C_7  and  C_8 
REMARK    3  A    between atoms: C_7  and  N_19 
REMARK    4  A    between atoms: C_8  and  C_17 
REMARK       I    between atoms: C_10  and  N_11 
REMARK    5  A    between atoms: N_11  and  C_18 
REMARK    6  A    between atoms: C_13  and  C_21 
REMARK    7  A    between atoms: C_14  and  C_18 
REMARK    8  A    between atoms: C_18  and  C_21 
ROOT
HETATM    1  C           1     -21.375  -8.758  -2.104  0.00  0.00     0.190 C 
ENDROOT
BRANCH   1   2
HETATM    2  N           1     -20.943  -7.443  -2.536  0.00  0.00    -0.344 N 
HETATM    3  C           1     -21.818  -6.614  -3.185  0.00  0.00     0.249 C 
HETATM    4  O           1     -22.506  -5.847  -2.553  0.00  0.00    -0.271 OA
HETATM    5  H           1     -19.995  -7.138  -2.357  0.00  0.00     0.163 HD
BRANCH   3   6
HETATM    6  C           1     -21.923  -6.658  -4.690  0.00  0.00     0.278 C 
BRANCH   6   7
HETATM    7  C           1     -20.806  -5.823  -5.302  0.00  0.00     0.021 C 
HETATM    8  C           1     -19.796  -6.743  -5.976  0.00  0.00     0.012 C 
BRANCH   7   9
HETATM    9  C           1     -21.393  -4.871  -6.336  0.00  0.00     0.002 C 
HETATM   10  C           1     -20.271  -4.288  -7.184  0.00  0.00     0.005 C 
ENDBRANCH   7   9
ENDBRANCH   6   7
BRANCH   6  11
HETATM   11  N           1     -23.251  -6.105  -5.114  0.00  0.00    -0.066 N 
HETATM   12  H           1     -23.956  -6.876  -5.144  0.00  0.00     0.275 HD
HETATM   13  H           1     -23.163  -5.676  -6.062  0.00  0.00     0.275 HD
HETATM   14  H           1     -23.560  -5.378  -4.431  0.00  0.00     0.275 HD
ENDBRANCH   6  11
ENDBRANCH   3   6
ENDBRANCH   1   2
BRANCH   1  15
HETATM   15  C           1     -21.965  -8.663  -0.718  0.00  0.00     0.197 C 
HETATM   16  O           1     -21.402  -7.967   0.154  0.00  0.00    -0.646 OA
HETATM   17  O           1     -23.016  -9.281  -0.443  0.00  0.00    -0.646 OA
ENDBRANCH   1  15
BRANCH   1  18
HETATM   18  C           1     -20.181  -9.703  -2.085  0.00  0.00     0.077 C 
BRANCH  18  19
HETATM   19  C           1     -19.681  -9.905  -3.481  0.00  0.00    -0.028 A 
HETATM   20  C           1     -18.324  -9.850  -3.902  0.00  0.00    -0.002 A 
HETATM   21  C           1     -18.309 -10.095  -5.275  0.00  0.00     0.042 A 
HETATM   22  C           1     -17.103  -9.613  -3.243  0.00  0.00     0.014 A 
HETATM   23  N           1     -19.615 -10.291  -5.665  0.00  0.00    -0.365 N 
HETATM   24  C           1     -17.129 -10.116  -6.027  0.00  0.00     0.030 A 
HETATM   25  C           1     -20.453 -10.179  -4.588  0.00  0.00     0.096 A 
HETATM   26  H           1     -19.925 -10.497  -6.647  0.00  0.00     0.165 HD
HETATM   27  C           1     -15.928  -9.878  -5.350  0.00  0.00     0.002 A 
HETATM   28  C           1     -15.913  -9.630  -3.979  0.00  0.00     0.001 A 
ENDBRANCH  18  19
ENDBRANCH   1  18
TORSDOF 8
ENDMDL
MODEL 6
REMARK VINA RESULT:      -7.3      3.940      6.200
REMARK  8 active torsions:
REMARK  status: ('A' for Active; 'I' for Inactive)
REMARK    1  A    between atoms: C_7  and  C_10 
REMARK    2  A    between atoms: C_7  and  C_8 
REMARK    3  A    between atoms: C_7  and  N_19 
REMARK    4  A    between atoms: C_8  and  C_17 
REMARK       I    between atoms: C_10  and  N_11 
REMARK    5  A    between atoms: N_11  and  C_18 
REMARK    6  A    between atoms: C_13  and  C_21 
REMARK    7  A    between atoms: C_14  and  C_18 
REMARK    8  A    between atoms: C_18  and  C_21 
ROOT
HETATM    1  C           1     -20.827  -7.760  -3.416  0.00  0.00     0.190 C 
ENDROOT
BRANCH   1   2
HETATM    2  N           1     -21.989  -7.994  -2.580  0.00  0.00    -0.344 N 
HETATM    3  C           1     -22.008  -7.536  -1.290  0.00  0.00     0.249 C 
HETATM    4  O           1     -22.432  -6.432  -1.047  0.00  0.00    -0.271 OA
HETATM    5  H           1     -22.786  -8.496  -2.951  0.00  0.00     0.163 HD
BRANCH   3   6
HETATM    6  C           1     -21.497  -8.411  -0.172  0.00  0.00     0.278 C 
BRANCH   6   7
HETATM    7  C           1     -22.001  -9.835  -0.370  0.00  0.00     0.021 C 
HETATM    8  C           1     -21.201 -10.784   0.514  0.00  0.00     0.012 C 
BRANCH   7   9
HETATM    9  C           1     -23.474  -9.909   0.010  0.00  0.00     0.002 C 
HETATM   10  C           1     -24.051 -11.240  -0.453  0.00  0.00     0.005 C 
ENDBRANCH   7   9
ENDBRANCH   6   7
BRANCH   6  11
HETATM   11  N           1     -21.993  -7.884   1.141  0.00  0.00    -0.066 N 
HETATM   12  H           1     -21.794  -8.581   1.894  0.00  0.00     0.275 HD
HETATM   13  H           1     -23.023  -7.718   1.084  0.00  0.00     0.275 HD
HETATM   14  H           1     -21.508  -6.986   1.362  0.00  0.00     0.275 HD
ENDBRANCH   6  11
ENDBRANCH   3   6
ENDBRANCH   1   2
BRANCH   1  15
HETATM   15  C           1     -21.137  -6.671  -4.414  0.00  0.00     0.197 C 
HETATM   16  O           1     -20.292  -6.361  -5.282  0.00  0.00    -0.646 OA
HETATM   17  O           1     -22.237  -6.080  -4.372  0.00  0.00    -0.646 OA
ENDBRANCH   1  15
BRANCH   1  18
HETATM   18  C           1     -20.469  -9.042  -4.156  0.00  0.00     0.077 C 
BRANCH  18  19
HETATM   19  C           1     -19.173  -9.576  -3.632  0.00  0.00    -0.028 A 
HETATM   20  C           1     -17.984  -9.779  -4.386  0.00  0.00    -0.002 A 
HETATM   21  C           1     -17.025 -10.289  -3.511  0.00  0.00     0.042 A 
HETATM   22  C           1     -17.632  -9.577  -5.734  0.00  0.00     0.014 A 
HETATM   23  N           1     -17.619 -10.389  -2.273  0.00  0.00    -0.365 N 
HETATM   24  C           1     -15.724 -10.609  -3.917  0.00  0.00     0.030 A 
HETATM   25  C           1     -18.919  -9.960  -2.335  0.00  0.00     0.096 A 
HETATM   26  H           1     -17.145 -10.742  -1.405  0.00  0.00     0.165 HD
HETATM   27  C           1     -15.397 -10.399  -5.261  0.00  0.00     0.002 A 
HETATM   28  C           1     -16.335  -9.891  -6.157  0.00  0.00     0.001 A 
ENDBRANCH  18  19
ENDBRANCH   1  18
TORSDOF 8
ENDMDL
MODEL 7
REMARK VINA RESULT:      -7.3      1.628      7.331
REMARK  8 active torsions:
REMARK  status: ('A' for Active; 'I' for Inactive)
REMARK    1  A    between atoms: C_7  and  C_10 
REMARK    2  A    between atoms: C_7  and  C_8 
REMARK    3  A    between atoms: C_7  and  N_19 
REMARK    4  A    between atoms: C_8  and  C_17 
REMARK       I    between atoms: C_10  and  N_11 
REMARK    5  A    between atoms: N_11  and  C_18 
REMARK    6  A    between atoms: C_13  and  C_21 
REMARK    7  A    between atoms: C_14  and  C_18 
REMARK    8  A    between atoms: C_18  and  C_21 
ROOT
HETATM    1  C           1     -20.102  -7.728  -4.943  0.00  0.00     0.190 C 
ENDROOT
BRANCH   1   2
HETATM    2  N           1     -19.691  -6.825  -5.999  0.00  0.00    -0.344 N 
HETATM    3  C           1     -20.301  -5.607  -6.136  0.00  0.00     0.249 C 
HETATM    4  O           1     -19.863  -4.643  -5.555  0.00  0.00    -0.271 OA
HETATM    5  H           1     -18.952  -7.095  -6.636  0.00  0.00     0.163 HD
BRANCH   3   6
HETATM    6  C           1     -21.523  -5.470  -7.011  0.00  0.00     0.278 C 
BRANCH   6   7
HETATM    7  C           1     -21.269  -4.410  -8.075  0.00  0.00     0.021 C 
HETATM    8  C           1     -20.268  -4.942  -9.093  0.00  0.00     0.012 C 
BRANCH   7   9
HETATM    9  C           1     -22.578  -4.074  -8.778  0.00  0.00     0.002 C 
HETATM   10  C           1     -22.459  -4.408 -10.259  0.00  0.00     0.005 C 
ENDBRANCH   7   9
ENDBRANCH   6   7
BRANCH   6  11
HETATM   11  N           1     -22.696  -5.063  -6.170  0.00  0.00    -0.066 N 
HETATM   12  H           1     -23.295  -5.899  -5.981  0.00  0.00     0.275 HD
HETATM   13  H           1     -23.255  -4.341  -6.678  0.00  0.00     0.275 HD
HETATM   14  H           1     -22.357  -4.667  -5.265  0.00  0.00     0.275 HD
ENDBRANCH   6  11
ENDBRANCH   3   6
ENDBRANCH   1   2
BRANCH   1  15
HETATM   15  C           1     -19.822  -9.151  -5.360  0.00  0.00     0.197 C 
HETATM   16  O           1     -18.656  -9.601  -5.303  0.00  0.00    -0.646 OA
HETATM   17  O           1     -20.754  -9.879  -5.763  0.00  0.00    -0.646 OA
ENDBRANCH   1  15
BRANCH   1  18
HETATM   18  C           1     -21.593  -7.559  -4.683  0.00  0.00     0.077 C 
BRANCH  18  19
HETATM   19  C           1     -21.816  -7.230  -3.240  0.00  0.00    -0.028 A 
HETATM   20  C           1     -21.810  -8.154  -2.159  0.00  0.00    -0.002 A 
HETATM   21  C           1     -22.058  -7.426  -0.995  0.00  0.00     0.042 A 
HETATM   22  C           1     -21.618  -9.545  -2.060  0.00  0.00     0.014 A 
HETATM   23  N           1     -22.207  -6.109  -1.366  0.00  0.00    -0.365 N 
HETATM   24  C           1     -22.123  -8.022   0.270  0.00  0.00     0.030 A 
HETATM   25  C           1     -22.062  -5.979  -2.722  0.00  0.00     0.096 A 
HETATM   26  H           1     -22.403  -5.317  -0.705  0.00  0.00     0.165 HD
HETATM   27  C           1     -21.928  -9.405   0.343  0.00  0.00     0.002 A 
HETATM   28  C           1     -21.679 -10.157  -0.803  0.00  0.00     0.001 A 
ENDBRANCH  18  19
ENDBRANCH   1  18
TORSDOF 8
ENDMDL
MODEL 8
REMARK VINA RESULT:      -7.3      4.374      8.254
REMARK  8 active torsions:
REMARK  status: ('A' for Active; 'I' for Inactive)
REMARK    1  A    between atoms: C_7  and  C_10 
REMARK    2  A    between atoms: C_7  and  C_8 
REMARK    3  A    between atoms: C_7  and  N_19 
REMARK    4  A    between atoms: C_8  and  C_17 
REMARK       I    between atoms: C_10  and  N_11 
REMARK    5  A    between atoms: N_11  and  C_18 
REMARK    6  A    between atoms: C_13  and  C_21 
REMARK    7  A    between atoms: C_14  and  C_18 
REMARK    8  A    between atoms: C_18  and  C_21 
ROOT
HETATM    1  C           1     -21.304  -7.962  -2.691  0.00  0.00     0.190 C 
ENDROOT
BRANCH   1   2
HETATM    2  N           1     -20.432  -7.799  -3.838  0.00  0.00    -0.344 N 
HETATM    3  C           1     -20.459  -8.716  -4.854  0.00  0.00     0.249 C 
HETATM    4  O           1     -21.211  -8.562  -5.787  0.00  0.00    -0.271 OA
HETATM    5  H           1     -19.803  -7.007  -3.887  0.00  0.00     0.163 HD
BRANCH   3   6
HETATM    6  C           1     -19.549  -9.919  -4.809  0.00  0.00     0.278 C 
BRANCH   6   7
HETATM    7  C           1     -18.099  -9.457  -4.740  0.00  0.00     0.021 C 
HETATM    8  C           1     -17.364 -10.250  -3.667  0.00  0.00     0.012 C 
BRANCH   7   9
HETATM    9  C           1     -17.429  -9.687  -6.089  0.00  0.00     0.002 C 
HETATM   10  C           1     -15.935  -9.901  -5.884  0.00  0.00     0.005 C 
ENDBRANCH   7   9
ENDBRANCH   6   7
BRANCH   6  11
HETATM   11  N           1     -19.752 -10.745  -6.044  0.00  0.00    -0.066 N 
HETATM   12  H           1     -19.855 -11.750  -5.776  0.00  0.00     0.275 HD
HETATM   13  H           1     -18.927 -10.636  -6.676  0.00  0.00     0.275 HD
HETATM   14  H           1     -20.615 -10.427  -6.539  0.00  0.00     0.275 HD
ENDBRANCH   6  11
ENDBRANCH   3   6
ENDBRANCH   1   2
BRANCH   1  15
HETATM   15  C           1     -22.091  -6.693  -2.473  0.00  0.00     0.197 C 
HETATM   16  O           1     -22.441  -6.366  -1.318  0.00  0.00    -0.646 OA
HETATM   17  O           1     -22.392  -5.969  -3.446  0.00  0.00    -0.646 OA
ENDBRANCH   1  15
BRANCH   1  18
HETATM   18  C           1     -20.465  -8.260  -1.455  0.00  0.00     0.077 C 
BRANCH  18  19
HETATM   19  C           1     -20.622  -9.699  -1.079  0.00  0.00    -0.028 A 
HETATM   20  C           1     -21.818 -10.323  -0.627  0.00  0.00    -0.002 A 
HETATM   21  C           1     -21.517 -11.665  -0.390  0.00  0.00     0.042 A 
HETATM   22  C           1     -23.130  -9.872  -0.394  0.00  0.00     0.014 A 
HETATM   23  N           1     -20.185 -11.840  -0.691  0.00  0.00    -0.365 N 
HETATM   24  C           1     -22.469 -12.584   0.068  0.00  0.00     0.030 A 
HETATM   25  C           1     -19.634 -10.658  -1.109  0.00  0.00     0.096 A 
HETATM   26  H           1     -19.666 -12.750  -0.612  0.00  0.00     0.165 HD
HETATM   27  C           1     -23.767 -12.112   0.291  0.00  0.00     0.002 A 
HETATM   28  C           1     -24.095 -10.777   0.064  0.00  0.00     0.001 A 
ENDBRANCH  18  19
ENDBRANCH   1  18
TORSDOF 8
ENDMDL
MODEL 9
REMARK VINA RESULT:      -7.2      4.242      7.912
REMARK  8 active torsions:
REMARK  status: ('A' for Active; 'I' for Inactive)
REMARK    1  A    between atoms: C_7  and  C_10 
REMARK    2  A    between atoms: C_7  and  C_8 
REMARK    3  A    between atoms: C_7  and  N_19 
REMARK    4  A    between atoms: C_8  and  C_17 
REMARK       I    between atoms: C_10  and  N_11 
REMARK    5  A    between atoms: N_11  and  C_18 
REMARK    6  A    between atoms: C_13  and  C_21 
REMARK    7  A    between atoms: C_14  and  C_18 
REMARK    8  A    between atoms: C_18  and  C_21 
ROOT
HETATM    1  C           1     -19.602  -9.272  -4.870  0.00  0.00     0.190 C 
ENDROOT
BRANCH   1   2
HETATM    2  N           1     -18.588  -9.592  -5.856  0.00  0.00    -0.344 N 
HETATM    3  C           1     -18.379 -10.893  -6.225  0.00  0.00     0.249 C 
HETATM    4  O           1     -18.996 -11.366  -7.150  0.00  0.00    -0.271 OA
HETATM    5  H           1     -18.036  -8.853  -6.272  0.00  0.00     0.163 HD
BRANCH   3   6
HETATM    6  C           1     -17.378 -11.738  -5.475  0.00  0.00     0.278 C 
BRANCH   6   7
HETATM    7  C           1     -16.040 -11.011  -5.419  0.00  0.00     0.021 C 
HETATM    8  C           1     -15.607 -10.857  -3.967  0.00  0.00     0.012 C 
BRANCH   7   9
HETATM    9  C           1     -14.993 -11.816  -6.178  0.00  0.00     0.002 C 
HETATM   10  C           1     -13.803 -12.087  -5.268  0.00  0.00     0.005 C 
ENDBRANCH   7   9
ENDBRANCH   6   7
BRANCH   6  11
HETATM   11  N           1     -17.204 -13.050  -6.180  0.00  0.00    -0.066 N 
HETATM   12  H           1     -16.452 -13.601  -5.709  0.00  0.00     0.275 HD
HETATM   13  H           1     -16.939 -12.879  -7.176  0.00  0.00     0.275 HD
HETATM   14  H           1     -18.101 -13.586  -6.146  0.00  0.00     0.275 HD
ENDBRANCH   6  11
ENDBRANCH   3   6
ENDBRANCH   1   2
BRANCH   1  15
HETATM   15  C           1     -20.457  -8.137  -5.379  0.00  0.00     0.197 C 
HETATM   16  O           1     -21.678  -8.106  -5.111  0.00  0.00    -0.646 OA
HETATM   17  O           1     -19.944  -7.228  -6.066  0.00  0.00    -0.646 OA
ENDBRANCH   1  15
BRANCH   1  18
HETATM   18  C           1     -18.929  -8.858  -3.568  0.00  0.00     0.077 C 
BRANCH  18  19
HETATM   19  C           1     -19.722  -9.376  -2.409  0.00  0.00    -0.028 A 
HETATM   20  C           1     -20.725  -8.665  -1.694  0.00  0.00    -0.002 A 
HETATM   21  C           1     -21.202  -9.517  -0.699  0.00  0.00     0.042 A 
HETATM   22  C           1     -21.273  -7.373  -1.800  0.00  0.00     0.014 A 
HETATM   23  N           1     -20.509 -10.701  -0.813  0.00  0.00    -0.365 N 
HETATM   24  C           1     -22.207  -9.141   0.202  0.00  0.00     0.030 A 
HETATM   25  C           1     -19.611 -10.626  -1.844  0.00  0.00     0.096 A 
HETATM   26  H           1     -20.648 -11.541  -0.198  0.00  0.00     0.165 HD
HETATM   27  C           1     -22.736  -7.853   0.077  0.00  0.00     0.002 A 
HETATM   28  C           1     -22.278  -6.980  -0.908  0.00  0.00     0.001 A 
ENDBRANCH  18  19
ENDBRANCH   1  18
TORSDOF 8
ENDMDL
