MODEL 1
REMARK VINA RESULT:      -6.6      0.000      0.000
REMARK  9 active torsions:
REMARK  status: ('A' for Active; 'I' for Inactive)
REMARK    1  A    between atoms: N_1  and  C_21 
REMARK       I    between atoms: N_1  and  C_10 
REMARK    2  A    between atoms: N_4  and  C_9 
REMARK    3  A    between atoms: Se_6  and  C_7 
REMARK    4  A    between atoms: C_7  and  C_8 
REMARK    5  A    between atoms: C_8  and  C_9 
REMARK    6  A    between atoms: C_9  and  C_10 
REMARK    7  A    between atoms: C_11  and  C_21 
REMARK    8  A    between atoms: C_21  and  C_22 
REMARK    9  A    between atoms: C_22  and  C_23 
ROOT
HETATM    1  N           1     -35.392  -1.338 -10.047  0.00  0.00    -0.344 N 
HETATM    2  O           1     -33.221  -1.672 -10.451  0.00  0.00    -0.271 OA
HETATM    3  C           1     -34.358  -2.049 -10.596  0.00  0.00     0.249 C 
HETATM    4  H           1     -35.710  -1.551  -9.110  0.00  0.00     0.163 HD
ENDROOT
BRANCH   1   5
HETATM    5  C           1     -36.030  -0.280 -10.806  0.00  0.00     0.189 C 
BRANCH   5   6
HETATM    6  C           1     -36.903   0.539  -9.889  0.00  0.00     0.197 C 
HETATM    7  O           1     -36.461   0.928  -8.787  0.00  0.00    -0.646 OA
HETATM    8  O           1     -38.070   0.829 -10.233  0.00  0.00    -0.646 OA
ENDBRANCH   5   6
BRANCH   5   9
HETATM    9  C           1     -36.883  -0.893 -11.909  0.00  0.00     0.074 C 
BRANCH   9  10
HETATM   10  C           1     -36.552  -0.241 -13.216  0.00  0.00    -0.056 A 
HETATM   11  C           1     -37.521  -0.154 -14.216  0.00  0.00     0.007 A 
HETATM   12  C           1     -37.214   0.453 -15.434  0.00  0.00     0.001 A 
HETATM   13  C           1     -35.938   0.973 -15.651  0.00  0.00     0.000 A 
HETATM   14  C           1     -34.970   0.886 -14.651  0.00  0.00     0.001 A 
HETATM   15  C           1     -35.277   0.278 -13.434  0.00  0.00     0.007 A 
ENDBRANCH   9  10
ENDBRANCH   5   9
ENDBRANCH   1   5
BRANCH   3  16
HETATM   16  C           1     -34.643  -3.304 -11.385  0.00  0.00     0.274 C 
BRANCH  16  17
HETATM   17  N           1     -34.198  -3.114 -12.805  0.00  0.00    -0.067 N 
HETATM   18  H           1     -34.468  -2.158 -13.131  0.00  0.00     0.275 HD
HETATM   19  H           1     -33.160  -3.221 -12.862  0.00  0.00     0.275 HD
HETATM   20  H           1     -34.656  -3.831 -13.413  0.00  0.00     0.275 HD
ENDBRANCH  16  17
BRANCH  16  21
HETATM   21  C           1     -33.885  -4.474 -10.770  0.00  0.00     0.042 C 
BRANCH  21  22
HETATM   22  C           1     -34.487  -5.783 -11.262  0.00  0.00     0.003 C 
BRANCH  22  23
HETATM   23 Se           1     -34.999  -6.878  -9.733  0.00  0.00     0.000 Se
HETATM   24  C           1     -33.913  -8.410 -10.258  0.00  0.00     0.000 C 
ENDBRANCH  22  23
ENDBRANCH  21  22
ENDBRANCH  16  21
ENDBRANCH   3  16
TORSDOF 9
ENDMDL
MODEL 2
REMARK VINA RESULT:      -6.3     14.580     18.095
REMARK  9 active torsions:
REMARK  status: ('A' for Active; 'I' for Inactive)
REMARK    1  A    between atoms: N_1  and  C_21 
REMARK       I    between atoms: N_1  and  C_10 
REMARK    2  A    between atoms: N_4  and  C_9 
REMARK    3  A    between atoms: Se_6  and  C_7 
REMARK    4  A    between atoms: C_7  and  C_8 
REMARK    5  A    between atoms: C_8  and  C_9 
REMARK    6  A    between atoms: C_9  and  C_10 
REMARK    7  A    between atoms: C_11  and  C_21 
REMARK    8  A    between atoms: C_21  and  C_22 
REMARK    9  A    between atoms: C_22  and  C_23 
ROOT
HETATM    1  N           1     -20.914  -7.741  -5.904  0.00  0.00    -0.344 N 
HETATM    2  O           1     -19.553  -6.543  -7.208  0.00  0.00    -0.271 OA
HETATM    3  C           1     -20.457  -6.552  -6.407  0.00  0.00     0.249 C 
HETATM    4  H           1     -21.664  -8.233  -6.374  0.00  0.00     0.163 HD
ENDROOT
BRANCH   1   5
HETATM    5  C           1     -20.326  -8.294  -4.700  0.00  0.00     0.189 C 
BRANCH   5   6
HETATM    6  C           1     -19.159  -9.175  -5.071  0.00  0.00     0.197 C 
HETATM    7  O           1     -19.221  -9.899  -6.088  0.00  0.00    -0.646 OA
HETATM    8  O           1     -18.131  -9.181  -4.360  0.00  0.00    -0.646 OA
ENDBRANCH   5   6
BRANCH   5   9
HETATM    9  C           1     -21.371  -9.118  -3.958  0.00  0.00     0.074 C 
BRANCH   9  10
HETATM   10  C           1     -21.720  -8.439  -2.671  0.00  0.00    -0.056 A 
HETATM   11  C           1     -21.828  -7.049  -2.623  0.00  0.00     0.007 A 
HETATM   12  C           1     -22.154  -6.415  -1.424  0.00  0.00     0.001 A 
HETATM   13  C           1     -22.370  -7.172  -0.272  0.00  0.00     0.000 A 
HETATM   14  C           1     -22.262  -8.562  -0.320  0.00  0.00     0.001 A 
HETATM   15  C           1     -21.936  -9.195  -1.519  0.00  0.00     0.007 A 
ENDBRANCH   9  10
ENDBRANCH   5   9
ENDBRANCH   1   5
BRANCH   3  16
HETATM   16  C           1     -21.082  -5.254  -5.959  0.00  0.00     0.274 C 
BRANCH  16  17
HETATM   17  N           1     -20.185  -4.585  -4.959  0.00  0.00    -0.067 N 
HETATM   18  H           1     -19.388  -5.220  -4.726  0.00  0.00     0.275 HD
HETATM   19  H           1     -19.815  -3.696  -5.363  0.00  0.00     0.275 HD
HETATM   20  H           1     -20.727  -4.374  -4.091  0.00  0.00     0.275 HD
ENDBRANCH  16  17
BRANCH  16  21
HETATM   21  C           1     -21.269  -4.338  -7.162  0.00  0.00     0.042 C 
BRANCH  21  22
HETATM   22  C           1     -22.718  -4.401  -7.627  0.00  0.00     0.003 C 
BRANCH  22  23
HETATM   23 Se           1     -22.777  -4.366  -9.574  0.00  0.00     0.000 Se
HETATM   24  C           1     -24.473  -3.407  -9.669  0.00  0.00     0.000 C 
ENDBRANCH  22  23
ENDBRANCH  21  22
ENDBRANCH  16  21
ENDBRANCH   3  16
TORSDOF 9
ENDMDL
MODEL 3
REMARK VINA RESULT:      -6.1     15.070     17.083
REMARK  9 active torsions:
REMARK  status: ('A' for Active; 'I' for Inactive)
REMARK    1  A    between atoms: N_1  and  C_21 
REMARK       I    between atoms: N_1  and  C_10 
REMARK    2  A    between atoms: N_4  and  C_9 
REMARK    3  A    between atoms: Se_6  and  C_7 
REMARK    4  A    between atoms: C_7  and  C_8 
REMARK    5  A    between atoms: C_8  and  C_9 
REMARK    6  A    between atoms: C_9  and  C_10 
REMARK    7  A    between atoms: C_11  and  C_21 
REMARK    8  A    between atoms: C_21  and  C_22 
REMARK    9  A    between atoms: C_22  and  C_23 
ROOT
HETATM    1  N           1     -22.474  -6.461  -4.015  0.00  0.00    -0.344 N 
HETATM    2  O           1     -21.446  -5.326  -2.390  0.00  0.00    -0.271 OA
HETATM    3  C           1     -21.858  -6.386  -2.794  0.00  0.00     0.249 C 
HETATM    4  H           1     -23.476  -6.334  -4.084  0.00  0.00     0.163 HD
ENDROOT
BRANCH   1   5
HETATM    5  C           1     -21.693  -6.723  -5.208  0.00  0.00     0.189 C 
BRANCH   5   6
HETATM    6  C           1     -20.908  -7.998  -5.024  0.00  0.00     0.197 C 
HETATM    7  O           1     -21.496  -9.100  -5.032  0.00  0.00    -0.646 OA
HETATM    8  O           1     -19.669  -7.951  -4.865  0.00  0.00    -0.646 OA
ENDBRANCH   5   6
BRANCH   5   9
HETATM    9  C           1     -20.733  -5.565  -5.449  0.00  0.00     0.074 C 
BRANCH   9  10
HETATM   10  C           1     -20.924  -5.039  -6.838  0.00  0.00    -0.056 A 
HETATM   11  C           1     -22.129  -4.433  -7.194  0.00  0.00     0.007 A 
HETATM   12  C           1     -22.308  -3.942  -8.488  0.00  0.00     0.001 A 
HETATM   13  C           1     -21.281  -4.060  -9.426  0.00  0.00     0.000 A 
HETATM   14  C           1     -20.077  -4.667  -9.069  0.00  0.00     0.001 A 
HETATM   15  C           1     -19.899  -5.157  -7.776  0.00  0.00     0.007 A 
ENDBRANCH   9  10
ENDBRANCH   5   9
ENDBRANCH   1   5
BRANCH   3  16
HETATM   16  C           1     -21.694  -7.630  -1.955  0.00  0.00     0.274 C 
BRANCH  16  17
HETATM   17  N           1     -20.234  -7.894  -1.733  0.00  0.00    -0.067 N 
HETATM   18  H           1     -19.686  -7.539  -2.549  0.00  0.00     0.275 HD
HETATM   19  H           1     -19.920  -7.406  -0.864  0.00  0.00     0.275 HD
HETATM   20  H           1     -20.078  -8.922  -1.630  0.00  0.00     0.275 HD
ENDBRANCH  16  17
BRANCH  16  21
HETATM   21  C           1     -22.383  -7.431  -0.611  0.00  0.00     0.042 C 
BRANCH  21  22
HETATM   22  C           1     -22.087  -8.622   0.291  0.00  0.00     0.003 C 
BRANCH  22  23
HETATM   23 Se           1     -23.059 -10.183  -0.354  0.00  0.00     0.000 Se
HETATM   24  C           1     -21.464 -11.278  -0.601  0.00  0.00     0.000 C 
ENDBRANCH  22  23
ENDBRANCH  21  22
ENDBRANCH  16  21
ENDBRANCH   3  16
TORSDOF 9
ENDMDL
MODEL 4
REMARK VINA RESULT:      -6.0     17.256     19.841
REMARK  9 active torsions:
REMARK  status: ('A' for Active; 'I' for Inactive)
REMARK    1  A    between atoms: N_1  and  C_21 
REMARK       I    between atoms: N_1  and  C_10 
REMARK    2  A    between atoms: N_4  and  C_9 
REMARK    3  A    between atoms: Se_6  and  C_7 
REMARK    4  A    between atoms: C_7  and  C_8 
REMARK    5  A    between atoms: C_8  and  C_9 
REMARK    6  A    between atoms: C_9  and  C_10 
REMARK    7  A    between atoms: C_11  and  C_21 
REMARK    8  A    between atoms: C_21  and  C_22 
REMARK    9  A    between atoms: C_22  and  C_23 
ROOT
HETATM    1  N           1     -19.577  -8.230  -4.372  0.00  0.00    -0.344 N 
HETATM    2  O           1     -19.027 -10.356  -4.777  0.00  0.00    -0.271 OA
HETATM    3  C           1     -18.961  -9.406  -4.036  0.00  0.00     0.249 C 
HETATM    4  H           1     -19.074  -7.529  -4.902  0.00  0.00     0.163 HD
ENDROOT
BRANCH   1   5
HETATM    5  C           1     -20.949  -7.988  -3.971  0.00  0.00     0.189 C 
BRANCH   5   6
HETATM    6  C           1     -21.656  -7.201  -5.047  0.00  0.00     0.197 C 
HETATM    7  O           1     -22.558  -6.393  -4.739  0.00  0.00    -0.646 OA
HETATM    8  O           1     -21.338  -7.358  -6.245  0.00  0.00    -0.646 OA
ENDBRANCH   5   6
BRANCH   5   9
HETATM    9  C           1     -20.965  -7.197  -2.669  0.00  0.00     0.074 C 
BRANCH   9  10
HETATM   10  C           1     -21.765  -7.939  -1.644  0.00  0.00    -0.056 A 
HETATM   11  C           1     -22.343  -7.248  -0.578  0.00  0.00     0.007 A 
HETATM   12  C           1     -23.090  -7.938   0.377  0.00  0.00     0.001 A 
HETATM   13  C           1     -23.258  -9.319   0.266  0.00  0.00     0.000 A 
HETATM   14  C           1     -22.680 -10.008  -0.800  0.00  0.00     0.001 A 
HETATM   15  C           1     -21.933  -9.318  -1.754  0.00  0.00     0.007 A 
ENDBRANCH   9  10
ENDBRANCH   5   9
ENDBRANCH   1   5
BRANCH   3  16
HETATM   16  C           1     -18.202  -9.514  -2.736  0.00  0.00     0.274 C 
BRANCH  16  17
HETATM   17  N           1     -18.601 -10.774  -2.026  0.00  0.00    -0.067 N 
HETATM   18  H           1     -19.564 -11.050  -2.321  0.00  0.00     0.275 HD
HETATM   19  H           1     -17.929 -11.537  -2.269  0.00  0.00     0.275 HD
HETATM   20  H           1     -18.585 -10.612  -0.994  0.00  0.00     0.275 HD
ENDBRANCH  16  17
BRANCH  16  21
HETATM   21  C           1     -16.706  -9.546  -3.022  0.00  0.00     0.042 C 
BRANCH  21  22
HETATM   22  C           1     -16.064 -10.686  -2.243  0.00  0.00     0.003 C 
BRANCH  22  23
HETATM   23 Se           1     -15.102 -11.853  -3.472  0.00  0.00     0.000 Se
HETATM   24  C           1     -15.492 -10.780  -5.053  0.00  0.00     0.000 C 
ENDBRANCH  22  23
ENDBRANCH  21  22
ENDBRANCH  16  21
ENDBRANCH   3  16
TORSDOF 9
ENDMDL
MODEL 5
REMARK VINA RESULT:      -6.0     10.007     11.396
REMARK  9 active torsions:
REMARK  status: ('A' for Active; 'I' for Inactive)
REMARK    1  A    between atoms: N_1  and  C_21 
REMARK       I    between atoms: N_1  and  C_10 
REMARK    2  A    between atoms: N_4  and  C_9 
REMARK    3  A    between atoms: Se_6  and  C_7 
REMARK    4  A    between atoms: C_7  and  C_8 
REMARK    5  A    between atoms: C_8  and  C_9 
REMARK    6  A    between atoms: C_9  and  C_10 
REMARK    7  A    between atoms: C_11  and  C_21 
REMARK    8  A    between atoms: C_21  and  C_22 
REMARK    9  A    between atoms: C_22  and  C_23 
ROOT
HETATM    1  N           1     -26.937  -7.261 -16.651  0.00  0.00    -0.344 N 
HETATM    2  O           1     -25.369  -7.047 -15.076  0.00  0.00    -0.271 OA
HETATM    3  C           1     -25.648  -7.032 -16.250  0.00  0.00     0.249 C 
HETATM    4  H           1     -27.244  -8.205 -16.850  0.00  0.00     0.163 HD
ENDROOT
BRANCH   1   5
HETATM    5  C           1     -27.862  -6.154 -16.791  0.00  0.00     0.189 C 
BRANCH   5   6
HETATM    6  C           1     -28.292  -5.684 -15.424  0.00  0.00     0.197 C 
HETATM    7  O           1     -28.879  -6.470 -14.649  0.00  0.00    -0.646 OA
HETATM    8  O           1     -28.062  -4.509 -15.066  0.00  0.00    -0.646 OA
ENDBRANCH   5   6
BRANCH   5   9
HETATM    9  C           1     -29.082  -6.608 -17.581  0.00  0.00     0.074 C 
BRANCH   9  10
HETATM   10  C           1     -30.142  -5.553 -17.514  0.00  0.00    -0.056 A 
HETATM   11  C           1     -31.406  -5.867 -17.013  0.00  0.00     0.007 A 
HETATM   12  C           1     -32.394  -4.885 -16.949  0.00  0.00     0.001 A 
HETATM   13  C           1     -32.118  -3.589 -17.388  0.00  0.00     0.000 A 
HETATM   14  C           1     -30.854  -3.276 -17.888  0.00  0.00     0.001 A 
HETATM   15  C           1     -29.867  -4.259 -17.951  0.00  0.00     0.007 A 
ENDBRANCH   9  10
ENDBRANCH   5   9
ENDBRANCH   1   5
BRANCH   3  16
HETATM   16  C           1     -24.576  -6.760 -17.277  0.00  0.00     0.274 C 
BRANCH  16  17
HETATM   17  N           1     -23.451  -7.737 -17.096  0.00  0.00    -0.067 N 
HETATM   18  H           1     -23.770  -8.693 -17.372  0.00  0.00     0.275 HD
HETATM   19  H           1     -22.644  -7.452 -17.696  0.00  0.00     0.275 HD
HETATM   20  H           1     -23.153  -7.745 -16.094  0.00  0.00     0.275 HD
ENDBRANCH  16  17
BRANCH  16  21
HETATM   21  C           1     -25.160  -6.915 -18.675  0.00  0.00     0.042 C 
BRANCH  21  22
HETATM   22  C           1     -24.078  -7.409 -19.626  0.00  0.00     0.003 C 
BRANCH  22  23
HETATM   23 Se           1     -24.878  -7.850 -21.347  0.00  0.00     0.000 Se
HETATM   24  C           1     -23.189  -8.339 -22.191  0.00  0.00     0.000 C 
ENDBRANCH  22  23
ENDBRANCH  21  22
ENDBRANCH  16  21
ENDBRANCH   3  16
TORSDOF 9
ENDMDL
MODEL 6
REMARK VINA RESULT:      -6.0      5.711      7.665
REMARK  9 active torsions:
REMARK  status: ('A' for Active; 'I' for Inactive)
REMARK    1  A    between atoms: N_1  and  C_21 
REMARK       I    between atoms: N_1  and  C_10 
REMARK    2  A    between atoms: N_4  and  C_9 
REMARK    3  A    between atoms: Se_6  and  C_7 
REMARK    4  A    between atoms: C_7  and  C_8 
REMARK    5  A    between atoms: C_8  and  C_9 
REMARK    6  A    between atoms: C_9  and  C_10 
REMARK    7  A    between atoms: C_11  and  C_21 
REMARK    8  A    between atoms: C_21  and  C_22 
REMARK    9  A    between atoms: C_22  and  C_23 
ROOT
HETATM    1  N           1     -33.886  -4.537 -15.654  0.00  0.00    -0.344 N 
HETATM    2  O           1     -34.577  -2.863 -14.347  0.00  0.00    -0.271 OA
HETATM    3  C           1     -34.143  -3.987 -14.427  0.00  0.00     0.249 C 
HETATM    4  H           1     -34.609  -5.054 -16.138  0.00  0.00     0.163 HD
ENDROOT
BRANCH   1   5
HETATM    5  C           1     -32.579  -4.379 -16.262  0.00  0.00     0.189 C 
BRANCH   5   6
HETATM    6  C           1     -32.641  -3.297 -17.311  0.00  0.00     0.197 C 
HETATM    7  O           1     -31.615  -2.995 -17.959  0.00  0.00    -0.646 OA
HETATM    8  O           1     -33.718  -2.703 -17.533  0.00  0.00    -0.646 OA
ENDBRANCH   5   6
BRANCH   5   9
HETATM    9  C           1     -32.158  -5.692 -16.909  0.00  0.00     0.074 C 
BRANCH   9  10
HETATM   10  C           1     -30.664  -5.789 -16.916  0.00  0.00    -0.056 A 
HETATM   11  C           1     -29.997  -6.180 -18.077  0.00  0.00     0.007 A 
HETATM   12  C           1     -28.605  -6.270 -18.085  0.00  0.00     0.001 A 
HETATM   13  C           1     -27.881  -5.970 -16.931  0.00  0.00     0.000 A 
HETATM   14  C           1     -28.549  -5.579 -15.770  0.00  0.00     0.001 A 
HETATM   15  C           1     -29.940  -5.490 -15.763  0.00  0.00     0.007 A 
ENDBRANCH   9  10
ENDBRANCH   5   9
ENDBRANCH   1   5
BRANCH   3  16
HETATM   16  C           1     -33.882  -4.786 -13.174  0.00  0.00     0.274 C 
BRANCH  16  17
HETATM   17  N           1     -32.462  -4.580 -12.735  0.00  0.00    -0.067 N 
HETATM   18  H           1     -32.438  -3.912 -11.933  0.00  0.00     0.275 HD
HETATM   19  H           1     -32.053  -5.495 -12.439  0.00  0.00     0.275 HD
HETATM   20  H           1     -31.905  -4.191 -13.529  0.00  0.00     0.275 HD
ENDBRANCH  16  17
BRANCH  16  21
HETATM   21  C           1     -34.825  -4.324 -12.070  0.00  0.00     0.042 C 
BRANCH  21  22
HETATM   22  C           1     -34.024  -4.033 -10.807  0.00  0.00     0.003 C 
BRANCH  22  23
HETATM   23 Se           1     -33.880  -2.105 -10.560  0.00  0.00     0.000 Se
HETATM   24  C           1     -35.768  -1.756 -10.903  0.00  0.00     0.000 C 
ENDBRANCH  22  23
ENDBRANCH  21  22
ENDBRANCH  16  21
ENDBRANCH   3  16
TORSDOF 9
ENDMDL
MODEL 7
REMARK VINA RESULT:      -6.0     17.538     19.390
REMARK  9 active torsions:
REMARK  status: ('A' for Active; 'I' for Inactive)
REMARK    1  A    between atoms: N_1  and  C_21 
REMARK       I    between atoms: N_1  and  C_10 
REMARK    2  A    between atoms: N_4  and  C_9 
REMARK    3  A    between atoms: Se_6  and  C_7 
REMARK    4  A    between atoms: C_7  and  C_8 
REMARK    5  A    between atoms: C_8  and  C_9 
REMARK    6  A    between atoms: C_9  and  C_10 
REMARK    7  A    between atoms: C_11  and  C_21 
REMARK    8  A    between atoms: C_21  and  C_22 
REMARK    9  A    between atoms: C_22  and  C_23 
ROOT
HETATM    1  N           1     -20.058  -7.918  -3.732  0.00  0.00    -0.344 N 
HETATM    2  O           1     -20.013  -7.961  -5.964  0.00  0.00    -0.271 OA
HETATM    3  C           1     -19.872  -8.561  -4.927  0.00  0.00     0.249 C 
HETATM    4  H           1     -19.279  -7.459  -3.278  0.00  0.00     0.163 HD
ENDROOT
BRANCH   1   5
HETATM    5  C           1     -21.371  -7.894  -3.118  0.00  0.00     0.189 C 
BRANCH   5   6
HETATM    6  C           1     -21.927  -6.493  -3.177  0.00  0.00     0.197 C 
HETATM    7  O           1     -22.062  -5.920  -4.280  0.00  0.00    -0.646 OA
HETATM    8  O           1     -22.254  -5.905  -2.123  0.00  0.00    -0.646 OA
ENDBRANCH   5   6
BRANCH   5   9
HETATM    9  C           1     -21.259  -8.335  -1.664  0.00  0.00     0.074 C 
BRANCH   9  10
HETATM   10  C           1     -22.203  -9.469  -1.412  0.00  0.00    -0.056 A 
HETATM   11  C           1     -22.968  -9.493  -0.246  0.00  0.00     0.007 A 
HETATM   12  C           1     -23.849 -10.549  -0.010  0.00  0.00     0.001 A 
HETATM   13  C           1     -23.964 -11.581  -0.942  0.00  0.00     0.000 A 
HETATM   14  C           1     -23.199 -11.557  -2.108  0.00  0.00     0.001 A 
HETATM   15  C           1     -22.318 -10.501  -2.342  0.00  0.00     0.007 A 
ENDBRANCH   9  10
ENDBRANCH   5   9
ENDBRANCH   1   5
BRANCH   3  16
HETATM   16  C           1     -19.491 -10.021  -4.945  0.00  0.00     0.274 C 
BRANCH  16  17
HETATM   17  N           1     -18.689 -10.314  -6.179  0.00  0.00    -0.067 N 
HETATM   18  H           1     -17.899  -9.634  -6.250  0.00  0.00     0.275 HD
HETATM   19  H           1     -18.309 -11.286  -6.124  0.00  0.00     0.275 HD
HETATM   20  H           1     -19.301 -10.226  -7.021  0.00  0.00     0.275 HD
ENDBRANCH  16  17
BRANCH  16  21
HETATM   21  C           1     -18.659 -10.346  -3.711  0.00  0.00     0.042 C 
BRANCH  21  22
HETATM   22  C           1     -17.225 -10.642  -4.130  0.00  0.00     0.003 C 
BRANCH  22  23
HETATM   23 Se           1     -15.997  -9.892  -2.816  0.00  0.00     0.000 Se
HETATM   24  C           1     -16.295 -11.295  -1.495  0.00  0.00     0.000 C 
ENDBRANCH  22  23
ENDBRANCH  21  22
ENDBRANCH  16  21
ENDBRANCH   3  16
TORSDOF 9
ENDMDL
MODEL 8
REMARK VINA RESULT:      -5.9     17.185     19.206
REMARK  9 active torsions:
REMARK  status: ('A' for Active; 'I' for Inactive)
REMARK    1  A    between atoms: N_1  and  C_21 
REMARK       I    between atoms: N_1  and  C_10 
REMARK    2  A    between atoms: N_4  and  C_9 
REMARK    3  A    between atoms: Se_6  and  C_7 
REMARK    4  A    between atoms: C_7  and  C_8 
REMARK    5  A    between atoms: C_8  and  C_9 
REMARK    6  A    between atoms: C_9  and  C_10 
REMARK    7  A    between atoms: C_11  and  C_21 
REMARK    8  A    between atoms: C_21  and  C_22 
REMARK    9  A    between atoms: C_22  and  C_23 
ROOT
HETATM    1  N           1     -21.672  -7.629  -3.743  0.00  0.00    -0.344 N 
HETATM    2  O           1     -22.148  -5.872  -2.450  0.00  0.00    -0.271 OA
HETATM    3  C           1     -21.775  -7.018  -2.522  0.00  0.00     0.249 C 
HETATM    4  H           1     -22.464  -8.129  -4.127  0.00  0.00     0.163 HD
ENDROOT
BRANCH   1   5
HETATM    5  C           1     -20.430  -7.560  -4.488  0.00  0.00     0.189 C 
BRANCH   5   6
HETATM    6  C           1     -20.572  -6.563  -5.610  0.00  0.00     0.197 C 
HETATM    7  O           1     -20.823  -6.958  -6.769  0.00  0.00    -0.646 OA
HETATM    8  O           1     -20.439  -5.341  -5.381  0.00  0.00    -0.646 OA
ENDBRANCH   5   6
BRANCH   5   9
HETATM    9  C           1     -20.107  -8.932  -5.064  0.00  0.00     0.074 C 
BRANCH   9  10
HETATM   10  C           1     -18.686  -9.284  -4.749  0.00  0.00    -0.056 A 
HETATM   11  C           1     -17.802  -9.601  -5.780  0.00  0.00     0.007 A 
HETATM   12  C           1     -16.478  -9.928  -5.488  0.00  0.00     0.001 A 
HETATM   13  C           1     -16.039  -9.941  -4.163  0.00  0.00     0.000 A 
HETATM   14  C           1     -16.924  -9.624  -3.133  0.00  0.00     0.001 A 
HETATM   15  C           1     -18.247  -9.297  -3.425  0.00  0.00     0.007 A 
ENDBRANCH   9  10
ENDBRANCH   5   9
ENDBRANCH   1   5
BRANCH   3  16
HETATM   16  C           1     -21.421  -7.777  -1.267  0.00  0.00     0.274 C 
BRANCH  16  17
HETATM   17  N           1     -22.305  -7.324  -0.143  0.00  0.00    -0.067 N 
HETATM   18  H           1     -23.035  -8.049   0.042  0.00  0.00     0.275 HD
HETATM   19  H           1     -21.729  -7.183   0.718  0.00  0.00     0.275 HD
HETATM   20  H           1     -22.767  -6.424  -0.403  0.00  0.00     0.275 HD
ENDBRANCH  16  17
BRANCH  16  21
HETATM   21  C           1     -21.624  -9.269  -1.501  0.00  0.00     0.042 C 
BRANCH  21  22
HETATM   22  C           1     -22.610  -9.814  -0.476  0.00  0.00     0.003 C 
BRANCH  22  23
HETATM   23 Se           1     -23.664 -11.240  -1.284  0.00  0.00     0.000 Se
HETATM   24  C           1     -22.761 -11.152  -3.011  0.00  0.00     0.000 C 
ENDBRANCH  22  23
ENDBRANCH  21  22
ENDBRANCH  16  21
ENDBRANCH   3  16
TORSDOF 9
ENDMDL
MODEL 9
REMARK VINA RESULT:      -5.8     17.003     19.349
REMARK  9 active torsions:
REMARK  status: ('A' for Active; 'I' for Inactive)
REMARK    1  A    between atoms: N_1  and  C_21 
REMARK       I    between atoms: N_1  and  C_10 
REMARK    2  A    between atoms: N_4  and  C_9 
REMARK    3  A    between atoms: Se_6  and  C_7 
REMARK    4  A    between atoms: C_7  and  C_8 
REMARK    5  A    between atoms: C_8  and  C_9 
REMARK    6  A    between atoms: C_9  and  C_10 
REMARK    7  A    between atoms: C_11  and  C_21 
REMARK    8  A    between atoms: C_21  and  C_22 
REMARK    9  A    between atoms: C_22  and  C_23 
ROOT
HETATM    1  N           1     -20.033  -8.130  -4.525  0.00  0.00    -0.344 N 
HETATM    2  O           1     -20.407  -9.825  -5.931  0.00  0.00    -0.271 OA
HETATM    3  C           1     -19.968  -9.454  -4.869  0.00  0.00     0.249 C 
HETATM    4  H           1     -19.274  -7.507  -4.769  0.00  0.00     0.163 HD
ENDROOT
BRANCH   1   5
HETATM    5  C           1     -21.189  -7.621  -3.813  0.00  0.00     0.189 C 
BRANCH   5   6
HETATM    6  C           1     -21.666  -6.352  -4.473  0.00  0.00     0.197 C 
HETATM    7  O           1     -22.878  -6.204  -4.742  0.00  0.00    -0.646 OA
HETATM    8  O           1     -20.849  -5.447  -4.750  0.00  0.00    -0.646 OA
ENDBRANCH   5   6
BRANCH   5   9
HETATM    9  C           1     -20.806  -7.331  -2.368  0.00  0.00     0.074 C 
BRANCH   9  10
HETATM   10  C           1     -21.737  -8.059  -1.449  0.00  0.00    -0.056 A 
HETATM   11  C           1     -22.318  -7.389  -0.372  0.00  0.00     0.007 A 
HETATM   12  C           1     -23.186  -8.065   0.485  0.00  0.00     0.001 A 
HETATM   13  C           1     -23.472  -9.413   0.265  0.00  0.00     0.000 A 
HETATM   14  C           1     -22.891 -10.083  -0.812  0.00  0.00     0.001 A 
HETATM   15  C           1     -22.023  -9.405  -1.668  0.00  0.00     0.007 A 
ENDBRANCH   9  10
ENDBRANCH   5   9
ENDBRANCH   1   5
BRANCH   3  16
HETATM   16  C           1     -19.349 -10.450  -3.920  0.00  0.00     0.274 C 
BRANCH  16  17
HETATM   17  N           1     -18.805 -11.612  -4.698  0.00  0.00    -0.067 N 
HETATM   18  H           1     -19.559 -12.011  -5.301  0.00  0.00     0.275 HD
HETATM   19  H           1     -18.013 -11.289  -5.298  0.00  0.00     0.275 HD
HETATM   20  H           1     -18.464 -12.346  -4.036  0.00  0.00     0.275 HD
ENDBRANCH  16  17
BRANCH  16  21
HETATM   21  C           1     -18.216  -9.783  -3.150  0.00  0.00     0.042 C 
BRANCH  21  22
HETATM   22  C           1     -17.552 -10.804  -2.237  0.00  0.00     0.003 C 
BRANCH  22  23
HETATM   23 Se           1     -18.886 -11.568  -1.038  0.00  0.00     0.000 Se
HETATM   24  C           1     -17.584 -12.212   0.264  0.00  0.00     0.000 C 
ENDBRANCH  22  23
ENDBRANCH  21  22
ENDBRANCH  16  21
ENDBRANCH   3  16
TORSDOF 9
ENDMDL
