MODEL 1
REMARK VINA RESULT:      -4.9      0.000      0.000
REMARK  10 active torsions:
REMARK  status: ('A' for Active; 'I' for Inactive)
REMARK    1  A    between atoms: C_1  and  C_2 
REMARK    2  A    between atoms: C_1  and  S_20 
REMARK    3  A    between atoms: C_2  and  C_3 
REMARK    4  A    between atoms: C_2  and  N_19 
REMARK       I    between atoms: C_3  and  N_22 
REMARK    5  A    between atoms: C_8  and  C_9 
REMARK    6  A    between atoms: C_8  and  C_11 
REMARK    7  A    between atoms: C_8  and  N_22 
REMARK    8  A    between atoms: C_9  and  C_13 
REMARK    9  A    between atoms: C_13  and  C_14 
REMARK   10  A    between atoms: C_14  and  N_15 
ROOT
HETATM    1  C           1     -21.534  -6.389  -4.335  0.00  0.00     0.249 C 
HETATM    2  O           1     -22.221  -7.280  -4.775  0.00  0.00    -0.271 OA
HETATM    3  N           1     -21.031  -5.433  -5.176  0.00  0.00    -0.345 N 
HETATM    4  H           1     -20.454  -4.688  -4.807  0.00  0.00     0.163 HD
ENDROOT
BRANCH   3   5
HETATM    5  C           1     -21.321  -5.491  -6.596  0.00  0.00     0.185 C 
BRANCH   5   6
HETATM    6  C           1     -21.895  -4.157  -7.050  0.00  0.00     0.038 C 
BRANCH   6   7
HETATM    7  C           1     -23.322  -4.358  -7.545  0.00  0.00     0.030 C 
BRANCH   7   8
HETATM    8  C           1     -23.426  -3.906  -8.995  0.00  0.00     0.230 C 
BRANCH   8   9
HETATM    9  N           1     -24.713  -3.162  -9.198  0.00  0.00    -0.079 N 
HETATM   10  H           1     -25.172  -3.003  -8.273  0.00  0.00     0.274 HD
HETATM   11  H           1     -25.348  -3.725  -9.809  0.00  0.00     0.274 HD
HETATM   12  H           1     -24.516  -2.243  -9.653  0.00  0.00     0.274 HD
ENDBRANCH   8   9
ENDBRANCH   7   8
ENDBRANCH   6   7
ENDBRANCH   5   6
BRANCH   5  13
HETATM   13  C           1     -20.051  -5.779  -7.358  0.00  0.00     0.196 C 
HETATM   14  O           1     -19.662  -4.990  -8.246  0.00  0.00    -0.646 OA
HETATM   15  O           1     -19.387  -6.807  -7.101  0.00  0.00    -0.646 OA
ENDBRANCH   5  13
ENDBRANCH   3   5
BRANCH   1  16
HETATM   16  C           1     -21.232  -6.329  -2.858  0.00  0.00     0.283 C 
BRANCH  16  17
HETATM   17  C           1     -20.813  -7.708  -2.368  0.00  0.00     0.113 C 
BRANCH  17  18
HETATM   18  S           1     -21.818  -8.171  -0.928  0.00  0.00    -0.180 SA
HETATM   19  H           1     -20.792  -8.604  -0.174  0.00  0.00     0.101 HD
ENDBRANCH  17  18
ENDBRANCH  16  17
BRANCH  16  20
HETATM   20  N           1     -22.458  -5.887  -2.115  0.00  0.00    -0.066 N 
HETATM   21  H           1     -23.043  -6.719  -1.882  0.00  0.00     0.275 HD
HETATM   22  H           1     -23.009  -5.229  -2.713  0.00  0.00     0.275 HD
HETATM   23  H           1     -22.176  -5.401  -1.233  0.00  0.00     0.275 HD
ENDBRANCH  16  20
ENDBRANCH   1  16
TORSDOF 10
ENDMDL
MODEL 2
REMARK VINA RESULT:      -4.9      3.120      5.860
REMARK  10 active torsions:
REMARK  status: ('A' for Active; 'I' for Inactive)
REMARK    1  A    between atoms: C_1  and  C_2 
REMARK    2  A    between atoms: C_1  and  S_20 
REMARK    3  A    between atoms: C_2  and  C_3 
REMARK    4  A    between atoms: C_2  and  N_19 
REMARK       I    between atoms: C_3  and  N_22 
REMARK    5  A    between atoms: C_8  and  C_9 
REMARK    6  A    between atoms: C_8  and  C_11 
REMARK    7  A    between atoms: C_8  and  N_22 
REMARK    8  A    between atoms: C_9  and  C_13 
REMARK    9  A    between atoms: C_13  and  C_14 
REMARK   10  A    between atoms: C_14  and  N_15 
ROOT
HETATM    1  C           1     -22.356  -4.106  -8.193  0.00  0.00     0.249 C 
HETATM    2  O           1     -21.874  -3.072  -7.795  0.00  0.00    -0.271 OA
HETATM    3  N           1     -22.059  -5.286  -7.566  0.00  0.00    -0.345 N 
HETATM    4  H           1     -22.462  -6.152  -7.900  0.00  0.00     0.163 HD
ENDROOT
BRANCH   3   5
HETATM    5  C           1     -21.165  -5.295  -6.424  0.00  0.00     0.185 C 
BRANCH   5   6
HETATM    6  C           1     -21.675  -6.288  -5.389  0.00  0.00     0.038 C 
BRANCH   6   7
HETATM    7  C           1     -21.116  -5.927  -4.018  0.00  0.00     0.030 C 
BRANCH   7   8
HETATM    8  C           1     -21.799  -6.772  -2.952  0.00  0.00     0.230 C 
BRANCH   8   9
HETATM    9  N           1     -22.338  -5.880  -1.874  0.00  0.00    -0.079 N 
HETATM   10  H           1     -21.544  -5.430  -1.365  0.00  0.00     0.274 HD
HETATM   11  H           1     -22.905  -6.447  -1.202  0.00  0.00     0.274 HD
HETATM   12  H           1     -22.942  -5.142  -2.302  0.00  0.00     0.274 HD
ENDBRANCH   8   9
ENDBRANCH   7   8
ENDBRANCH   6   7
ENDBRANCH   5   6
BRANCH   5  13
HETATM   13  C           1     -19.782  -5.700  -6.872  0.00  0.00     0.196 C 
HETATM   14  O           1     -18.954  -4.827  -7.211  0.00  0.00    -0.646 OA
HETATM   15  O           1     -19.464  -6.908  -6.904  0.00  0.00    -0.646 OA
ENDBRANCH   5  13
ENDBRANCH   3   5
BRANCH   1  16
HETATM   16  C           1     -23.285  -4.096  -9.381  0.00  0.00     0.283 C 
BRANCH  16  17
HETATM   17  C           1     -22.618  -3.374 -10.544  0.00  0.00     0.113 C 
BRANCH  17  18
HETATM   18  S           1     -21.155  -4.309 -11.078  0.00  0.00    -0.180 SA
HETATM   19  H           1     -21.828  -5.222 -11.801  0.00  0.00     0.101 HD
ENDBRANCH  17  18
ENDBRANCH  16  17
BRANCH  16  20
HETATM   20  N           1     -24.556  -3.385  -9.015  0.00  0.00    -0.066 N 
HETATM   21  H           1     -24.373  -2.360  -8.944  0.00  0.00     0.275 HD
HETATM   22  H           1     -24.902  -3.743  -8.096  0.00  0.00     0.275 HD
HETATM   23  H           1     -25.278  -3.561  -9.751  0.00  0.00     0.275 HD
ENDBRANCH  16  20
ENDBRANCH   1  16
TORSDOF 10
ENDMDL
MODEL 3
REMARK VINA RESULT:      -4.7      3.267      5.892
REMARK  10 active torsions:
REMARK  status: ('A' for Active; 'I' for Inactive)
REMARK    1  A    between atoms: C_1  and  C_2 
REMARK    2  A    between atoms: C_1  and  S_20 
REMARK    3  A    between atoms: C_2  and  C_3 
REMARK    4  A    between atoms: C_2  and  N_19 
REMARK       I    between atoms: C_3  and  N_22 
REMARK    5  A    between atoms: C_8  and  C_9 
REMARK    6  A    between atoms: C_8  and  C_11 
REMARK    7  A    between atoms: C_8  and  N_22 
REMARK    8  A    between atoms: C_9  and  C_13 
REMARK    9  A    between atoms: C_13  and  C_14 
REMARK   10  A    between atoms: C_14  and  N_15 
ROOT
HETATM    1  C           1     -21.044  -5.144  -6.799  0.00  0.00     0.249 C 
HETATM    2  O           1     -20.360  -4.342  -6.207  0.00  0.00    -0.271 OA
HETATM    3  N           1     -21.328  -6.355  -6.228  0.00  0.00    -0.345 N 
HETATM    4  H           1     -21.900  -7.027  -6.725  0.00  0.00     0.163 HD
ENDROOT
BRANCH   3   5
HETATM    5  C           1     -20.807  -6.677  -4.914  0.00  0.00     0.185 C 
BRANCH   5   6
HETATM    6  C           1     -21.955  -6.749  -3.917  0.00  0.00     0.038 C 
BRANCH   6   7
HETATM    7  C           1     -21.576  -5.996  -2.648  0.00  0.00     0.030 C 
BRANCH   7   8
HETATM    8  C           1     -22.203  -6.683  -1.443  0.00  0.00     0.230 C 
BRANCH   8   9
HETATM    9  N           1     -21.928  -8.156  -1.507  0.00  0.00    -0.079 N 
HETATM   10  H           1     -21.168  -8.339  -2.200  0.00  0.00     0.274 HD
HETATM   11  H           1     -22.796  -8.661  -1.801  0.00  0.00     0.274 HD
HETATM   12  H           1     -21.631  -8.496  -0.565  0.00  0.00     0.274 HD
ENDBRANCH   8   9
ENDBRANCH   7   8
ENDBRANCH   6   7
ENDBRANCH   5   6
BRANCH   5  13
HETATM   13  C           1     -20.101  -8.011  -4.966  0.00  0.00     0.196 C 
HETATM   14  O           1     -20.292  -8.854  -4.064  0.00  0.00    -0.646 OA
HETATM   15  O           1     -19.325  -8.271  -5.911  0.00  0.00    -0.646 OA
ENDBRANCH   5  13
ENDBRANCH   3   5
BRANCH   1  16
HETATM   16  C           1     -21.586  -4.808  -8.167  0.00  0.00     0.283 C 
BRANCH  16  17
HETATM   17  C           1     -20.441  -4.386  -9.078  0.00  0.00     0.113 C 
BRANCH  17  18
HETATM   18  S           1     -21.083  -4.058 -10.744  0.00  0.00    -0.180 SA
HETATM   19  H           1     -22.081  -3.246 -10.353  0.00  0.00     0.101 HD
ENDBRANCH  17  18
ENDBRANCH  16  17
BRANCH  16  20
HETATM   20  N           1     -22.572  -3.683  -8.050  0.00  0.00    -0.066 N 
HETATM   21  H           1     -22.953  -3.455  -8.995  0.00  0.00     0.275 HD
HETATM   22  H           1     -22.094  -2.841  -7.654  0.00  0.00     0.275 HD
HETATM   23  H           1     -23.354  -3.968  -7.418  0.00  0.00     0.275 HD
ENDBRANCH  16  20
ENDBRANCH   1  16
TORSDOF 10
ENDMDL
MODEL 4
REMARK VINA RESULT:      -4.6     20.182     21.853
REMARK  10 active torsions:
REMARK  status: ('A' for Active; 'I' for Inactive)
REMARK    1  A    between atoms: C_1  and  C_2 
REMARK    2  A    between atoms: C_1  and  S_20 
REMARK    3  A    between atoms: C_2  and  C_3 
REMARK    4  A    between atoms: C_2  and  N_19 
REMARK       I    between atoms: C_3  and  N_22 
REMARK    5  A    between atoms: C_8  and  C_9 
REMARK    6  A    between atoms: C_8  and  C_11 
REMARK    7  A    between atoms: C_8  and  N_22 
REMARK    8  A    between atoms: C_9  and  C_13 
REMARK    9  A    between atoms: C_13  and  C_14 
REMARK   10  A    between atoms: C_14  and  N_15 
ROOT
HETATM    1  C           1     -12.902   5.452 -19.951  0.00  0.00     0.249 C 
HETATM    2  O           1     -12.106   5.120 -19.105  0.00  0.00    -0.271 OA
HETATM    3  N           1     -12.879   6.727 -20.450  0.00  0.00    -0.345 N 
HETATM    4  H           1     -13.547   7.005 -21.158  0.00  0.00     0.163 HD
ENDROOT
BRANCH   3   5
HETATM    5  C           1     -11.899   7.678 -19.964  0.00  0.00     0.185 C 
BRANCH   5   6
HETATM    6  C           1     -10.943   8.043 -21.091  0.00  0.00     0.038 C 
BRANCH   6   7
HETATM    7  C           1      -9.511   7.760 -20.656  0.00  0.00     0.030 C 
BRANCH   7   8
HETATM    8  C           1      -9.255   6.259 -20.695  0.00  0.00     0.230 C 
BRANCH   8   9
HETATM    9  N           1      -9.161   5.730 -19.294  0.00  0.00    -0.079 N 
HETATM   10  H           1      -9.197   4.686 -19.314  0.00  0.00     0.274 HD
HETATM   11  H           1      -9.961   6.095 -18.729  0.00  0.00     0.274 HD
HETATM   12  H           1      -8.261   6.041 -18.865  0.00  0.00     0.274 HD
ENDBRANCH   8   9
ENDBRANCH   7   8
ENDBRANCH   6   7
ENDBRANCH   5   6
BRANCH   5  13
HETATM   13  C           1     -12.603   8.922 -19.479  0.00  0.00     0.196 C 
HETATM   14  O           1     -12.366  10.025 -20.016  0.00  0.00    -0.646 OA
HETATM   15  O           1     -13.424   8.848 -18.538  0.00  0.00    -0.646 OA
ENDBRANCH   5  13
ENDBRANCH   3   5
BRANCH   1  16
HETATM   16  C           1     -13.922   4.462 -20.457  0.00  0.00     0.283 C 
BRANCH  16  17
HETATM   17  C           1     -13.209   3.285 -21.108  0.00  0.00     0.113 C 
BRANCH  17  18
HETATM   18  S           1     -12.410   3.834 -22.643  0.00  0.00    -0.180 SA
HETATM   19  H           1     -11.731   2.694 -22.864  0.00  0.00     0.101 HD
ENDBRANCH  17  18
ENDBRANCH  16  17
BRANCH  16  20
HETATM   20  N           1     -14.808   5.130 -21.467  0.00  0.00    -0.066 N 
HETATM   21  H           1     -15.695   5.432 -21.007  0.00  0.00     0.275 HD
HETATM   22  H           1     -15.025   4.457 -22.238  0.00  0.00     0.275 HD
HETATM   23  H           1     -14.319   5.965 -21.863  0.00  0.00     0.275 HD
ENDBRANCH  16  20
ENDBRANCH   1  16
TORSDOF 10
ENDMDL
MODEL 5
REMARK VINA RESULT:      -4.5      3.427      4.261
REMARK  10 active torsions:
REMARK  status: ('A' for Active; 'I' for Inactive)
REMARK    1  A    between atoms: C_1  and  C_2 
REMARK    2  A    between atoms: C_1  and  S_20 
REMARK    3  A    between atoms: C_2  and  C_3 
REMARK    4  A    between atoms: C_2  and  N_19 
REMARK       I    between atoms: C_3  and  N_22 
REMARK    5  A    between atoms: C_8  and  C_9 
REMARK    6  A    between atoms: C_8  and  C_11 
REMARK    7  A    between atoms: C_8  and  N_22 
REMARK    8  A    between atoms: C_9  and  C_13 
REMARK    9  A    between atoms: C_13  and  C_14 
REMARK   10  A    between atoms: C_14  and  N_15 
ROOT
HETATM    1  C           1     -20.203  -9.082  -4.940  0.00  0.00     0.249 C 
HETATM    2  O           1     -19.399  -8.663  -4.141  0.00  0.00    -0.271 OA
HETATM    3  N           1     -20.981  -8.208  -5.650  0.00  0.00    -0.345 N 
HETATM    4  H           1     -21.654  -8.559  -6.319  0.00  0.00     0.163 HD
ENDROOT
BRANCH   3   5
HETATM    5  C           1     -20.841  -6.779  -5.443  0.00  0.00     0.185 C 
BRANCH   5   6
HETATM    6  C           1     -20.916  -6.063  -6.784  0.00  0.00     0.038 C 
BRANCH   6   7
HETATM    7  C           1     -20.378  -4.645  -6.634  0.00  0.00     0.030 C 
BRANCH   7   8
HETATM    8  C           1     -21.314  -3.670  -7.337  0.00  0.00     0.230 C 
BRANCH   8   9
HETATM    9  N           1     -22.707  -4.227  -7.341  0.00  0.00    -0.079 N 
HETATM   10  H           1     -22.670  -5.258  -7.172  0.00  0.00     0.274 HD
HETATM   11  H           1     -23.153  -4.042  -8.269  0.00  0.00     0.274 HD
HETATM   12  H           1     -23.267  -3.769  -6.588  0.00  0.00     0.274 HD
ENDBRANCH   8   9
ENDBRANCH   7   8
ENDBRANCH   6   7
ENDBRANCH   5   6
BRANCH   5  13
HETATM   13  C           1     -21.953  -6.290  -4.548  0.00  0.00     0.196 C 
HETATM   14  O           1     -21.715  -6.003  -3.355  0.00  0.00    -0.646 OA
HETATM   15  O           1     -23.114  -6.174  -4.999  0.00  0.00    -0.646 OA
ENDBRANCH   5  13
ENDBRANCH   3   5
BRANCH   1  16
HETATM   16  C           1     -20.348 -10.568  -5.156  0.00  0.00     0.283 C 
BRANCH  16  17
HETATM   17  C           1     -18.969 -11.209  -5.227  0.00  0.00     0.113 C 
BRANCH  17  18
HETATM   18  S           1     -18.690 -11.862  -6.898  0.00  0.00    -0.180 SA
HETATM   19  H           1     -18.675 -10.667  -7.516  0.00  0.00     0.101 HD
ENDBRANCH  17  18
ENDBRANCH  16  17
BRANCH  16  20
HETATM   20  N           1     -21.081 -10.817  -6.441  0.00  0.00    -0.066 N 
HETATM   21  H           1     -20.526 -10.434  -7.238  0.00  0.00     0.275 HD
HETATM   22  H           1     -22.014 -10.345  -6.406  0.00  0.00     0.275 HD
HETATM   23  H           1     -21.217 -11.845  -6.572  0.00  0.00     0.275 HD
ENDBRANCH  16  20
ENDBRANCH   1  16
TORSDOF 10
ENDMDL
MODEL 6
REMARK VINA RESULT:      -4.3     20.873     22.436
REMARK  10 active torsions:
REMARK  status: ('A' for Active; 'I' for Inactive)
REMARK    1  A    between atoms: C_1  and  C_2 
REMARK    2  A    between atoms: C_1  and  S_20 
REMARK    3  A    between atoms: C_2  and  C_3 
REMARK    4  A    between atoms: C_2  and  N_19 
REMARK       I    between atoms: C_3  and  N_22 
REMARK    5  A    between atoms: C_8  and  C_9 
REMARK    6  A    between atoms: C_8  and  C_11 
REMARK    7  A    between atoms: C_8  and  N_22 
REMARK    8  A    between atoms: C_9  and  C_13 
REMARK    9  A    between atoms: C_13  and  C_14 
REMARK   10  A    between atoms: C_14  and  N_15 
ROOT
HETATM    1  C           1     -11.171   5.567 -19.997  0.00  0.00     0.249 C 
HETATM    2  O           1     -11.416   5.381 -18.828  0.00  0.00    -0.271 OA
HETATM    3  N           1     -11.009   6.842 -20.468  0.00  0.00    -0.345 N 
HETATM    4  H           1     -10.805   6.998 -21.447  0.00  0.00     0.163 HD
ENDROOT
BRANCH   3   5
HETATM    5  C           1     -11.131   7.970 -19.564  0.00  0.00     0.185 C 
BRANCH   5   6
HETATM    6  C           1     -10.119   9.040 -19.950  0.00  0.00     0.038 C 
BRANCH   6   7
HETATM    7  C           1      -9.262   8.537 -21.105  0.00  0.00     0.030 C 
BRANCH   7   8
HETATM    8  C           1      -9.340   9.525 -22.262  0.00  0.00     0.230 C 
BRANCH   8   9
HETATM    9  N           1     -10.742   9.567 -22.792  0.00  0.00    -0.079 N 
HETATM   10  H           1     -10.732   9.376 -23.820  0.00  0.00     0.274 HD
HETATM   11  H           1     -11.154  10.512 -22.618  0.00  0.00     0.274 HD
HETATM   12  H           1     -11.319   8.842 -22.309  0.00  0.00     0.274 HD
ENDBRANCH   8   9
ENDBRANCH   7   8
ENDBRANCH   6   7
ENDBRANCH   5   6
BRANCH   5  13
HETATM   13  C           1     -12.526   8.539 -19.656  0.00  0.00     0.196 C 
HETATM   14  O           1     -12.923   9.050 -20.725  0.00  0.00    -0.646 OA
HETATM   15  O           1     -13.283   8.500 -18.663  0.00  0.00    -0.646 OA
ENDBRANCH   5  13
ENDBRANCH   3   5
BRANCH   1  16
HETATM   16  C           1     -11.045   4.393 -20.936  0.00  0.00     0.283 C 
BRANCH  16  17
HETATM   17  C           1     -12.242   4.363 -21.876  0.00  0.00     0.113 C 
BRANCH  17  18
HETATM   18  S           1     -13.271   2.915 -21.500  0.00  0.00    -0.180 SA
HETATM   19  H           1     -12.249   2.069 -21.279  0.00  0.00     0.101 HD
ENDBRANCH  17  18
ENDBRANCH  16  17
BRANCH  16  20
HETATM   20  N           1     -11.001   3.121 -20.142  0.00  0.00    -0.066 N 
HETATM   21  H           1     -11.052   2.304 -20.790  0.00  0.00     0.275 HD
HETATM   22  H           1     -11.812   3.095 -19.482  0.00  0.00     0.275 HD
HETATM   23  H           1     -10.109   3.079 -19.598  0.00  0.00     0.275 HD
ENDBRANCH  16  20
ENDBRANCH   1  16
TORSDOF 10
ENDMDL
MODEL 7
REMARK VINA RESULT:      -4.3      3.411      6.191
REMARK  10 active torsions:
REMARK  status: ('A' for Active; 'I' for Inactive)
REMARK    1  A    between atoms: C_1  and  C_2 
REMARK    2  A    between atoms: C_1  and  S_20 
REMARK    3  A    between atoms: C_2  and  C_3 
REMARK    4  A    between atoms: C_2  and  N_19 
REMARK       I    between atoms: C_3  and  N_22 
REMARK    5  A    between atoms: C_8  and  C_9 
REMARK    6  A    between atoms: C_8  and  C_11 
REMARK    7  A    between atoms: C_8  and  N_22 
REMARK    8  A    between atoms: C_9  and  C_13 
REMARK    9  A    between atoms: C_13  and  C_14 
REMARK   10  A    between atoms: C_14  and  N_15 
ROOT
HETATM    1  C           1     -21.834  -5.931  -5.614  0.00  0.00     0.249 C 
HETATM    2  O           1     -23.027  -5.922  -5.427  0.00  0.00    -0.271 OA
HETATM    3  N           1     -21.031  -6.754  -4.871  0.00  0.00    -0.345 N 
HETATM    4  H           1     -20.031  -6.761  -5.027  0.00  0.00     0.163 HD
ENDROOT
BRANCH   3   5
HETATM    5  C           1     -21.613  -7.615  -3.860  0.00  0.00     0.185 C 
BRANCH   5   6
HETATM    6  C           1     -20.899  -8.960  -3.868  0.00  0.00     0.038 C 
BRANCH   6   7
HETATM    7  C           1     -19.694  -8.891  -4.797  0.00  0.00     0.030 C 
BRANCH   7   8
HETATM    8  C           1     -18.515  -9.610  -4.154  0.00  0.00     0.230 C 
BRANCH   8   9
HETATM    9  N           1     -18.405  -9.203  -2.714  0.00  0.00    -0.079 N 
HETATM   10  H           1     -17.502  -8.698  -2.564  0.00  0.00     0.274 HD
HETATM   11  H           1     -18.431 -10.055  -2.108  0.00  0.00     0.274 HD
HETATM   12  H           1     -19.202  -8.576  -2.468  0.00  0.00     0.274 HD
ENDBRANCH   8   9
ENDBRANCH   7   8
ENDBRANCH   6   7
ENDBRANCH   5   6
BRANCH   5  13
HETATM   13  C           1     -21.460  -6.972  -2.503  0.00  0.00     0.196 C 
HETATM   14  O           1     -20.668  -7.456  -1.667  0.00  0.00    -0.646 OA
HETATM   15  O           1     -22.127  -5.954  -2.216  0.00  0.00    -0.646 OA
ENDBRANCH   5  13
ENDBRANCH   3   5
BRANCH   1  16
HETATM   16  C           1     -21.229  -5.035  -6.666  0.00  0.00     0.283 C 
BRANCH  16  17
HETATM   17  C           1     -22.339  -4.350  -7.451  0.00  0.00     0.113 C 
BRANCH  17  18
HETATM   18  S           1     -21.966  -4.432  -9.226  0.00  0.00    -0.180 SA
HETATM   19  H           1     -21.603  -3.143  -9.354  0.00  0.00     0.101 HD
ENDBRANCH  17  18
ENDBRANCH  16  17
BRANCH  16  20
HETATM   20  N           1     -20.391  -5.857  -7.601  0.00  0.00    -0.066 N 
HETATM   21  H           1     -19.964  -5.237  -8.323  0.00  0.00     0.275 HD
HETATM   22  H           1     -20.992  -6.574  -8.067  0.00  0.00     0.275 HD
HETATM   23  H           1     -19.634  -6.337  -7.061  0.00  0.00     0.275 HD
ENDBRANCH  16  20
ENDBRANCH   1  16
TORSDOF 10
ENDMDL
MODEL 8
REMARK VINA RESULT:      -4.3     20.502     22.067
REMARK  10 active torsions:
REMARK  status: ('A' for Active; 'I' for Inactive)
REMARK    1  A    between atoms: C_1  and  C_2 
REMARK    2  A    between atoms: C_1  and  S_20 
REMARK    3  A    between atoms: C_2  and  C_3 
REMARK    4  A    between atoms: C_2  and  N_19 
REMARK       I    between atoms: C_3  and  N_22 
REMARK    5  A    between atoms: C_8  and  C_9 
REMARK    6  A    between atoms: C_8  and  C_11 
REMARK    7  A    between atoms: C_8  and  N_22 
REMARK    8  A    between atoms: C_9  and  C_13 
REMARK    9  A    between atoms: C_13  and  C_14 
REMARK   10  A    between atoms: C_14  and  N_15 
ROOT
HETATM    1  C           1     -12.101   7.671 -20.470  0.00  0.00     0.249 C 
HETATM    2  O           1     -12.930   8.403 -20.957  0.00  0.00    -0.271 OA
HETATM    3  N           1     -12.140   6.327 -20.723  0.00  0.00    -0.345 N 
HETATM    4  H           1     -11.446   5.714 -20.314  0.00  0.00     0.163 HD
ENDROOT
BRANCH   3   5
HETATM    5  C           1     -13.177   5.780 -21.577  0.00  0.00     0.185 C 
BRANCH   5   6
HETATM    6  C           1     -12.576   4.719 -22.489  0.00  0.00     0.038 C 
BRANCH   6   7
HETATM    7  C           1     -11.150   4.416 -22.045  0.00  0.00     0.030 C 
BRANCH   7   8
HETATM    8  C           1     -11.091   3.018 -21.445  0.00  0.00     0.230 C 
BRANCH   8   9
HETATM    9  N           1     -11.165   3.111 -19.949  0.00  0.00    -0.079 N 
HETATM   10  H           1     -11.445   4.080 -19.675  0.00  0.00     0.274 HD
HETATM   11  H           1     -10.228   2.891 -19.539  0.00  0.00     0.274 HD
HETATM   12  H           1     -11.870   2.429 -19.593  0.00  0.00     0.274 HD
ENDBRANCH   8   9
ENDBRANCH   7   8
ENDBRANCH   6   7
ENDBRANCH   5   6
BRANCH   5  13
HETATM   13  C           1     -14.255   5.159 -20.723  0.00  0.00     0.196 C 
HETATM   14  O           1     -15.456   5.279 -21.048  0.00  0.00    -0.646 OA
HETATM   15  O           1     -13.948   4.525 -19.691  0.00  0.00    -0.646 OA
ENDBRANCH   5  13
ENDBRANCH   3   5
BRANCH   1  16
HETATM   16  C           1     -11.023   8.241 -19.581  0.00  0.00     0.283 C 
BRANCH  16  17
HETATM   17  C           1     -10.425   9.479 -20.235  0.00  0.00     0.113 C 
BRANCH  17  18
HETATM   18  S           1      -9.040   8.991 -21.304  0.00  0.00    -0.180 SA
HETATM   19  H           1      -8.274   8.488 -20.320  0.00  0.00     0.101 HD
ENDBRANCH  17  18
ENDBRANCH  16  17
BRANCH  16  20
HETATM   20  N           1      -9.947   7.213 -19.380  0.00  0.00    -0.066 N 
HETATM   21  H           1      -9.908   6.943 -18.373  0.00  0.00     0.275 HD
HETATM   22  H           1      -9.026   7.613 -19.671  0.00  0.00     0.275 HD
HETATM   23  H           1     -10.158   6.369 -19.960  0.00  0.00     0.275 HD
ENDBRANCH  16  20
ENDBRANCH   1  16
TORSDOF 10
ENDMDL
MODEL 9
REMARK VINA RESULT:      -4.3      3.332      6.763
REMARK  10 active torsions:
REMARK  status: ('A' for Active; 'I' for Inactive)
REMARK    1  A    between atoms: C_1  and  C_2 
REMARK    2  A    between atoms: C_1  and  S_20 
REMARK    3  A    between atoms: C_2  and  C_3 
REMARK    4  A    between atoms: C_2  and  N_19 
REMARK       I    between atoms: C_3  and  N_22 
REMARK    5  A    between atoms: C_8  and  C_9 
REMARK    6  A    between atoms: C_8  and  C_11 
REMARK    7  A    between atoms: C_8  and  N_22 
REMARK    8  A    between atoms: C_9  and  C_13 
REMARK    9  A    between atoms: C_13  and  C_14 
REMARK   10  A    between atoms: C_14  and  N_15 
ROOT
HETATM    1  C           1     -21.060  -6.958  -4.882  0.00  0.00     0.249 C 
HETATM    2  O           1     -21.536  -8.014  -5.226  0.00  0.00    -0.271 OA
HETATM    3  N           1     -20.953  -6.656  -3.552  0.00  0.00    -0.345 N 
HETATM    4  H           1     -20.554  -5.771  -3.264  0.00  0.00     0.163 HD
ENDROOT
BRANCH   3   5
HETATM    5  C           1     -21.412  -7.603  -2.554  0.00  0.00     0.185 C 
BRANCH   5   6
HETATM    6  C           1     -20.212  -8.288  -1.915  0.00  0.00     0.038 C 
BRANCH   6   7
HETATM    7  C           1     -20.377  -9.799  -2.012  0.00  0.00     0.030 C 
BRANCH   7   8
HETATM    8  C           1     -20.537 -10.383  -0.614  0.00  0.00     0.230 C 
BRANCH   8   9
HETATM    9  N           1     -21.992 -10.425  -0.252  0.00  0.00    -0.079 N 
HETATM   10  H           1     -22.097 -10.309   0.781  0.00  0.00     0.274 HD
HETATM   11  H           1     -22.398 -11.345  -0.542  0.00  0.00     0.274 HD
HETATM   12  H           1     -22.496  -9.653  -0.743  0.00  0.00     0.274 HD
ENDBRANCH   8   9
ENDBRANCH   7   8
ENDBRANCH   6   7
ENDBRANCH   5   6
BRANCH   5  13
HETATM   13  C           1     -22.199  -6.872  -1.493  0.00  0.00     0.196 C 
HETATM   14  O           1     -22.615  -7.488  -0.488  0.00  0.00    -0.646 OA
HETATM   15  O           1     -22.436  -5.651  -1.620  0.00  0.00    -0.646 OA
ENDBRANCH   5  13
ENDBRANCH   3   5
BRANCH   1  16
HETATM   16  C           1     -20.582  -5.973  -5.921  0.00  0.00     0.283 C 
BRANCH  16  17
HETATM   17  C           1     -21.781  -5.280  -6.554  0.00  0.00     0.113 C 
BRANCH  17  18
HETATM   18  S           1     -21.234  -3.758  -7.381  0.00  0.00    -0.180 SA
HETATM   19  H           1     -21.935  -3.953  -8.512  0.00  0.00     0.101 HD
ENDBRANCH  17  18
ENDBRANCH  16  17
BRANCH  16  20
HETATM   20  N           1     -19.810  -6.702  -6.982  0.00  0.00    -0.066 N 
HETATM   21  H           1     -19.854  -6.165  -7.876  0.00  0.00     0.275 HD
HETATM   22  H           1     -20.225  -7.651  -7.123  0.00  0.00     0.275 HD
HETATM   23  H           1     -18.813  -6.799  -6.682  0.00  0.00     0.275 HD
ENDBRANCH  16  20
ENDBRANCH   1  16
TORSDOF 10
ENDMDL
