MODEL 1
REMARK VINA RESULT:      -6.4      0.000      0.000
REMARK  11 active torsions:
REMARK  status: ('A' for Active; 'I' for Inactive)
REMARK    1  A    between atoms: N_5  and  C_23 
REMARK       I    between atoms: C_6  and  N_7 
REMARK    2  A    between atoms: C_6  and  C_23 
REMARK    3  A    between atoms: N_7  and  C_14 
REMARK    4  A    between atoms: C_12  and  C_17 
REMARK    5  A    between atoms: C_12  and  C_13 
REMARK    6  A    between atoms: C_13  and  C_14 
REMARK    7  A    between atoms: C_14  and  C_15 
REMARK    8  A    between atoms: C_17  and  C_18 
REMARK    9  A    between atoms: C_18  and  N_20 
REMARK   10  A    between atoms: C_21  and  C_22 
REMARK   11  A    between atoms: C_22  and  C_23 
ROOT
HETATM    1  O           1     -35.620  -0.112 -11.333  0.00  0.00    -0.271 OA
HETATM    2  C           1     -35.483  -0.553 -12.449  0.00  0.00     0.249 C 
HETATM    3  N           1     -35.084  -1.851 -12.628  0.00  0.00    -0.345 N 
HETATM    4  H           1     -34.971  -2.221 -13.563  0.00  0.00     0.163 HD
ENDROOT
BRANCH   3   5
HETATM    5  C           1     -34.824  -2.695 -11.478  0.00  0.00     0.185 C 
BRANCH   5   6
HETATM    6  C           1     -35.042  -4.153 -11.859  0.00  0.00     0.036 C 
BRANCH   6   7
HETATM    7  C           1     -34.988  -5.020 -10.608  0.00  0.00     0.004 C 
BRANCH   7   8
HETATM    8  C           1     -34.065  -6.206 -10.850  0.00  0.00     0.027 C 
BRANCH   8   9
HETATM    9  C           1     -34.686  -7.463 -10.254  0.00  0.00     0.229 C 
BRANCH   9  10
HETATM   10  N           1     -33.679  -8.574 -10.268  0.00  0.00    -0.079 N 
HETATM   11  H           1     -34.176  -9.493 -10.313  0.00  0.00     0.274 HD
HETATM   12  H           1     -33.103  -8.532  -9.398  0.00  0.00     0.274 HD
HETATM   13  H           1     -33.059  -8.472 -11.102  0.00  0.00     0.274 HD
ENDBRANCH   9  10
ENDBRANCH   8   9
ENDBRANCH   7   8
ENDBRANCH   6   7
ENDBRANCH   5   6
BRANCH   5  14
HETATM   14  C           1     -33.398  -2.500 -11.024  0.00  0.00     0.196 C 
HETATM   15  O           1     -33.130  -1.639 -10.160  0.00  0.00    -0.646 OA
HETATM   16  O           1     -32.485  -3.201 -11.513  0.00  0.00    -0.646 OA
ENDBRANCH   5  14
ENDBRANCH   3   5
BRANCH   2  17
HETATM   17  C           1     -35.754   0.325 -13.647  0.00  0.00     0.284 C 
BRANCH  17  18
HETATM   18  N           1     -34.472   0.564 -14.389  0.00  0.00    -0.066 N 
HETATM   19  H           1     -33.669   0.222 -13.815  0.00  0.00     0.275 HD
HETATM   20  H           1     -34.361   1.587 -14.572  0.00  0.00     0.275 HD
HETATM   21  H           1     -34.495   0.049 -15.298  0.00  0.00     0.275 HD
ENDBRANCH  17  18
BRANCH  17  22
HETATM   22  C           1     -36.752  -0.364 -14.567  0.00  0.00     0.155 C 
BRANCH  22  23
HETATM   23  C           1     -36.050  -0.817 -15.824  0.00  0.00     0.175 C 
HETATM   24  O           1     -35.237  -1.764 -15.779  0.00  0.00    -0.648 OA
HETATM   25  O           1     -36.284  -0.243 -16.910  0.00  0.00    -0.648 OA
ENDBRANCH  22  23
ENDBRANCH  17  22
ENDBRANCH   2  17
TORSDOF 11
ENDMDL
MODEL 2
REMARK VINA RESULT:      -6.3      2.570      3.246
REMARK  11 active torsions:
REMARK  status: ('A' for Active; 'I' for Inactive)
REMARK    1  A    between atoms: N_5  and  C_23 
REMARK       I    between atoms: C_6  and  N_7 
REMARK    2  A    between atoms: C_6  and  C_23 
REMARK    3  A    between atoms: N_7  and  C_14 
REMARK    4  A    between atoms: C_12  and  C_17 
REMARK    5  A    between atoms: C_12  and  C_13 
REMARK    6  A    between atoms: C_13  and  C_14 
REMARK    7  A    between atoms: C_14  and  C_15 
REMARK    8  A    between atoms: C_17  and  C_18 
REMARK    9  A    between atoms: C_18  and  N_20 
REMARK   10  A    between atoms: C_21  and  C_22 
REMARK   11  A    between atoms: C_22  and  C_23 
ROOT
HETATM    1  O           1     -37.843  -0.650 -13.778  0.00  0.00    -0.271 OA
HETATM    2  C           1     -36.682  -0.320 -13.742  0.00  0.00     0.249 C 
HETATM    3  N           1     -35.961  -0.475 -12.587  0.00  0.00    -0.345 N 
HETATM    4  H           1     -34.988  -0.199 -12.558  0.00  0.00     0.163 HD
ENDROOT
BRANCH   3   5
HETATM    5  C           1     -36.592  -1.034 -11.408  0.00  0.00     0.185 C 
BRANCH   5   6
HETATM    6  C           1     -35.640  -2.019 -10.742  0.00  0.00     0.036 C 
BRANCH   6   7
HETATM    7  C           1     -34.389  -2.174 -11.597  0.00  0.00     0.004 C 
BRANCH   7   8
HETATM    8  C           1     -33.424  -3.134 -10.916  0.00  0.00     0.027 C 
BRANCH   8   9
HETATM    9  C           1     -32.716  -3.976 -11.971  0.00  0.00     0.229 C 
BRANCH   9  10
HETATM   10  N           1     -33.576  -4.071 -13.196  0.00  0.00    -0.079 N 
HETATM   11  H           1     -33.866  -3.112 -13.493  0.00  0.00     0.274 HD
HETATM   12  H           1     -34.424  -4.641 -12.981  0.00  0.00     0.274 HD
HETATM   13  H           1     -33.036  -4.526 -13.966  0.00  0.00     0.274 HD
ENDBRANCH   9  10
ENDBRANCH   8   9
ENDBRANCH   7   8
ENDBRANCH   6   7
ENDBRANCH   5   6
BRANCH   5  14
HETATM   14  C           1     -36.926   0.076 -10.443  0.00  0.00     0.196 C 
HETATM   15  O           1     -36.151   0.336  -9.497  0.00  0.00    -0.646 OA
HETATM   16  O           1     -37.978   0.736 -10.588  0.00  0.00    -0.646 OA
ENDBRANCH   5  14
ENDBRANCH   3   5
BRANCH   2  17
HETATM   17  C           1     -36.025   0.262 -14.969  0.00  0.00     0.284 C 
BRANCH  17  18
HETATM   18  N           1     -34.562   0.464 -14.704  0.00  0.00    -0.066 N 
HETATM   19  H           1     -34.419   0.683 -13.692  0.00  0.00     0.275 HD
HETATM   20  H           1     -34.208   1.257 -15.286  0.00  0.00     0.275 HD
HETATM   21  H           1     -34.040  -0.407 -14.949  0.00  0.00     0.275 HD
ENDBRANCH  17  18
BRANCH  17  22
HETATM   22  C           1     -36.200  -0.693 -16.141  0.00  0.00     0.155 C 
BRANCH  22  23
HETATM   23  C           1     -35.101  -1.727 -16.118  0.00  0.00     0.175 C 
HETATM   24  O           1     -34.930  -2.435 -15.103  0.00  0.00    -0.648 OA
HETATM   25  O           1     -34.363  -1.875 -17.116  0.00  0.00    -0.648 OA
ENDBRANCH  22  23
ENDBRANCH  17  22
ENDBRANCH   2  17
TORSDOF 11
ENDMDL
MODEL 3
REMARK VINA RESULT:      -6.1      1.855      2.631
REMARK  11 active torsions:
REMARK  status: ('A' for Active; 'I' for Inactive)
REMARK    1  A    between atoms: N_5  and  C_23 
REMARK       I    between atoms: C_6  and  N_7 
REMARK    2  A    between atoms: C_6  and  C_23 
REMARK    3  A    between atoms: N_7  and  C_14 
REMARK    4  A    between atoms: C_12  and  C_17 
REMARK    5  A    between atoms: C_12  and  C_13 
REMARK    6  A    between atoms: C_13  and  C_14 
REMARK    7  A    between atoms: C_14  and  C_15 
REMARK    8  A    between atoms: C_17  and  C_18 
REMARK    9  A    between atoms: C_18  and  N_20 
REMARK   10  A    between atoms: C_21  and  C_22 
REMARK   11  A    between atoms: C_22  and  C_23 
ROOT
HETATM    1  O           1     -34.923  -2.501 -14.191  0.00  0.00    -0.271 OA
HETATM    2  C           1     -35.061  -1.327 -13.942  0.00  0.00     0.249 C 
HETATM    3  N           1     -35.177  -0.912 -12.642  0.00  0.00    -0.345 N 
HETATM    4  H           1     -35.291   0.071 -12.433  0.00  0.00     0.163 HD
ENDROOT
BRANCH   3   5
HETATM    5  C           1     -35.136  -1.882 -11.564  0.00  0.00     0.185 C 
BRANCH   5   6
HETATM    6  C           1     -33.721  -1.959 -11.006  0.00  0.00     0.036 C 
BRANCH   6   7
HETATM    7  C           1     -33.170  -3.364 -11.210  0.00  0.00     0.004 C 
BRANCH   7   8
HETATM    8  C           1     -34.065  -4.370 -10.499  0.00  0.00     0.027 C 
BRANCH   8   9
HETATM    9  C           1     -34.363  -5.535 -11.436  0.00  0.00     0.229 C 
BRANCH   9  10
HETATM   10  N           1     -33.790  -6.797 -10.863  0.00  0.00    -0.079 N 
HETATM   11  H           1     -32.763  -6.675 -10.709  0.00  0.00     0.274 HD
HETATM   12  H           1     -33.952  -7.585 -11.529  0.00  0.00     0.274 HD
HETATM   13  H           1     -34.256  -7.010  -9.953  0.00  0.00     0.274 HD
ENDBRANCH   9  10
ENDBRANCH   8   9
ENDBRANCH   7   8
ENDBRANCH   6   7
ENDBRANCH   5   6
BRANCH   5  14
HETATM   14  C           1     -36.087  -1.459 -10.472  0.00  0.00     0.196 C 
HETATM   15  O           1     -35.895  -0.389  -9.857  0.00  0.00    -0.646 OA
HETATM   16  O           1     -37.066  -2.180 -10.182  0.00  0.00    -0.646 OA
ENDBRANCH   5  14
ENDBRANCH   3   5
BRANCH   2  17
HETATM   17  C           1     -35.103  -0.318 -15.063  0.00  0.00     0.284 C 
BRANCH  17  18
HETATM   18  N           1     -35.417  -1.018 -16.353  0.00  0.00    -0.066 N 
HETATM   19  H           1     -36.241  -1.645 -16.215  0.00  0.00     0.275 HD
HETATM   20  H           1     -34.592  -1.585 -16.651  0.00  0.00     0.275 HD
HETATM   21  H           1     -35.638  -0.309 -17.089  0.00  0.00     0.275 HD
ENDBRANCH  17  18
BRANCH  17  22
HETATM   22  C           1     -36.180   0.718 -14.773  0.00  0.00     0.155 C 
BRANCH  22  23
HETATM   23  C           1     -37.507   0.227 -15.298  0.00  0.00     0.175 C 
HETATM   24  O           1     -38.073   0.834 -16.232  0.00  0.00    -0.648 OA
HETATM   25  O           1     -38.040  -0.788 -14.798  0.00  0.00    -0.648 OA
ENDBRANCH  22  23
ENDBRANCH  17  22
ENDBRANCH   2  17
TORSDOF 11
ENDMDL
MODEL 4
REMARK VINA RESULT:      -6.1      2.538      6.519
REMARK  11 active torsions:
REMARK  status: ('A' for Active; 'I' for Inactive)
REMARK    1  A    between atoms: N_5  and  C_23 
REMARK       I    between atoms: C_6  and  N_7 
REMARK    2  A    between atoms: C_6  and  C_23 
REMARK    3  A    between atoms: N_7  and  C_14 
REMARK    4  A    between atoms: C_12  and  C_17 
REMARK    5  A    between atoms: C_12  and  C_13 
REMARK    6  A    between atoms: C_13  and  C_14 
REMARK    7  A    between atoms: C_14  and  C_15 
REMARK    8  A    between atoms: C_17  and  C_18 
REMARK    9  A    between atoms: C_18  and  N_20 
REMARK   10  A    between atoms: C_21  and  C_22 
REMARK   11  A    between atoms: C_22  and  C_23 
ROOT
HETATM    1  O           1     -33.344  -2.213 -10.850  0.00  0.00    -0.271 OA
HETATM    2  C           1     -34.159  -2.878 -11.443  0.00  0.00     0.249 C 
HETATM    3  N           1     -35.308  -2.297 -11.910  0.00  0.00    -0.345 N 
HETATM    4  H           1     -35.990  -2.854 -12.408  0.00  0.00     0.163 HD
ENDROOT
BRANCH   3   5
HETATM    5  C           1     -35.546  -0.883 -11.691  0.00  0.00     0.185 C 
BRANCH   5   6
HETATM    6  C           1     -35.986  -0.235 -12.997  0.00  0.00     0.036 C 
BRANCH   6   7
HETATM    7  C           1     -34.933   0.769 -13.447  0.00  0.00     0.004 C 
BRANCH   7   8
HETATM    8  C           1     -34.899   0.822 -14.968  0.00  0.00     0.027 C 
BRANCH   8   9
HETATM    9  C           1     -36.257   0.407 -15.521  0.00  0.00     0.229 C 
BRANCH   9  10
HETATM   10  N           1     -36.987   1.620 -16.019  0.00  0.00    -0.079 N 
HETATM   11  H           1     -36.659   1.852 -16.984  0.00  0.00     0.274 HD
HETATM   12  H           1     -36.797   2.425 -15.382  0.00  0.00     0.274 HD
HETATM   13  H           1     -38.013   1.425 -16.037  0.00  0.00     0.274 HD
ENDBRANCH   9  10
ENDBRANCH   8   9
ENDBRANCH   7   8
ENDBRANCH   6   7
ENDBRANCH   5   6
BRANCH   5  14
HETATM   14  C           1     -36.626  -0.711 -10.653  0.00  0.00     0.196 C 
HETATM   15  O           1     -37.816  -0.962 -10.941  0.00  0.00    -0.646 OA
HETATM   16  O           1     -36.332  -0.317  -9.503  0.00  0.00    -0.646 OA
ENDBRANCH   5  14
ENDBRANCH   3   5
BRANCH   2  17
HETATM   17  C           1     -33.911  -4.349 -11.671  0.00  0.00     0.284 C 
BRANCH  17  18
HETATM   18  N           1     -32.536  -4.541 -12.241  0.00  0.00    -0.066 N 
HETATM   19  H           1     -32.115  -5.412 -11.846  0.00  0.00     0.275 HD
HETATM   20  H           1     -31.939  -3.721 -11.993  0.00  0.00     0.275 HD
HETATM   21  H           1     -32.599  -4.626 -13.281  0.00  0.00     0.275 HD
ENDBRANCH  17  18
BRANCH  17  22
HETATM   22  C           1     -34.020  -5.094 -10.348  0.00  0.00     0.155 C 
BRANCH  22  23
HETATM   23  C           1     -34.632  -6.454 -10.583  0.00  0.00     0.175 C 
HETATM   24  O           1     -34.851  -7.216  -9.617  0.00  0.00    -0.648 OA
HETATM   25  O           1     -34.919  -6.817 -11.744  0.00  0.00    -0.648 OA
ENDBRANCH  22  23
ENDBRANCH  17  22
ENDBRANCH   2  17
TORSDOF 11
ENDMDL
MODEL 5
REMARK VINA RESULT:      -5.9      2.322      5.900
REMARK  11 active torsions:
REMARK  status: ('A' for Active; 'I' for Inactive)
REMARK    1  A    between atoms: N_5  and  C_23 
REMARK       I    between atoms: C_6  and  N_7 
REMARK    2  A    between atoms: C_6  and  C_23 
REMARK    3  A    between atoms: N_7  and  C_14 
REMARK    4  A    between atoms: C_12  and  C_17 
REMARK    5  A    between atoms: C_12  and  C_13 
REMARK    6  A    between atoms: C_13  and  C_14 
REMARK    7  A    between atoms: C_14  and  C_15 
REMARK    8  A    between atoms: C_17  and  C_18 
REMARK    9  A    between atoms: C_18  and  N_20 
REMARK   10  A    between atoms: C_21  and  C_22 
REMARK   11  A    between atoms: C_22  and  C_23 
ROOT
HETATM    1  O           1     -33.408  -1.546 -10.340  0.00  0.00    -0.271 OA
HETATM    2  C           1     -34.239  -2.318 -10.757  0.00  0.00     0.249 C 
HETATM    3  N           1     -35.448  -1.850 -11.198  0.00  0.00    -0.345 N 
HETATM    4  H           1     -36.143  -2.497 -11.548  0.00  0.00     0.163 HD
ENDROOT
BRANCH   3   5
HETATM    5  C           1     -35.732  -0.429 -11.165  0.00  0.00     0.185 C 
BRANCH   5   6
HETATM    6  C           1     -35.451   0.176 -12.534  0.00  0.00     0.036 C 
BRANCH   6   7
HETATM    7  C           1     -36.492  -0.315 -13.531  0.00  0.00     0.004 C 
BRANCH   7   8
HETATM    8  C           1     -35.947  -0.177 -14.945  0.00  0.00     0.027 C 
BRANCH   8   9
HETATM    9  C           1     -35.395   1.229 -15.143  0.00  0.00     0.229 C 
BRANCH   9  10
HETATM   10  N           1     -36.297   1.996 -16.065  0.00  0.00    -0.079 N 
HETATM   11  H           1     -37.166   2.269 -15.553  0.00  0.00     0.274 HD
HETATM   12  H           1     -36.546   1.397 -16.883  0.00  0.00     0.274 HD
HETATM   13  H           1     -35.804   2.854 -16.398  0.00  0.00     0.274 HD
ENDBRANCH   9  10
ENDBRANCH   8   9
ENDBRANCH   7   8
ENDBRANCH   6   7
ENDBRANCH   5   6
BRANCH   5  14
HETATM   14  C           1     -37.181  -0.214 -10.807  0.00  0.00     0.196 C 
HETATM   15  O           1     -37.564   0.901 -10.393  0.00  0.00    -0.646 OA
HETATM   16  O           1     -38.000  -1.152 -10.923  0.00  0.00    -0.646 OA
ENDBRANCH   5  14
ENDBRANCH   3   5
BRANCH   2  17
HETATM   17  C           1     -33.943  -3.797 -10.791  0.00  0.00     0.284 C 
BRANCH  17  18
HETATM   18  N           1     -35.228  -4.565 -10.677  0.00  0.00    -0.066 N 
HETATM   19  H           1     -36.015  -3.901 -10.503  0.00  0.00     0.275 HD
HETATM   20  H           1     -35.160  -5.241  -9.883  0.00  0.00     0.275 HD
HETATM   21  H           1     -35.401  -5.087 -11.565  0.00  0.00     0.275 HD
ENDBRANCH  17  18
BRANCH  17  22
HETATM   22  C           1     -33.258  -4.148 -12.104  0.00  0.00     0.155 C 
BRANCH  22  23
HETATM   23  C           1     -34.278  -4.170 -13.216  0.00  0.00     0.175 C 
HETATM   24  O           1     -34.986  -5.185 -13.395  0.00  0.00    -0.648 OA
HETATM   25  O           1     -34.416  -3.174 -13.958  0.00  0.00    -0.648 OA
ENDBRANCH  22  23
ENDBRANCH  17  22
ENDBRANCH   2  17
TORSDOF 11
ENDMDL
MODEL 6
REMARK VINA RESULT:      -5.8      1.618      2.026
REMARK  11 active torsions:
REMARK  status: ('A' for Active; 'I' for Inactive)
REMARK    1  A    between atoms: N_5  and  C_23 
REMARK       I    between atoms: C_6  and  N_7 
REMARK    2  A    between atoms: C_6  and  C_23 
REMARK    3  A    between atoms: N_7  and  C_14 
REMARK    4  A    between atoms: C_12  and  C_17 
REMARK    5  A    between atoms: C_12  and  C_13 
REMARK    6  A    between atoms: C_13  and  C_14 
REMARK    7  A    between atoms: C_14  and  C_15 
REMARK    8  A    between atoms: C_17  and  C_18 
REMARK    9  A    between atoms: C_18  and  N_20 
REMARK   10  A    between atoms: C_21  and  C_22 
REMARK   11  A    between atoms: C_22  and  C_23 
ROOT
HETATM    1  O           1     -34.798  -0.867 -11.378  0.00  0.00    -0.271 OA
HETATM    2  C           1     -35.160  -0.868 -12.530  0.00  0.00     0.249 C 
HETATM    3  N           1     -34.940  -1.968 -13.316  0.00  0.00    -0.345 N 
HETATM    4  H           1     -35.244  -1.969 -14.280  0.00  0.00     0.163 HD
ENDROOT
BRANCH   3   5
HETATM    5  C           1     -34.271  -3.131 -12.765  0.00  0.00     0.185 C 
BRANCH   5   6
HETATM    6  C           1     -35.047  -3.637 -11.556  0.00  0.00     0.036 C 
BRANCH   6   7
HETATM    7  C           1     -34.093  -4.327 -10.591  0.00  0.00     0.004 C 
BRANCH   7   8
HETATM    8  C           1     -34.704  -5.641 -10.123  0.00  0.00     0.027 C 
BRANCH   8   9
HETATM    9  C           1     -33.904  -6.805 -10.694  0.00  0.00     0.229 C 
BRANCH   9  10
HETATM   10  N           1     -34.803  -7.992 -10.872  0.00  0.00    -0.079 N 
HETATM   11  H           1     -34.585  -8.706 -10.140  0.00  0.00     0.274 HD
HETATM   12  H           1     -34.650  -8.404 -11.819  0.00  0.00     0.274 HD
HETATM   13  H           1     -35.799  -7.691 -10.780  0.00  0.00     0.274 HD
ENDBRANCH   9  10
ENDBRANCH   8   9
ENDBRANCH   7   8
ENDBRANCH   6   7
ENDBRANCH   5   6
BRANCH   5  14
HETATM   14  C           1     -34.205  -4.215 -13.811  0.00  0.00     0.196 C 
HETATM   15  O           1     -33.366  -4.142 -14.735  0.00  0.00    -0.646 OA
HETATM   16  O           1     -34.989  -5.186 -13.756  0.00  0.00    -0.646 OA
ENDBRANCH   5  14
ENDBRANCH   3   5
BRANCH   2  17
HETATM   17  C           1     -35.856   0.342 -13.103  0.00  0.00     0.284 C 
BRANCH  17  18
HETATM   18  N           1     -34.999   0.949 -14.175  0.00  0.00    -0.066 N 
HETATM   19  H           1     -35.064   0.369 -15.042  0.00  0.00     0.275 HD
HETATM   20  H           1     -34.006   0.983 -13.850  0.00  0.00     0.275 HD
HETATM   21  H           1     -35.331   1.919 -14.379  0.00  0.00     0.275 HD
ENDBRANCH  17  18
BRANCH  17  22
HETATM   22  C           1     -37.193  -0.076 -13.699  0.00  0.00     0.155 C 
BRANCH  22  23
HETATM   23  C           1     -37.089  -0.100 -15.205  0.00  0.00     0.175 C 
HETATM   24  O           1     -36.547  -1.068 -15.778  0.00  0.00    -0.648 OA
HETATM   25  O           1     -37.546   0.850 -15.877  0.00  0.00    -0.648 OA
ENDBRANCH  22  23
ENDBRANCH  17  22
ENDBRANCH   2  17
TORSDOF 11
ENDMDL
MODEL 7
REMARK VINA RESULT:      -5.8     13.039     14.947
REMARK  11 active torsions:
REMARK  status: ('A' for Active; 'I' for Inactive)
REMARK    1  A    between atoms: N_5  and  C_23 
REMARK       I    between atoms: C_6  and  N_7 
REMARK    2  A    between atoms: C_6  and  C_23 
REMARK    3  A    between atoms: N_7  and  C_14 
REMARK    4  A    between atoms: C_12  and  C_17 
REMARK    5  A    between atoms: C_12  and  C_13 
REMARK    6  A    between atoms: C_13  and  C_14 
REMARK    7  A    between atoms: C_14  and  C_15 
REMARK    8  A    between atoms: C_17  and  C_18 
REMARK    9  A    between atoms: C_18  and  N_20 
REMARK   10  A    between atoms: C_21  and  C_22 
REMARK   11  A    between atoms: C_22  and  C_23 
ROOT
HETATM    1  O           1     -20.164  -4.143  -6.913  0.00  0.00    -0.271 OA
HETATM    2  C           1     -21.325  -4.418  -7.102  0.00  0.00     0.249 C 
HETATM    3  N           1     -21.933  -5.380  -6.340  0.00  0.00    -0.345 N 
HETATM    4  H           1     -22.906  -5.609  -6.497  0.00  0.00     0.163 HD
ENDROOT
BRANCH   3   5
HETATM    5  C           1     -21.184  -6.068  -5.307  0.00  0.00     0.185 C 
BRANCH   5   6
HETATM    6  C           1     -22.107  -6.389  -4.139  0.00  0.00     0.036 C 
BRANCH   6   7
HETATM    7  C           1     -21.325  -6.309  -2.835  0.00  0.00     0.004 C 
BRANCH   7   8
HETATM    8  C           1     -22.287  -6.399  -1.658  0.00  0.00     0.027 C 
BRANCH   8   9
HETATM    9  C           1     -22.003  -7.670  -0.867  0.00  0.00     0.229 C 
BRANCH   9  10
HETATM   10  N           1     -22.987  -7.790   0.259  0.00  0.00    -0.079 N 
HETATM   11  H           1     -23.089  -6.863   0.732  0.00  0.00     0.274 HD
HETATM   12  H           1     -22.644  -8.497   0.946  0.00  0.00     0.274 HD
HETATM   13  H           1     -23.913  -8.092  -0.119  0.00  0.00     0.274 HD
ENDBRANCH   9  10
ENDBRANCH   8   9
ENDBRANCH   7   8
ENDBRANCH   6   7
ENDBRANCH   5   6
BRANCH   5  14
HETATM   14  C           1     -20.616  -7.348  -5.867  0.00  0.00     0.196 C 
HETATM   15  O           1     -19.456  -7.368  -6.330  0.00  0.00    -0.646 OA
HETATM   16  O           1     -21.307  -8.391  -5.868  0.00  0.00    -0.646 OA
ENDBRANCH   5  14
ENDBRANCH   3   5
BRANCH   2  17
HETATM   17  C           1     -22.105  -3.702  -8.177  0.00  0.00     0.284 C 
BRANCH  17  18
HETATM   18  N           1     -21.466  -3.957  -9.511  0.00  0.00    -0.066 N 
HETATM   19  H           1     -20.549  -3.459  -9.558  0.00  0.00     0.275 HD
HETATM   20  H           1     -22.093  -3.608 -10.270  0.00  0.00     0.275 HD
HETATM   21  H           1     -21.312  -4.984  -9.632  0.00  0.00     0.275 HD
ENDBRANCH  17  18
BRANCH  17  22
HETATM   22  C           1     -23.537  -4.216  -8.193  0.00  0.00     0.155 C 
BRANCH  22  23
HETATM   23  C           1     -24.103  -4.090  -9.587  0.00  0.00     0.175 C 
HETATM   24  O           1     -24.559  -2.996  -9.980  0.00  0.00    -0.648 OA
HETATM   25  O           1     -24.113  -5.082 -10.348  0.00  0.00    -0.648 OA
ENDBRANCH  22  23
ENDBRANCH  17  22
ENDBRANCH   2  17
TORSDOF 11
ENDMDL
MODEL 8
REMARK VINA RESULT:      -5.6     24.984     26.369
REMARK  11 active torsions:
REMARK  status: ('A' for Active; 'I' for Inactive)
REMARK    1  A    between atoms: N_5  and  C_23 
REMARK       I    between atoms: C_6  and  N_7 
REMARK    2  A    between atoms: C_6  and  C_23 
REMARK    3  A    between atoms: N_7  and  C_14 
REMARK    4  A    between atoms: C_12  and  C_17 
REMARK    5  A    between atoms: C_12  and  C_13 
REMARK    6  A    between atoms: C_13  and  C_14 
REMARK    7  A    between atoms: C_14  and  C_15 
REMARK    8  A    between atoms: C_17  and  C_18 
REMARK    9  A    between atoms: C_18  and  N_20 
REMARK   10  A    between atoms: C_21  and  C_22 
REMARK   11  A    between atoms: C_22  and  C_23 
ROOT
HETATM    1  O           1     -11.039   2.820 -21.223  0.00  0.00    -0.271 OA
HETATM    2  C           1     -11.601   3.785 -21.683  0.00  0.00     0.249 C 
HETATM    3  N           1     -11.163   5.045 -21.373  0.00  0.00    -0.345 N 
HETATM    4  H           1     -11.634   5.853 -21.760  0.00  0.00     0.163 HD
ENDROOT
BRANCH   3   5
HETATM    5  C           1     -10.024   5.221 -20.493  0.00  0.00     0.185 C 
BRANCH   5   6
HETATM    6  C           1      -9.221   6.435 -20.940  0.00  0.00     0.036 C 
BRANCH   6   7
HETATM    7  C           1     -10.172   7.541 -21.379  0.00  0.00     0.004 C 
BRANCH   7   8
HETATM    8  C           1      -9.758   8.855 -20.730  0.00  0.00     0.027 C 
BRANCH   8   9
HETATM    9  C           1     -10.730   9.194 -19.607  0.00  0.00     0.229 C 
BRANCH   9  10
HETATM   10  N           1     -10.075   8.935 -18.282  0.00  0.00    -0.079 N 
HETATM   11  H           1      -9.356   8.185 -18.390  0.00  0.00     0.274 HD
HETATM   12  H           1     -10.797   8.630 -17.592  0.00  0.00     0.274 HD
HETATM   13  H           1      -9.617   9.811 -17.943  0.00  0.00     0.274 HD
ENDBRANCH   9  10
ENDBRANCH   8   9
ENDBRANCH   7   8
ENDBRANCH   6   7
ENDBRANCH   5   6
BRANCH   5  14
HETATM   14  C           1     -10.510   5.430 -19.080  0.00  0.00     0.196 C 
HETATM   15  O           1     -11.710   5.231 -18.796  0.00  0.00    -0.646 OA
HETATM   16  O           1      -9.711   5.802 -18.193  0.00  0.00    -0.646 OA
ENDBRANCH   5  14
ENDBRANCH   3   5
BRANCH   2  17
HETATM   17  C           1     -12.786   3.602 -22.599  0.00  0.00     0.284 C 
BRANCH  17  18
HETATM   18  N           1     -13.801   2.720 -21.932  0.00  0.00    -0.066 N 
HETATM   19  H           1     -14.082   1.956 -22.588  0.00  0.00     0.275 HD
HETATM   20  H           1     -14.640   3.286 -21.676  0.00  0.00     0.275 HD
HETATM   21  H           1     -13.386   2.303 -21.069  0.00  0.00     0.275 HD
ENDBRANCH  17  18
BRANCH  17  22
HETATM   22  C           1     -13.411   4.957 -22.899  0.00  0.00     0.155 C 
BRANCH  22  23
HETATM   23  C           1     -14.700   5.100 -22.126  0.00  0.00     0.175 C 
HETATM   24  O           1     -15.796   5.045 -22.724  0.00  0.00    -0.648 OA
HETATM   25  O           1     -14.670   5.274 -20.889  0.00  0.00    -0.648 OA
ENDBRANCH  22  23
ENDBRANCH  17  22
ENDBRANCH   2  17
TORSDOF 11
ENDMDL
MODEL 9
REMARK VINA RESULT:      -5.5     14.138     16.457
REMARK  11 active torsions:
REMARK  status: ('A' for Active; 'I' for Inactive)
REMARK    1  A    between atoms: N_5  and  C_23 
REMARK       I    between atoms: C_6  and  N_7 
REMARK    2  A    between atoms: C_6  and  C_23 
REMARK    3  A    between atoms: N_7  and  C_14 
REMARK    4  A    between atoms: C_12  and  C_17 
REMARK    5  A    between atoms: C_12  and  C_13 
REMARK    6  A    between atoms: C_13  and  C_14 
REMARK    7  A    between atoms: C_14  and  C_15 
REMARK    8  A    between atoms: C_17  and  C_18 
REMARK    9  A    between atoms: C_18  and  N_20 
REMARK   10  A    between atoms: C_21  and  C_22 
REMARK   11  A    between atoms: C_22  and  C_23 
ROOT
HETATM    1  O           1     -21.131  -7.602  -6.491  0.00  0.00    -0.271 OA
HETATM    2  C           1     -21.625  -6.799  -5.735  0.00  0.00     0.249 C 
HETATM    3  N           1     -21.808  -5.503  -6.138  0.00  0.00    -0.345 N 
HETATM    4  H           1     -22.222  -4.831  -5.505  0.00  0.00     0.163 HD
ENDROOT
BRANCH   3   5
HETATM    5  C           1     -21.409  -5.094  -7.471  0.00  0.00     0.185 C 
BRANCH   5   6
HETATM    6  C           1     -22.439  -4.122  -8.031  0.00  0.00     0.036 C 
BRANCH   6   7
HETATM    7  C           1     -22.904  -4.606  -9.399  0.00  0.00     0.004 C 
BRANCH   7   8
HETATM    8  C           1     -22.520  -3.582 -10.458  0.00  0.00     0.027 C 
BRANCH   8   9
HETATM    9  C           1     -21.629  -4.242 -11.503  0.00  0.00     0.229 C 
BRANCH   9  10
HETATM   10  N           1     -20.296  -3.555 -11.531  0.00  0.00    -0.079 N 
HETATM   11  H           1     -19.595  -4.174 -11.999  0.00  0.00     0.274 HD
HETATM   12  H           1     -19.988  -3.355 -10.553  0.00  0.00     0.274 HD
HETATM   13  H           1     -20.378  -2.658 -12.060  0.00  0.00     0.274 HD
ENDBRANCH   9  10
ENDBRANCH   8   9
ENDBRANCH   7   8
ENDBRANCH   6   7
ENDBRANCH   5   6
BRANCH   5  14
HETATM   14  C           1     -20.062  -4.420  -7.407  0.00  0.00     0.196 C 
HETATM   15  O           1     -19.636  -3.780  -8.392  0.00  0.00    -0.646 OA
HETATM   16  O           1     -19.370  -4.502  -6.369  0.00  0.00    -0.646 OA
ENDBRANCH   5  14
ENDBRANCH   3   5
BRANCH   2  17
HETATM   17  C           1     -22.039  -7.225  -4.348  0.00  0.00     0.284 C 
BRANCH  17  18
HETATM   18  N           1     -21.562  -8.624  -4.092  0.00  0.00    -0.066 N 
HETATM   19  H           1     -21.303  -8.724  -3.085  0.00  0.00     0.275 HD
HETATM   20  H           1     -20.727  -8.822  -4.688  0.00  0.00     0.275 HD
HETATM   21  H           1     -22.324  -9.300  -4.324  0.00  0.00     0.275 HD
ENDBRANCH  17  18
BRANCH  17  22
HETATM   22  C           1     -21.423  -6.283  -3.323  0.00  0.00     0.155 C 
BRANCH  22  23
HETATM   23  C           1     -21.621  -6.847  -1.937  0.00  0.00     0.175 C 
HETATM   24  O           1     -20.800  -7.666  -1.472  0.00  0.00    -0.648 OA
HETATM   25  O           1     -22.608  -6.494  -1.254  0.00  0.00    -0.648 OA
ENDBRANCH  22  23
ENDBRANCH  17  22
ENDBRANCH   2  17
TORSDOF 11
ENDMDL
