MODEL 1
REMARK VINA RESULT:      -7.9      0.000      0.000
REMARK  13 active torsions:
REMARK  status: ('A' for Active; 'I' for Inactive)
REMARK       I    between atoms: N_9  and  C_10 
REMARK       I    between atoms: C_10  and  N_11 
REMARK    1  A    between atoms: N_12  and  C_13 
REMARK    2  A    between atoms: C_13  and  C_14 
REMARK    3  A    between atoms: C_14  and  C_15 
REMARK    4  A    between atoms: C_15  and  C_16 
REMARK    5  A    between atoms: C_16  and  C_17 
REMARK    6  A    between atoms: C_16  and  N_20 
REMARK       I    between atoms: N_20  and  C_21 
REMARK    7  A    between atoms: C_21  and  C_22 
REMARK    8  A    between atoms: C_22  and  C_23 
REMARK    9  A    between atoms: C_22  and  N_35 
REMARK   10  A    between atoms: C_23  and  C_24 
REMARK   11  A    between atoms: C_27  and  O_28 
REMARK   12  A    between atoms: O_28  and  P_29 
REMARK   13  A    between atoms: P_29  and  O_30 
ROOT
HETATM    1  O           1     -35.321  -5.357 -13.404  0.00  0.00    -0.271 OA
HETATM    2  H           1     -33.516  -2.960 -14.320  0.00  0.00     0.163 HD
HETATM    3  N           1     -34.145  -3.487 -13.725  0.00  0.00    -0.345 N 
HETATM    4  C           1     -34.570  -4.729 -14.112  0.00  0.00     0.249 C 
ENDROOT
BRANCH   4   5
HETATM    5  C           1     -34.103  -5.313 -15.423  0.00  0.00     0.278 C 
BRANCH   5   6
HETATM    6  C           1     -33.570  -4.199 -16.314  0.00  0.00     0.081 C 
BRANCH   6   7
HETATM    7  C           1     -32.227  -4.586 -16.849  0.00  0.00    -0.056 A 
HETATM    8  C           1     -31.853  -5.929 -16.889  0.00  0.00     0.010 A 
HETATM    9  C           1     -30.602  -6.290 -17.388  0.00  0.00     0.038 A 
HETATM   10  C           1     -29.725  -5.308 -17.848  0.00  0.00     0.081 A 
HETATM   11  C           1     -30.098  -3.965 -17.809  0.00  0.00     0.038 A 
HETATM   12  C           1     -31.350  -3.604 -17.310  0.00  0.00     0.010 A 
BRANCH  10  13
HETATM   13  O           1     -28.509  -5.659 -18.333  0.00  0.00    -0.247 OA
BRANCH  13  14
HETATM   14  P           1     -27.317  -5.917 -17.275  0.00  0.00     0.411 P 
HETATM   15  O           1     -26.986  -4.649 -16.585  0.00  0.00    -0.624 OA
HETATM   16  O           1     -27.750  -6.922 -16.278  0.00  0.00    -0.624 OA
BRANCH  14  17
HETATM   17  O           1     -26.012  -6.461 -18.054  0.00  0.00    -0.300 OA
HETATM   18  H           1     -25.514  -6.925 -17.402  0.00  0.00     0.223 HD
ENDBRANCH  14  17
ENDBRANCH  13  14
ENDBRANCH  10  13
ENDBRANCH   6   7
ENDBRANCH   5   6
BRANCH   5  19
HETATM   19  N           1     -35.254  -5.990 -16.106  0.00  0.00    -0.066 N 
HETATM   20  H           1     -35.876  -6.428 -15.389  0.00  0.00     0.275 HD
HETATM   21  H           1     -35.797  -5.285 -16.653  0.00  0.00     0.275 HD
HETATM   22  H           1     -34.891  -6.728 -16.751  0.00  0.00     0.275 HD
ENDBRANCH   5  19
ENDBRANCH   4   5
BRANCH   3  23
HETATM   23  C           1     -34.593  -2.925 -12.466  0.00  0.00     0.185 C 
BRANCH  23  24
HETATM   24  C           1     -33.425  -2.870 -11.491  0.00  0.00     0.038 C 
BRANCH  24  25
HETATM   25  C           1     -32.877  -4.274 -11.273  0.00  0.00     0.023 C 
BRANCH  25  26
HETATM   26  C           1     -33.931  -5.131 -10.587  0.00  0.00     0.138 C 
BRANCH  26  27
HETATM   27  N           1     -33.686  -6.548 -10.893  0.00  0.00    -0.227 N 
HETATM   28  H           1     -32.987  -6.814 -11.629  0.00  0.00     0.177 HD
HETATM   29  C           1     -34.318  -7.449 -10.267  0.00  0.00     0.665 C 
HETATM   30  N           1     -34.101  -8.702 -10.535  0.00  0.00    -0.235 N 
HETATM   31  N           1     -35.162  -7.130  -9.378  0.00  0.00    -0.235 N 
HETATM   32  H           1     -33.405  -8.965 -11.269  0.00  0.00     0.174 HD
HETATM   33  H           1     -34.623  -9.446 -10.019  0.00  0.00     0.174 HD
HETATM   34  H           1     -35.686  -7.877  -8.859  0.00  0.00     0.174 HD
HETATM   35  H           1     -35.337  -6.117  -9.160  0.00  0.00     0.174 HD
ENDBRANCH  26  27
ENDBRANCH  25  26
ENDBRANCH  24  25
ENDBRANCH  23  24
BRANCH  23  36
HETATM   36  C           1     -35.122  -1.531 -12.697  0.00  0.00     0.196 C 
HETATM   37  O           1     -34.640  -0.567 -12.065  0.00  0.00    -0.646 OA
HETATM   38  O           1     -36.043  -1.341 -13.521  0.00  0.00    -0.646 OA
ENDBRANCH  23  36
ENDBRANCH   3  23
TORSDOF 13
ENDMDL
MODEL 2
REMARK VINA RESULT:      -7.8     13.286     15.208
REMARK  13 active torsions:
REMARK  status: ('A' for Active; 'I' for Inactive)
REMARK       I    between atoms: N_9  and  C_10 
REMARK       I    between atoms: C_10  and  N_11 
REMARK    1  A    between atoms: N_12  and  C_13 
REMARK    2  A    between atoms: C_13  and  C_14 
REMARK    3  A    between atoms: C_14  and  C_15 
REMARK    4  A    between atoms: C_15  and  C_16 
REMARK    5  A    between atoms: C_16  and  C_17 
REMARK    6  A    between atoms: C_16  and  N_20 
REMARK       I    between atoms: N_20  and  C_21 
REMARK    7  A    between atoms: C_21  and  C_22 
REMARK    8  A    between atoms: C_22  and  C_23 
REMARK    9  A    between atoms: C_22  and  N_35 
REMARK   10  A    between atoms: C_23  and  C_24 
REMARK   11  A    between atoms: C_27  and  O_28 
REMARK   12  A    between atoms: O_28  and  P_29 
REMARK   13  A    between atoms: P_29  and  O_30 
ROOT
HETATM    1  O           1     -19.673  -7.523  -6.133  0.00  0.00    -0.271 OA
HETATM    2  H           1     -21.206  -8.119  -3.463  0.00  0.00     0.163 HD
HETATM    3  N           1     -20.597  -8.293  -4.253  0.00  0.00    -0.345 N 
HETATM    4  C           1     -20.398  -7.315  -5.190  0.00  0.00     0.249 C 
ENDROOT
BRANCH   4   5
HETATM    5  C           1     -21.084  -5.979  -5.045  0.00  0.00     0.278 C 
BRANCH   5   6
HETATM    6  C           1     -20.229  -4.896  -5.690  0.00  0.00     0.081 C 
BRANCH   6   7
HETATM    7  C           1     -20.785  -4.555  -7.036  0.00  0.00    -0.056 A 
HETATM    8  C           1     -19.983  -4.667  -8.172  0.00  0.00     0.010 A 
HETATM    9  C           1     -20.501  -4.350  -9.427  0.00  0.00     0.038 A 
HETATM   10  C           1     -21.823  -3.922  -9.547  0.00  0.00     0.081 A 
HETATM   11  C           1     -22.627  -3.811  -8.413  0.00  0.00     0.038 A 
HETATM   12  C           1     -22.107  -4.128  -7.158  0.00  0.00     0.010 A 
BRANCH  10  13
HETATM   13  O           1     -22.327  -3.614 -10.767  0.00  0.00    -0.247 OA
BRANCH  13  14
HETATM   14  P           1     -23.718  -4.306 -11.209  0.00  0.00     0.411 P 
HETATM   15  O           1     -23.977  -5.485 -10.351  0.00  0.00    -0.624 OA
HETATM   16  O           1     -24.822  -3.333 -11.057  0.00  0.00    -0.624 OA
BRANCH  14  17
HETATM   17  O           1     -23.622  -4.774 -12.751  0.00  0.00    -0.300 OA
HETATM   18  H           1     -22.780  -4.472 -13.046  0.00  0.00     0.223 HD
ENDBRANCH  14  17
ENDBRANCH  13  14
ENDBRANCH  10  13
ENDBRANCH   6   7
ENDBRANCH   5   6
BRANCH   5  19
HETATM   19  N           1     -21.269  -5.668  -3.589  0.00  0.00    -0.066 N 
HETATM   20  H           1     -20.730  -6.355  -3.015  0.00  0.00     0.275 HD
HETATM   21  H           1     -20.921  -4.702  -3.394  0.00  0.00     0.275 HD
HETATM   22  H           1     -22.283  -5.730  -3.346  0.00  0.00     0.275 HD
ENDBRANCH   5  19
ENDBRANCH   4   5
BRANCH   3  23
HETATM   23  C           1     -19.938  -9.576  -4.391  0.00  0.00     0.185 C 
BRANCH  23  24
HETATM   24  C           1     -19.484 -10.064  -3.022  0.00  0.00     0.038 C 
BRANCH  24  25
HETATM   25  C           1     -20.051  -9.152  -1.943  0.00  0.00     0.023 C 
BRANCH  25  26
HETATM   26  C           1     -20.895  -9.971  -0.976  0.00  0.00     0.138 C 
BRANCH  26  27
HETATM   27  N           1     -22.165  -9.275  -0.722  0.00  0.00    -0.227 N 
HETATM   28  H           1     -22.948  -9.339  -1.418  0.00  0.00     0.177 HD
HETATM   29  C           1     -22.315  -8.599   0.338  0.00  0.00     0.665 C 
HETATM   30  N           1     -23.438  -7.985   0.564  0.00  0.00    -0.235 N 
HETATM   31  N           1     -21.371  -8.522   1.179  0.00  0.00    -0.235 N 
HETATM   32  H           1     -24.216  -8.048  -0.130  0.00  0.00     0.174 HD
HETATM   33  H           1     -23.561  -7.426   1.439  0.00  0.00     0.174 HD
HETATM   34  H           1     -21.496  -7.961   2.058  0.00  0.00     0.174 HD
HETATM   35  H           1     -20.464  -9.019   0.997  0.00  0.00     0.174 HD
ENDBRANCH  26  27
ENDBRANCH  25  26
ENDBRANCH  24  25
ENDBRANCH  23  24
BRANCH  23  36
HETATM   36  C           1     -20.900 -10.574  -4.987  0.00  0.00     0.196 C 
HETATM   37  O           1     -21.511 -11.374  -4.246  0.00  0.00    -0.646 OA
HETATM   38  O           1     -21.087 -10.601  -6.223  0.00  0.00    -0.646 OA
ENDBRANCH  23  36
ENDBRANCH   3  23
TORSDOF 13
ENDMDL
MODEL 3
REMARK VINA RESULT:      -7.7      2.759      3.590
REMARK  13 active torsions:
REMARK  status: ('A' for Active; 'I' for Inactive)
REMARK       I    between atoms: N_9  and  C_10 
REMARK       I    between atoms: C_10  and  N_11 
REMARK    1  A    between atoms: N_12  and  C_13 
REMARK    2  A    between atoms: C_13  and  C_14 
REMARK    3  A    between atoms: C_14  and  C_15 
REMARK    4  A    between atoms: C_15  and  C_16 
REMARK    5  A    between atoms: C_16  and  C_17 
REMARK    6  A    between atoms: C_16  and  N_20 
REMARK       I    between atoms: N_20  and  C_21 
REMARK    7  A    between atoms: C_21  and  C_22 
REMARK    8  A    between atoms: C_22  and  C_23 
REMARK    9  A    between atoms: C_22  and  N_35 
REMARK   10  A    between atoms: C_23  and  C_24 
REMARK   11  A    between atoms: C_27  and  O_28 
REMARK   12  A    between atoms: O_28  and  P_29 
REMARK   13  A    between atoms: P_29  and  O_30 
ROOT
HETATM    1  O           1     -34.681  -2.858 -13.845  0.00  0.00    -0.271 OA
HETATM    2  H           1     -34.843  -1.857 -16.813  0.00  0.00     0.163 HD
HETATM    3  N           1     -34.980  -1.842 -15.810  0.00  0.00    -0.345 N 
HETATM    4  C           1     -34.516  -2.875 -15.041  0.00  0.00     0.249 C 
ENDROOT
BRANCH   4   5
HETATM    5  C           1     -33.801  -4.036 -15.689  0.00  0.00     0.278 C 
BRANCH   5   6
HETATM    6  C           1     -33.270  -3.609 -17.051  0.00  0.00     0.081 C 
BRANCH   6   7
HETATM    7  C           1     -31.913  -4.201 -17.266  0.00  0.00    -0.056 A 
HETATM    8  C           1     -31.716  -5.573 -17.107  0.00  0.00     0.010 A 
HETATM    9  C           1     -30.451  -6.125 -17.308  0.00  0.00     0.038 A 
HETATM   10  C           1     -29.382  -5.304 -17.668  0.00  0.00     0.081 A 
HETATM   11  C           1     -29.578  -3.933 -17.828  0.00  0.00     0.038 A 
HETATM   12  C           1     -30.843  -3.381 -17.627  0.00  0.00     0.010 A 
BRANCH  10  13
HETATM   13  O           1     -28.153  -5.841 -17.864  0.00  0.00    -0.247 OA
BRANCH  13  14
HETATM   14  P           1     -27.219  -6.085 -16.569  0.00  0.00     0.411 P 
HETATM   15  O           1     -25.795  -6.006 -16.967  0.00  0.00    -0.624 OA
HETATM   16  O           1     -27.505  -5.050 -15.551  0.00  0.00    -0.624 OA
BRANCH  14  17
HETATM   17  O           1     -27.523  -7.545 -15.952  0.00  0.00    -0.300 OA
HETATM   18  H           1     -28.202  -7.905 -16.498  0.00  0.00     0.223 HD
ENDBRANCH  14  17
ENDBRANCH  13  14
ENDBRANCH  10  13
ENDBRANCH   6   7
ENDBRANCH   5   6
BRANCH   5  19
HETATM   19  N           1     -34.757  -5.178 -15.861  0.00  0.00    -0.066 N 
HETATM   20  H           1     -34.485  -5.737 -16.702  0.00  0.00     0.275 HD
HETATM   21  H           1     -34.726  -5.789 -15.013  0.00  0.00     0.275 HD
HETATM   22  H           1     -35.725  -4.806 -15.988  0.00  0.00     0.275 HD
ENDBRANCH   5  19
ENDBRANCH   4   5
BRANCH   3  23
HETATM   23  C           1     -35.667  -0.727 -15.189  0.00  0.00     0.185 C 
BRANCH  23  24
HETATM   24  C           1     -34.722   0.463 -15.093  0.00  0.00     0.038 C 
BRANCH  24  25
HETATM   25  C           1     -34.753   1.025 -13.678  0.00  0.00     0.023 C 
BRANCH  25  26
HETATM   26  C           1     -35.526   0.078 -12.771  0.00  0.00     0.138 C 
BRANCH  26  27
HETATM   27  N           1     -34.592  -0.609 -11.868  0.00  0.00    -0.227 N 
HETATM   28  H           1     -33.556  -0.511 -12.009  0.00  0.00     0.177 HD
HETATM   29  C           1     -35.036  -1.319 -10.918  0.00  0.00     0.665 C 
HETATM   30  N           1     -34.210  -1.925 -10.118  0.00  0.00    -0.235 N 
HETATM   31  N           1     -36.285  -1.437 -10.746  0.00  0.00    -0.235 N 
HETATM   32  H           1     -33.180  -1.828 -10.260  0.00  0.00     0.174 HD
HETATM   33  H           1     -34.577  -2.512  -9.335  0.00  0.00     0.174 HD
HETATM   34  H           1     -36.653  -2.026  -9.959  0.00  0.00     0.174 HD
HETATM   35  H           1     -36.952  -0.946 -11.392  0.00  0.00     0.174 HD
ENDBRANCH  26  27
ENDBRANCH  25  26
ENDBRANCH  24  25
ENDBRANCH  23  24
BRANCH  23  36
HETATM   36  C           1     -36.868  -0.350 -16.021  0.00  0.00     0.196 C 
HETATM   37  O           1     -37.436   0.748 -15.838  0.00  0.00    -0.646 OA
HETATM   38  O           1     -37.296  -1.136 -16.893  0.00  0.00    -0.646 OA
ENDBRANCH  23  36
ENDBRANCH   3  23
TORSDOF 13
ENDMDL
MODEL 4
REMARK VINA RESULT:      -7.6      1.581      2.235
REMARK  13 active torsions:
REMARK  status: ('A' for Active; 'I' for Inactive)
REMARK       I    between atoms: N_9  and  C_10 
REMARK       I    between atoms: C_10  and  N_11 
REMARK    1  A    between atoms: N_12  and  C_13 
REMARK    2  A    between atoms: C_13  and  C_14 
REMARK    3  A    between atoms: C_14  and  C_15 
REMARK    4  A    between atoms: C_15  and  C_16 
REMARK    5  A    between atoms: C_16  and  C_17 
REMARK    6  A    between atoms: C_16  and  N_20 
REMARK       I    between atoms: N_20  and  C_21 
REMARK    7  A    between atoms: C_21  and  C_22 
REMARK    8  A    between atoms: C_22  and  C_23 
REMARK    9  A    between atoms: C_22  and  N_35 
REMARK   10  A    between atoms: C_23  and  C_24 
REMARK   11  A    between atoms: C_27  and  O_28 
REMARK   12  A    between atoms: O_28  and  P_29 
REMARK   13  A    between atoms: P_29  and  O_30 
ROOT
HETATM    1  O           1     -34.870  -4.932 -15.378  0.00  0.00    -0.271 OA
HETATM    2  H           1     -32.316  -3.556 -14.186  0.00  0.00     0.163 HD
HETATM    3  N           1     -33.261  -3.919 -14.209  0.00  0.00    -0.345 N 
HETATM    4  C           1     -33.743  -4.499 -15.351  0.00  0.00     0.249 C 
ENDROOT
BRANCH   4   5
HETATM    5  C           1     -32.866  -4.597 -16.576  0.00  0.00     0.278 C 
BRANCH   5   6
HETATM    6  C           1     -31.408  -4.422 -16.172  0.00  0.00     0.081 C 
BRANCH   6   7
HETATM    7  C           1     -30.534  -5.191 -17.111  0.00  0.00    -0.056 A 
HETATM    8  C           1     -29.629  -4.519 -17.933  0.00  0.00     0.010 A 
HETATM    9  C           1     -28.814  -5.236 -18.808  0.00  0.00     0.038 A 
HETATM   10  C           1     -28.903  -6.627 -18.861  0.00  0.00     0.081 A 
HETATM   11  C           1     -29.805  -7.301 -18.039  0.00  0.00     0.038 A 
HETATM   12  C           1     -30.621  -6.582 -17.164  0.00  0.00     0.010 A 
BRANCH  10  13
HETATM   13  O           1     -28.110  -7.324 -19.711  0.00  0.00    -0.247 OA
BRANCH  13  14
HETATM   14  P           1     -26.604  -6.793 -19.950  0.00  0.00     0.411 P 
HETATM   15  O           1     -26.622  -5.681 -20.928  0.00  0.00    -0.624 OA
HETATM   16  O           1     -26.041  -6.313 -18.668  0.00  0.00    -0.624 OA
BRANCH  14  17
HETATM   17  O           1     -25.692  -7.996 -20.522  0.00  0.00    -0.300 OA
HETATM   18  H           1     -25.171  -8.278 -19.788  0.00  0.00     0.223 HD
ENDBRANCH  14  17
ENDBRANCH  13  14
ENDBRANCH  10  13
ENDBRANCH   6   7
ENDBRANCH   5   6
BRANCH   5  19
HETATM   19  N           1     -33.247  -3.522 -17.550  0.00  0.00    -0.066 N 
HETATM   20  H           1     -33.600  -2.688 -17.027  0.00  0.00     0.275 HD
HETATM   21  H           1     -32.409  -3.251 -18.113  0.00  0.00     0.275 HD
HETATM   22  H           1     -33.996  -3.877 -18.186  0.00  0.00     0.275 HD
ENDBRANCH   5  19
ENDBRANCH   4   5
BRANCH   3  23
HETATM   23  C           1     -34.102  -3.825 -13.032  0.00  0.00     0.185 C 
BRANCH  23  24
HETATM   24  C           1     -33.253  -4.025 -11.783  0.00  0.00     0.038 C 
BRANCH  24  25
HETATM   25  C           1     -34.116  -4.601 -10.669  0.00  0.00     0.023 C 
BRANCH  25  26
HETATM   26  C           1     -34.900  -5.794 -11.198  0.00  0.00     0.138 C 
BRANCH  26  27
HETATM   27  N           1     -34.062  -7.000 -11.135  0.00  0.00    -0.227 N 
HETATM   28  H           1     -33.278  -7.131 -11.820  0.00  0.00     0.177 HD
HETATM   29  C           1     -34.284  -7.880 -10.253  0.00  0.00     0.665 C 
HETATM   30  N           1     -33.542  -8.946 -10.196  0.00  0.00    -0.235 N 
HETATM   31  N           1     -35.229  -7.723  -9.425  0.00  0.00    -0.235 N 
HETATM   32  H           1     -32.763  -9.076 -10.880  0.00  0.00     0.174 HD
HETATM   33  H           1     -33.726  -9.674  -9.469  0.00  0.00     0.174 HD
HETATM   34  H           1     -35.414  -8.454  -8.694  0.00  0.00     0.174 HD
HETATM   35  H           1     -35.828  -6.862  -9.470  0.00  0.00     0.174 HD
ENDBRANCH  26  27
ENDBRANCH  25  26
ENDBRANCH  24  25
ENDBRANCH  23  24
BRANCH  23  36
HETATM   36  C           1     -34.751  -2.464 -12.985  0.00  0.00     0.196 C 
HETATM   37  O           1     -35.087  -1.895 -14.046  0.00  0.00    -0.646 OA
HETATM   38  O           1     -34.953  -1.905 -11.885  0.00  0.00    -0.646 OA
ENDBRANCH  23  36
ENDBRANCH   3  23
TORSDOF 13
ENDMDL
MODEL 5
REMARK VINA RESULT:      -7.4     13.655     15.577
REMARK  13 active torsions:
REMARK  status: ('A' for Active; 'I' for Inactive)
REMARK       I    between atoms: N_9  and  C_10 
REMARK       I    between atoms: C_10  and  N_11 
REMARK    1  A    between atoms: N_12  and  C_13 
REMARK    2  A    between atoms: C_13  and  C_14 
REMARK    3  A    between atoms: C_14  and  C_15 
REMARK    4  A    between atoms: C_15  and  C_16 
REMARK    5  A    between atoms: C_16  and  C_17 
REMARK    6  A    between atoms: C_16  and  N_20 
REMARK       I    between atoms: N_20  and  C_21 
REMARK    7  A    between atoms: C_21  and  C_22 
REMARK    8  A    between atoms: C_22  and  C_23 
REMARK    9  A    between atoms: C_22  and  N_35 
REMARK   10  A    between atoms: C_23  and  C_24 
REMARK   11  A    between atoms: C_27  and  O_28 
REMARK   12  A    between atoms: O_28  and  P_29 
REMARK   13  A    between atoms: P_29  and  O_30 
ROOT
HETATM    1  O           1     -20.933  -8.278  -5.984  0.00  0.00    -0.271 OA
HETATM    2  H           1     -19.860  -7.592  -3.118  0.00  0.00     0.163 HD
HETATM    3  N           1     -20.014  -8.141  -3.955  0.00  0.00    -0.345 N 
HETATM    4  C           1     -20.749  -7.623  -4.987  0.00  0.00     0.249 C 
ENDROOT
BRANCH   4   5
HETATM    5  C           1     -21.329  -6.234  -4.877  0.00  0.00     0.278 C 
BRANCH   5   6
HETATM    6  C           1     -20.370  -5.231  -5.505  0.00  0.00     0.081 C 
BRANCH   6   7
HETATM    7  C           1     -20.886  -4.818  -6.847  0.00  0.00    -0.056 A 
HETATM    8  C           1     -22.116  -4.169  -6.953  0.00  0.00     0.010 A 
HETATM    9  C           1     -22.596  -3.783  -8.204  0.00  0.00     0.038 A 
HETATM   10  C           1     -21.846  -4.048  -9.350  0.00  0.00     0.081 A 
HETATM   11  C           1     -20.617  -4.696  -9.246  0.00  0.00     0.038 A 
HETATM   12  C           1     -20.136  -5.082  -7.994  0.00  0.00     0.010 A 
BRANCH  10  13
HETATM   13  O           1     -22.314  -3.673 -10.566  0.00  0.00    -0.247 OA
BRANCH  13  14
HETATM   14  P           1     -23.705  -4.317 -11.074  0.00  0.00     0.411 P 
HETATM   15  O           1     -23.599  -4.647 -12.513  0.00  0.00    -0.624 OA
HETATM   16  O           1     -23.989  -5.549 -10.304  0.00  0.00    -0.624 OA
BRANCH  14  17
HETATM   17  O           1     -24.902  -3.257 -10.854  0.00  0.00    -0.300 OA
HETATM   18  H           1     -24.486  -2.412 -10.867  0.00  0.00     0.223 HD
ENDBRANCH  14  17
ENDBRANCH  13  14
ENDBRANCH  10  13
ENDBRANCH   6   7
ENDBRANCH   5   6
BRANCH   5  19
HETATM   19  N           1     -21.534  -5.891  -3.431  0.00  0.00    -0.066 N 
HETATM   20  H           1     -20.638  -5.536  -3.027  0.00  0.00     0.275 HD
HETATM   21  H           1     -22.269  -5.152  -3.350  0.00  0.00     0.275 HD
HETATM   22  H           1     -21.838  -6.745  -2.911  0.00  0.00     0.275 HD
ENDBRANCH   5  19
ENDBRANCH   4   5
BRANCH   3  23
HETATM   23  C           1     -19.456  -9.475  -4.059  0.00  0.00     0.185 C 
BRANCH  23  24
HETATM   24  C           1     -17.988  -9.445  -3.653  0.00  0.00     0.038 C 
BRANCH  24  25
HETATM   25  C           1     -17.166 -10.241  -4.657  0.00  0.00     0.023 C 
BRANCH  25  26
HETATM   26  C           1     -17.825 -10.165  -6.028  0.00  0.00     0.138 C 
BRANCH  26  27
HETATM   27  N           1     -17.923 -11.515  -6.600  0.00  0.00    -0.227 N 
HETATM   28  H           1     -17.055 -12.084  -6.757  0.00  0.00     0.177 HD
HETATM   29  C           1     -19.056 -11.993  -6.904  0.00  0.00     0.665 C 
HETATM   30  N           1     -19.143 -13.187  -7.408  0.00  0.00    -0.235 N 
HETATM   31  N           1     -20.104 -11.307  -6.714  0.00  0.00    -0.235 N 
HETATM   32  H           1     -18.279 -13.753  -7.565  0.00  0.00     0.174 HD
HETATM   33  H           1     -20.079 -13.581  -7.660  0.00  0.00     0.174 HD
HETATM   34  H           1     -21.043 -11.704  -6.966  0.00  0.00     0.174 HD
HETATM   35  H           1     -20.033 -10.343  -6.306  0.00  0.00     0.174 HD
ENDBRANCH  26  27
ENDBRANCH  25  26
ENDBRANCH  24  25
ENDBRANCH  23  24
BRANCH  23  36
HETATM   36  C           1     -20.211 -10.409  -3.147  0.00  0.00     0.196 C 
HETATM   37  O           1     -20.526 -11.552  -3.543  0.00  0.00    -0.646 OA
HETATM   38  O           1     -20.524 -10.040  -1.994  0.00  0.00    -0.646 OA
ENDBRANCH  23  36
ENDBRANCH   3  23
TORSDOF 13
ENDMDL
MODEL 6
REMARK VINA RESULT:      -7.4     14.000     15.854
REMARK  13 active torsions:
REMARK  status: ('A' for Active; 'I' for Inactive)
REMARK       I    between atoms: N_9  and  C_10 
REMARK       I    between atoms: C_10  and  N_11 
REMARK    1  A    between atoms: N_12  and  C_13 
REMARK    2  A    between atoms: C_13  and  C_14 
REMARK    3  A    between atoms: C_14  and  C_15 
REMARK    4  A    between atoms: C_15  and  C_16 
REMARK    5  A    between atoms: C_16  and  C_17 
REMARK    6  A    between atoms: C_16  and  N_20 
REMARK       I    between atoms: N_20  and  C_21 
REMARK    7  A    between atoms: C_21  and  C_22 
REMARK    8  A    between atoms: C_22  and  C_23 
REMARK    9  A    between atoms: C_22  and  N_35 
REMARK   10  A    between atoms: C_23  and  C_24 
REMARK   11  A    between atoms: C_27  and  O_28 
REMARK   12  A    between atoms: O_28  and  P_29 
REMARK   13  A    between atoms: P_29  and  O_30 
ROOT
HETATM    1  O           1     -20.881  -8.827  -5.506  0.00  0.00    -0.271 OA
HETATM    2  H           1     -20.372  -7.553  -2.685  0.00  0.00     0.163 HD
HETATM    3  N           1     -20.345  -8.253  -3.417  0.00  0.00    -0.345 N 
HETATM    4  C           1     -20.912  -7.992  -4.635  0.00  0.00     0.249 C 
ENDROOT
BRANCH   4   5
HETATM    5  C           1     -21.577  -6.661  -4.887  0.00  0.00     0.278 C 
BRANCH   5   6
HETATM    6  C           1     -20.545  -5.667  -5.403  0.00  0.00     0.081 C 
BRANCH   6   7
HETATM    7  C           1     -20.965  -5.163  -6.748  0.00  0.00    -0.056 A 
HETATM    8  C           1     -22.121  -4.391  -6.874  0.00  0.00     0.010 A 
HETATM    9  C           1     -22.512  -3.921  -8.127  0.00  0.00     0.038 A 
HETATM   10  C           1     -21.748  -4.222  -9.254  0.00  0.00     0.081 A 
HETATM   11  C           1     -20.593  -4.992  -9.129  0.00  0.00     0.038 A 
HETATM   12  C           1     -20.202  -5.463  -7.876  0.00  0.00     0.010 A 
BRANCH  10  13
HETATM   13  O           1     -22.129  -3.765 -10.472  0.00  0.00    -0.247 OA
BRANCH  13  14
HETATM   14  P           1     -23.545  -4.269 -11.062  0.00  0.00     0.411 P 
HETATM   15  O           1     -23.989  -5.470 -10.318  0.00  0.00    -0.624 OA
HETATM   16  O           1     -24.552  -3.196 -10.914  0.00  0.00    -0.624 OA
BRANCH  14  17
HETATM   17  O           1     -23.378  -4.638 -12.625  0.00  0.00    -0.300 OA
HETATM   18  H           1     -24.207  -4.421 -13.017  0.00  0.00     0.223 HD
ENDBRANCH  14  17
ENDBRANCH  13  14
ENDBRANCH  10  13
ENDBRANCH   6   7
ENDBRANCH   5   6
BRANCH   5  19
HETATM   19  N           1     -22.168  -6.147  -3.607  0.00  0.00    -0.066 N 
HETATM   20  H           1     -21.826  -5.175  -3.431  0.00  0.00     0.275 HD
HETATM   21  H           1     -23.211  -6.140  -3.685  0.00  0.00     0.275 HD
HETATM   22  H           1     -21.881  -6.768  -2.817  0.00  0.00     0.275 HD
ENDBRANCH   5  19
ENDBRANCH   4   5
BRANCH   3  23
HETATM   23  C           1     -19.706  -9.532  -3.173  0.00  0.00     0.185 C 
BRANCH  23  24
HETATM   24  C           1     -18.248  -9.307  -2.795  0.00  0.00     0.038 C 
BRANCH  24  25
HETATM   25  C           1     -17.450 -10.574  -3.070  0.00  0.00     0.023 C 
BRANCH  25  26
HETATM   26  C           1     -16.727 -10.440  -4.404  0.00  0.00     0.138 C 
BRANCH  26  27
HETATM   27  N           1     -17.388 -11.287  -5.408  0.00  0.00    -0.227 N 
HETATM   28  H           1     -17.331 -12.332  -5.333  0.00  0.00     0.177 HD
HETATM   29  C           1     -18.027 -10.755  -6.362  0.00  0.00     0.665 C 
HETATM   30  N           1     -18.613 -11.504  -7.249  0.00  0.00    -0.235 N 
HETATM   31  N           1     -18.097  -9.494  -6.453  0.00  0.00    -0.235 N 
HETATM   32  H           1     -18.555 -12.544  -7.174  0.00  0.00     0.174 HD
HETATM   33  H           1     -19.140 -11.064  -8.038  0.00  0.00     0.174 HD
HETATM   34  H           1     -18.627  -9.053  -7.245  0.00  0.00     0.174 HD
HETATM   35  H           1     -17.625  -8.889  -5.736  0.00  0.00     0.174 HD
ENDBRANCH  26  27
ENDBRANCH  25  26
ENDBRANCH  24  25
ENDBRANCH  23  24
BRANCH  23  36
HETATM   36  C           1     -20.414 -10.242  -2.046  0.00  0.00     0.196 C 
HETATM   37  O           1     -20.961  -9.582  -1.137  0.00  0.00    -0.646 OA
HETATM   38  O           1     -20.454 -11.491  -2.021  0.00  0.00    -0.646 OA
ENDBRANCH  23  36
ENDBRANCH   3  23
TORSDOF 13
ENDMDL
MODEL 7
REMARK VINA RESULT:      -7.4     13.156     15.233
REMARK  13 active torsions:
REMARK  status: ('A' for Active; 'I' for Inactive)
REMARK       I    between atoms: N_9  and  C_10 
REMARK       I    between atoms: C_10  and  N_11 
REMARK    1  A    between atoms: N_12  and  C_13 
REMARK    2  A    between atoms: C_13  and  C_14 
REMARK    3  A    between atoms: C_14  and  C_15 
REMARK    4  A    between atoms: C_15  and  C_16 
REMARK    5  A    between atoms: C_16  and  C_17 
REMARK    6  A    between atoms: C_16  and  N_20 
REMARK       I    between atoms: N_20  and  C_21 
REMARK    7  A    between atoms: C_21  and  C_22 
REMARK    8  A    between atoms: C_22  and  C_23 
REMARK    9  A    between atoms: C_22  and  N_35 
REMARK   10  A    between atoms: C_23  and  C_24 
REMARK   11  A    between atoms: C_27  and  O_28 
REMARK   12  A    between atoms: O_28  and  P_29 
REMARK   13  A    between atoms: P_29  and  O_30 
ROOT
HETATM    1  O           1     -19.916  -8.169  -3.859  0.00  0.00    -0.271 OA
HETATM    2  H           1     -22.501  -9.122  -5.360  0.00  0.00     0.163 HD
HETATM    3  N           1     -21.640  -9.201  -4.832  0.00  0.00    -0.345 N 
HETATM    4  C           1     -20.943  -8.075  -4.488  0.00  0.00     0.249 C 
ENDROOT
BRANCH   4   5
HETATM    5  C           1     -21.456  -6.715  -4.897  0.00  0.00     0.278 C 
BRANCH   5   6
HETATM    6  C           1     -20.350  -5.948  -5.609  0.00  0.00     0.081 C 
BRANCH   6   7
HETATM    7  C           1     -20.899  -5.319  -6.851  0.00  0.00    -0.056 A 
HETATM    8  C           1     -20.155  -5.340  -8.031  0.00  0.00     0.010 A 
HETATM    9  C           1     -20.666  -4.755  -9.189  0.00  0.00     0.038 A 
HETATM   10  C           1     -21.922  -4.149  -9.168  0.00  0.00     0.081 A 
HETATM   11  C           1     -22.666  -4.127  -7.989  0.00  0.00     0.038 A 
HETATM   12  C           1     -22.154  -4.713  -6.831  0.00  0.00     0.010 A 
BRANCH  10  13
HETATM   13  O           1     -22.418  -3.580 -10.293  0.00  0.00    -0.247 OA
BRANCH  13  14
HETATM   14  P           1     -23.715  -4.258 -10.976  0.00  0.00     0.411 P 
HETATM   15  O           1     -24.058  -5.504 -10.253  0.00  0.00    -0.624 OA
HETATM   16  O           1     -24.856  -3.319 -10.909  0.00  0.00    -0.624 OA
BRANCH  14  17
HETATM   17  O           1     -23.393  -4.605 -12.519  0.00  0.00    -0.300 OA
HETATM   18  H           1     -24.163  -5.046 -12.837  0.00  0.00     0.223 HD
ENDBRANCH  14  17
ENDBRANCH  13  14
ENDBRANCH  10  13
ENDBRANCH   6   7
ENDBRANCH   5   6
BRANCH   5  19
HETATM   19  N           1     -21.884  -5.956  -3.676  0.00  0.00    -0.066 N 
HETATM   20  H           1     -22.553  -6.536  -3.121  0.00  0.00     0.275 HD
HETATM   21  H           1     -21.046  -5.738  -3.091  0.00  0.00     0.275 HD
HETATM   22  H           1     -22.350  -5.066  -3.965  0.00  0.00     0.275 HD
ENDBRANCH   5  19
ENDBRANCH   4   5
BRANCH   3  23
HETATM   23  C           1     -21.149 -10.507  -4.440  0.00  0.00     0.185 C 
BRANCH  23  24
HETATM   24  C           1     -22.272 -11.296  -3.781  0.00  0.00     0.038 C 
BRANCH  24  25
HETATM   25  C           1     -22.522 -10.752  -2.381  0.00  0.00     0.023 C 
BRANCH  25  26
HETATM   26  C           1     -21.199 -10.633  -1.637  0.00  0.00     0.138 C 
BRANCH  26  27
HETATM   27  N           1     -21.441 -10.110  -0.285  0.00  0.00    -0.227 N 
HETATM   28  H           1     -21.798 -10.747   0.469  0.00  0.00     0.177 HD
HETATM   29  C           1     -21.216  -8.891  -0.029  0.00  0.00     0.665 C 
HETATM   30  N           1     -21.428  -8.428   1.167  0.00  0.00    -0.235 N 
HETATM   31  N           1     -20.783  -8.122  -0.937  0.00  0.00    -0.235 N 
HETATM   32  H           1     -21.786  -9.062   1.916  0.00  0.00     0.174 HD
HETATM   33  H           1     -21.243  -7.421   1.378  0.00  0.00     0.174 HD
HETATM   34  H           1     -20.597  -7.111  -0.724  0.00  0.00     0.174 HD
HETATM   35  H           1     -20.611  -8.496  -1.903  0.00  0.00     0.174 HD
ENDBRANCH  26  27
ENDBRANCH  25  26
ENDBRANCH  24  25
ENDBRANCH  23  24
BRANCH  23  36
HETATM   36  C           1     -20.662 -11.249  -5.660  0.00  0.00     0.196 C 
HETATM   37  O           1     -21.303 -11.181  -6.730  0.00  0.00    -0.646 OA
HETATM   38  O           1     -19.616 -11.932  -5.601  0.00  0.00    -0.646 OA
ENDBRANCH  23  36
ENDBRANCH   3  23
TORSDOF 13
ENDMDL
MODEL 8
REMARK VINA RESULT:      -7.3     14.757     16.566
REMARK  13 active torsions:
REMARK  status: ('A' for Active; 'I' for Inactive)
REMARK       I    between atoms: N_9  and  C_10 
REMARK       I    between atoms: C_10  and  N_11 
REMARK    1  A    between atoms: N_12  and  C_13 
REMARK    2  A    between atoms: C_13  and  C_14 
REMARK    3  A    between atoms: C_14  and  C_15 
REMARK    4  A    between atoms: C_15  and  C_16 
REMARK    5  A    between atoms: C_16  and  C_17 
REMARK    6  A    between atoms: C_16  and  N_20 
REMARK       I    between atoms: N_20  and  C_21 
REMARK    7  A    between atoms: C_21  and  C_22 
REMARK    8  A    between atoms: C_22  and  C_23 
REMARK    9  A    between atoms: C_22  and  N_35 
REMARK   10  A    between atoms: C_23  and  C_24 
REMARK   11  A    between atoms: C_27  and  O_28 
REMARK   12  A    between atoms: O_28  and  P_29 
REMARK   13  A    between atoms: P_29  and  O_30 
ROOT
HETATM    1  O           1     -19.375  -8.323  -5.888  0.00  0.00    -0.271 OA
HETATM    2  H           1     -20.674  -8.145  -3.039  0.00  0.00     0.163 HD
HETATM    3  N           1     -20.084  -8.504  -3.780  0.00  0.00    -0.345 N 
HETATM    4  C           1     -20.077  -7.894  -5.005  0.00  0.00     0.249 C 
ENDROOT
BRANCH   4   5
HETATM    5  C           1     -20.948  -6.686  -5.251  0.00  0.00     0.278 C 
BRANCH   5   6
HETATM    6  C           1     -20.093  -5.543  -5.784  0.00  0.00     0.081 C 
BRANCH   6   7
HETATM    7  C           1     -20.707  -5.002  -7.037  0.00  0.00    -0.056 A 
HETATM    8  C           1     -20.035  -5.126  -8.253  0.00  0.00     0.010 A 
HETATM    9  C           1     -20.606  -4.622  -9.421  0.00  0.00     0.038 A 
HETATM   10  C           1     -21.851  -3.995  -9.373  0.00  0.00     0.081 A 
HETATM   11  C           1     -22.524  -3.871  -8.158  0.00  0.00     0.038 A 
HETATM   12  C           1     -21.952  -4.375  -6.990  0.00  0.00     0.010 A 
BRANCH  10  13
HETATM   13  O           1     -22.407  -3.506 -10.508  0.00  0.00    -0.247 OA
BRANCH  13  14
HETATM   14  P           1     -23.727  -4.238 -11.082  0.00  0.00     0.411 P 
HETATM   15  O           1     -24.010  -5.447 -10.275  0.00  0.00    -0.624 OA
HETATM   16  O           1     -24.878  -3.312 -11.005  0.00  0.00    -0.624 OA
BRANCH  14  17
HETATM   17  O           1     -23.481  -4.665 -12.620  0.00  0.00    -0.300 OA
HETATM   18  H           1     -23.086  -5.520 -12.576  0.00  0.00     0.223 HD
ENDBRANCH  14  17
ENDBRANCH  13  14
ENDBRANCH  10  13
ENDBRANCH   6   7
ENDBRANCH   5   6
BRANCH   5  19
HETATM   19  N           1     -21.595  -6.267  -3.964  0.00  0.00    -0.066 N 
HETATM   20  H           1     -21.268  -5.308  -3.705  0.00  0.00     0.275 HD
HETATM   21  H           1     -22.634  -6.258  -4.085  0.00  0.00     0.275 HD
HETATM   22  H           1     -21.337  -6.940  -3.209  0.00  0.00     0.275 HD
ENDBRANCH   5  19
ENDBRANCH   4   5
BRANCH   3  23
HETATM   23  C           1     -19.248  -9.665  -3.542  0.00  0.00     0.185 C 
BRANCH  23  24
HETATM   24  C           1     -18.041  -9.259  -2.707  0.00  0.00     0.038 C 
BRANCH  24  25
HETATM   25  C           1     -16.763  -9.611  -3.456  0.00  0.00     0.023 C 
BRANCH  25  26
HETATM   26  C           1     -15.900 -10.518  -2.590  0.00  0.00     0.138 C 
BRANCH  26  27
HETATM   27  N           1     -16.616 -11.775  -2.330  0.00  0.00    -0.227 N 
HETATM   28  H           1     -17.127 -12.259  -3.108  0.00  0.00     0.177 HD
HETATM   29  C           1     -16.614 -12.274  -1.167  0.00  0.00     0.665 C 
HETATM   30  N           1     -17.246 -13.387  -0.936  0.00  0.00    -0.235 N 
HETATM   31  N           1     -15.996 -11.692  -0.227  0.00  0.00    -0.235 N 
HETATM   32  H           1     -17.756 -13.868  -1.711  0.00  0.00     0.174 HD
HETATM   33  H           1     -17.245 -13.799   0.024  0.00  0.00     0.174 HD
HETATM   34  H           1     -15.995 -12.107   0.737  0.00  0.00     0.174 HD
HETATM   35  H           1     -15.485 -10.793  -0.414  0.00  0.00     0.174 HD
ENDBRANCH  26  27
ENDBRANCH  25  26
ENDBRANCH  24  25
ENDBRANCH  23  24
BRANCH  23  36
HETATM   36  C           1     -20.042 -10.714  -2.803  0.00  0.00     0.196 C 
HETATM   37  O           1     -19.602 -11.879  -2.708  0.00  0.00    -0.646 OA
HETATM   38  O           1     -21.141 -10.417  -2.285  0.00  0.00    -0.646 OA
ENDBRANCH  23  36
ENDBRANCH   3  23
TORSDOF 13
ENDMDL
MODEL 9
REMARK VINA RESULT:      -7.1     14.574     16.361
REMARK  13 active torsions:
REMARK  status: ('A' for Active; 'I' for Inactive)
REMARK       I    between atoms: N_9  and  C_10 
REMARK       I    between atoms: C_10  and  N_11 
REMARK    1  A    between atoms: N_12  and  C_13 
REMARK    2  A    between atoms: C_13  and  C_14 
REMARK    3  A    between atoms: C_14  and  C_15 
REMARK    4  A    between atoms: C_15  and  C_16 
REMARK    5  A    between atoms: C_16  and  C_17 
REMARK    6  A    between atoms: C_16  and  N_20 
REMARK       I    between atoms: N_20  and  C_21 
REMARK    7  A    between atoms: C_21  and  C_22 
REMARK    8  A    between atoms: C_22  and  C_23 
REMARK    9  A    between atoms: C_22  and  N_35 
REMARK   10  A    between atoms: C_23  and  C_24 
REMARK   11  A    between atoms: C_27  and  O_28 
REMARK   12  A    between atoms: O_28  and  P_29 
REMARK   13  A    between atoms: P_29  and  O_30 
ROOT
HETATM    1  O           1     -20.635  -8.542  -5.690  0.00  0.00    -0.271 OA
HETATM    2  H           1     -20.653  -7.732  -2.660  0.00  0.00     0.163 HD
HETATM    3  N           1     -20.486  -8.309  -3.475  0.00  0.00    -0.345 N 
HETATM    4  C           1     -20.833  -7.853  -4.718  0.00  0.00     0.249 C 
ENDROOT
BRANCH   4   5
HETATM    5  C           1     -21.464  -6.491  -4.873  0.00  0.00     0.278 C 
BRANCH   5   6
HETATM    6  C           1     -20.451  -5.527  -5.476  0.00  0.00     0.081 C 
BRANCH   6   7
HETATM    7  C           1     -20.959  -5.027  -6.792  0.00  0.00    -0.056 A 
HETATM    8  C           1     -22.245  -4.497  -6.888  0.00  0.00     0.010 A 
HETATM    9  C           1     -22.719  -4.030  -8.114  0.00  0.00     0.038 A 
HETATM   10  C           1     -21.905  -4.094  -9.245  0.00  0.00     0.081 A 
HETATM   11  C           1     -20.618  -4.623  -9.150  0.00  0.00     0.038 A 
HETATM   12  C           1     -20.145  -5.089  -7.923  0.00  0.00     0.010 A 
BRANCH  10  13
HETATM   13  O           1     -22.365  -3.640 -10.436  0.00  0.00    -0.247 OA
BRANCH  13  14
HETATM   14  P           1     -23.707  -4.309 -11.034  0.00  0.00     0.411 P 
HETATM   15  O           1     -24.013  -5.552 -10.290  0.00  0.00    -0.624 OA
HETATM   16  O           1     -24.835  -3.361 -10.895  0.00  0.00    -0.624 OA
BRANCH  14  17
HETATM   17  O           1     -23.488  -4.658 -12.595  0.00  0.00    -0.300 OA
HETATM   18  H           1     -22.557  -4.771 -12.691  0.00  0.00     0.223 HD
ENDBRANCH  14  17
ENDBRANCH  13  14
ENDBRANCH  10  13
ENDBRANCH   6   7
ENDBRANCH   5   6
BRANCH   5  19
HETATM   19  N           1     -21.896  -5.985  -3.528  0.00  0.00    -0.066 N 
HETATM   20  H           1     -21.082  -5.540  -3.046  0.00  0.00     0.275 HD
HETATM   21  H           1     -22.656  -5.278  -3.651  0.00  0.00     0.275 HD
HETATM   22  H           1     -22.249  -6.782  -2.953  0.00  0.00     0.275 HD
ENDBRANCH   5  19
ENDBRANCH   4   5
BRANCH   3  23
HETATM   23  C           1     -19.880  -9.618  -3.325  0.00  0.00     0.185 C 
BRANCH  23  24
HETATM   24  C           1     -18.404  -9.458  -2.984  0.00  0.00     0.038 C 
BRANCH  24  25
HETATM   25  C           1     -17.563  -9.734  -4.223  0.00  0.00     0.023 C 
BRANCH  25  26
HETATM   26  C           1     -17.364 -11.235  -4.378  0.00  0.00     0.138 C 
BRANCH  26  27
HETATM   27  N           1     -15.926 -11.536  -4.436  0.00  0.00    -0.227 N 
HETATM   28  H           1     -15.362 -11.244  -5.272  0.00  0.00     0.177 HD
HETATM   29  C           1     -15.367 -12.146  -3.478  0.00  0.00     0.665 C 
HETATM   30  N           1     -14.096 -12.411  -3.529  0.00  0.00    -0.235 N 
HETATM   31  N           1     -16.047 -12.498  -2.469  0.00  0.00    -0.235 N 
HETATM   32  H           1     -13.535 -12.121  -4.361  0.00  0.00     0.174 HD
HETATM   33  H           1     -13.635 -12.915  -2.738  0.00  0.00     0.174 HD
HETATM   34  H           1     -15.583 -13.004  -1.674  0.00  0.00     0.174 HD
HETATM   35  H           1     -17.074 -12.283  -2.428  0.00  0.00     0.174 HD
ENDBRANCH  26  27
ENDBRANCH  25  26
ENDBRANCH  24  25
ENDBRANCH  23  24
BRANCH  23  36
HETATM   36  C           1     -20.574 -10.370  -2.217  0.00  0.00     0.196 C 
HETATM   37  O           1     -20.212 -10.211  -1.031  0.00  0.00    -0.646 OA
HETATM   38  O           1     -21.511 -11.153  -2.484  0.00  0.00    -0.646 OA
ENDBRANCH  23  36
ENDBRANCH   3  23
TORSDOF 13
ENDMDL
