MODEL 1
REMARK VINA RESULT:      -7.5      0.000      0.000
REMARK  12 active torsions:
REMARK  status: ('A' for Active; 'I' for Inactive)
REMARK    1  A    between atoms: C_1  and  O_22 
REMARK    2  A    between atoms: C_4  and  C_5 
REMARK    3  A    between atoms: C_5  and  C_26 
REMARK    4  A    between atoms: N_8  and  C_13 
REMARK    5  A    between atoms: Se_10  and  C_11 
REMARK    6  A    between atoms: C_11  and  C_12 
REMARK    7  A    between atoms: C_12  and  C_13 
REMARK    8  A    between atoms: C_13  and  C_14 
REMARK       I    between atoms: C_14  and  N_15 
REMARK    9  A    between atoms: N_15  and  C_26 
REMARK   10  A    between atoms: O_19  and  P_21 
REMARK   11  A    between atoms: P_21  and  O_22 
REMARK   12  A    between atoms: C_24  and  C_26 
ROOT
HETATM    1  C           1     -32.497  -4.332 -16.236  0.00  0.00     0.189 C 
ENDROOT
BRANCH   1   2
HETATM    2  C           1     -31.975  -5.633 -16.833  0.00  0.00     0.074 C 
BRANCH   2   3
HETATM    3  C           1     -30.478  -5.619 -16.827  0.00  0.00    -0.056 A 
HETATM    4  C           1     -29.771  -6.036 -17.955  0.00  0.00     0.010 A 
HETATM    5  C           1     -28.376  -6.022 -17.948  0.00  0.00     0.038 A 
HETATM    6  C           1     -27.689  -5.592 -16.814  0.00  0.00     0.081 A 
HETATM    7  C           1     -28.394  -5.174 -15.686  0.00  0.00     0.038 A 
HETATM    8  C           1     -29.789  -5.188 -15.693  0.00  0.00     0.010 A 
BRANCH   6   9
HETATM    9  O           1     -26.333  -5.578 -16.808  0.00  0.00    -0.247 OA
BRANCH   9  10
HETATM   10  P           1     -25.569  -6.688 -15.917  0.00  0.00     0.411 P 
HETATM   11  O           1     -26.554  -7.651 -15.377  0.00  0.00    -0.624 OA
HETATM   12  O           1     -24.587  -7.407 -16.759  0.00  0.00    -0.624 OA
BRANCH  10  13
HETATM   13  O           1     -24.800  -5.961 -14.697  0.00  0.00    -0.300 OA
HETATM   14  H           1     -24.004  -6.453 -14.583  0.00  0.00     0.223 HD
ENDBRANCH  10  13
ENDBRANCH   9  10
ENDBRANCH   6   9
ENDBRANCH   2   3
ENDBRANCH   1   2
BRANCH   1  15
HETATM   15  N           1     -33.809  -4.558 -15.661  0.00  0.00    -0.344 N 
HETATM   16  C           1     -34.124  -4.019 -14.443  0.00  0.00     0.249 C 
HETATM   17  O           1     -34.618  -2.919 -14.378  0.00  0.00    -0.271 OA
HETATM   18  H           1     -34.492  -5.113 -16.161  0.00  0.00     0.163 HD
BRANCH  16  19
HETATM   19  C           1     -33.854  -4.800 -13.181  0.00  0.00     0.274 C 
BRANCH  19  20
HETATM   20  N           1     -32.442  -4.559 -12.736  0.00  0.00    -0.067 N 
HETATM   21  H           1     -32.049  -3.738 -13.250  0.00  0.00     0.275 HD
HETATM   22  H           1     -32.429  -4.364 -11.709  0.00  0.00     0.275 HD
HETATM   23  H           1     -31.864  -5.405 -12.938  0.00  0.00     0.275 HD
ENDBRANCH  19  20
BRANCH  19  24
HETATM   24  C           1     -34.813  -4.348 -12.087  0.00  0.00     0.042 C 
BRANCH  24  25
HETATM   25  C           1     -34.032  -4.060 -10.813  0.00  0.00     0.003 C 
BRANCH  25  26
HETATM   26 Se           1     -33.827  -2.134 -10.597  0.00  0.00     0.000 Se
HETATM   27  C           1     -35.644  -1.712 -11.161  0.00  0.00     0.000 C 
ENDBRANCH  25  26
ENDBRANCH  24  25
ENDBRANCH  19  24
ENDBRANCH  16  19
ENDBRANCH   1  15
BRANCH   1  28
HETATM   28  C           1     -32.596  -3.286 -17.319  0.00  0.00     0.197 C 
HETATM   29  O           1     -33.685  -2.710 -17.533  0.00  0.00    -0.646 OA
HETATM   30  O           1     -31.590  -2.995 -18.001  0.00  0.00    -0.646 OA
ENDBRANCH   1  28
TORSDOF 12
ENDMDL
MODEL 2
REMARK VINA RESULT:      -6.9     12.361     14.689
REMARK  12 active torsions:
REMARK  status: ('A' for Active; 'I' for Inactive)
REMARK    1  A    between atoms: C_1  and  O_22 
REMARK    2  A    between atoms: C_4  and  C_5 
REMARK    3  A    between atoms: C_5  and  C_26 
REMARK    4  A    between atoms: N_8  and  C_13 
REMARK    5  A    between atoms: Se_10  and  C_11 
REMARK    6  A    between atoms: C_11  and  C_12 
REMARK    7  A    between atoms: C_12  and  C_13 
REMARK    8  A    between atoms: C_13  and  C_14 
REMARK       I    between atoms: C_14  and  N_15 
REMARK    9  A    between atoms: N_15  and  C_26 
REMARK   10  A    between atoms: O_19  and  P_21 
REMARK   11  A    between atoms: P_21  and  O_22 
REMARK   12  A    between atoms: C_24  and  C_26 
ROOT
HETATM    1  C           1     -21.367  -7.518  -5.210  0.00  0.00     0.189 C 
ENDROOT
BRANCH   1   2
HETATM    2  C           1     -20.396  -6.399  -5.563  0.00  0.00     0.074 C 
BRANCH   2   3
HETATM    3  C           1     -20.941  -5.609  -6.712  0.00  0.00    -0.056 A 
HETATM    4  C           1     -20.199  -5.481  -7.886  0.00  0.00     0.010 A 
HETATM    5  C           1     -20.707  -4.747  -8.957  0.00  0.00     0.038 A 
HETATM    6  C           1     -21.958  -4.139  -8.853  0.00  0.00     0.081 A 
HETATM    7  C           1     -22.701  -4.266  -7.680  0.00  0.00     0.038 A 
HETATM    8  C           1     -22.192  -5.002  -6.610  0.00  0.00     0.010 A 
BRANCH   6   9
HETATM    9  O           1     -22.452  -3.425  -9.894  0.00  0.00    -0.247 OA
BRANCH   9  10
HETATM   10  P           1     -23.554  -4.130 -10.842  0.00  0.00     0.411 P 
HETATM   11  O           1     -22.990  -4.316 -12.198  0.00  0.00    -0.624 OA
HETATM   12  O           1     -23.922  -5.447 -10.276  0.00  0.00    -0.624 OA
BRANCH  10  13
HETATM   13  O           1     -24.867  -3.194 -10.927  0.00  0.00    -0.300 OA
HETATM   14  H           1     -24.542  -2.336 -11.143  0.00  0.00     0.223 HD
ENDBRANCH  10  13
ENDBRANCH   9  10
ENDBRANCH   6   9
ENDBRANCH   2   3
ENDBRANCH   1   2
BRANCH   1  15
HETATM   15  N           1     -22.270  -7.063  -4.171  0.00  0.00    -0.344 N 
HETATM   16  C           1     -21.776  -6.684  -2.952  0.00  0.00     0.249 C 
HETATM   17  O           1     -21.458  -5.535  -2.760  0.00  0.00    -0.271 OA
HETATM   18  H           1     -23.266  -7.024  -4.347  0.00  0.00     0.163 HD
BRANCH  16  19
HETATM   19  C           1     -21.626  -7.702  -1.850  0.00  0.00     0.274 C 
BRANCH  19  20
HETATM   20  N           1     -20.170  -7.907  -1.552  0.00  0.00    -0.067 N 
HETATM   21  H           1     -19.954  -7.542  -0.597  0.00  0.00     0.275 HD
HETATM   22  H           1     -19.947  -8.928  -1.592  0.00  0.00     0.275 HD
HETATM   23  H           1     -19.595  -7.397  -2.259  0.00  0.00     0.275 HD
ENDBRANCH  19  20
BRANCH  19  24
HETATM   24  C           1     -22.334  -7.204  -0.596  0.00  0.00     0.042 C 
BRANCH  24  25
HETATM   25  C           1     -22.299  -8.288   0.473  0.00  0.00     0.003 C 
BRANCH  25  26
HETATM   26 Se           1     -23.079  -9.926  -0.238  0.00  0.00     0.000 Se
HETATM   27  C           1     -21.547 -11.044   0.211  0.00  0.00     0.000 C 
ENDBRANCH  25  26
ENDBRANCH  24  25
ENDBRANCH  19  24
ENDBRANCH  16  19
ENDBRANCH   1  15
BRANCH   1  28
HETATM   28  C           1     -20.595  -8.717  -4.715  0.00  0.00     0.197 C 
HETATM   29  O           1     -19.379  -8.609  -4.449  0.00  0.00    -0.646 OA
HETATM   30  O           1     -21.173  -9.816  -4.571  0.00  0.00    -0.646 OA
ENDBRANCH   1  28
TORSDOF 12
ENDMDL
MODEL 3
REMARK VINA RESULT:      -6.7     12.519     14.888
REMARK  12 active torsions:
REMARK  status: ('A' for Active; 'I' for Inactive)
REMARK    1  A    between atoms: C_1  and  O_22 
REMARK    2  A    between atoms: C_4  and  C_5 
REMARK    3  A    between atoms: C_5  and  C_26 
REMARK    4  A    between atoms: N_8  and  C_13 
REMARK    5  A    between atoms: Se_10  and  C_11 
REMARK    6  A    between atoms: C_11  and  C_12 
REMARK    7  A    between atoms: C_12  and  C_13 
REMARK    8  A    between atoms: C_13  and  C_14 
REMARK       I    between atoms: C_14  and  N_15 
REMARK    9  A    between atoms: N_15  and  C_26 
REMARK   10  A    between atoms: O_19  and  P_21 
REMARK   11  A    between atoms: P_21  and  O_22 
REMARK   12  A    between atoms: C_24  and  C_26 
ROOT
HETATM    1  C           1     -21.213  -7.961  -5.444  0.00  0.00     0.189 C 
ENDROOT
BRANCH   1   2
HETATM    2  C           1     -20.343  -6.728  -5.652  0.00  0.00     0.074 C 
BRANCH   2   3
HETATM    3  C           1     -20.989  -5.825  -6.656  0.00  0.00    -0.056 A 
HETATM    4  C           1     -22.228  -5.247  -6.381  0.00  0.00     0.010 A 
HETATM    5  C           1     -22.829  -4.406  -7.317  0.00  0.00     0.038 A 
HETATM    6  C           1     -22.190  -4.142  -8.529  0.00  0.00     0.081 A 
HETATM    7  C           1     -20.951  -4.718  -8.804  0.00  0.00     0.038 A 
HETATM    8  C           1     -20.350  -5.560  -7.868  0.00  0.00     0.010 A 
BRANCH   6   9
HETATM    9  O           1     -22.774  -3.325  -9.438  0.00  0.00    -0.247 OA
BRANCH   9  10
HETATM   10  P           1     -23.644  -4.002 -10.618  0.00  0.00     0.411 P 
HETATM   11  O           1     -24.071  -5.357 -10.201  0.00  0.00    -0.624 OA
HETATM   12  O           1     -24.838  -3.172 -10.892  0.00  0.00    -0.624 OA
BRANCH  10  13
HETATM   13  O           1     -22.744  -4.108 -11.956  0.00  0.00    -0.300 OA
HETATM   14  H           1     -21.935  -4.502 -11.674  0.00  0.00     0.223 HD
ENDBRANCH  10  13
ENDBRANCH   9  10
ENDBRANCH   6   9
ENDBRANCH   2   3
ENDBRANCH   1   2
BRANCH   1  15
HETATM   15  N           1     -21.972  -7.814  -4.218  0.00  0.00    -0.344 N 
HETATM   16  C           1     -21.340  -7.442  -3.062  0.00  0.00     0.249 C 
HETATM   17  O           1     -21.234  -6.272  -2.781  0.00  0.00    -0.271 OA
HETATM   18  H           1     -22.969  -7.986  -4.216  0.00  0.00     0.163 HD
BRANCH  16  19
HETATM   19  C           1     -20.774  -8.493  -2.140  0.00  0.00     0.274 C 
BRANCH  19  20
HETATM   20  N           1     -19.293  -8.598  -2.350  0.00  0.00    -0.067 N 
HETATM   21  H           1     -19.099  -9.222  -3.166  0.00  0.00     0.275 HD
HETATM   22  H           1     -18.900  -7.647  -2.538  0.00  0.00     0.275 HD
HETATM   23  H           1     -18.847  -8.997  -1.493  0.00  0.00     0.275 HD
ENDBRANCH  19  20
BRANCH  19  24
HETATM   24  C           1     -21.054  -8.106  -0.693  0.00  0.00     0.042 C 
BRANCH  24  25
HETATM   25  C           1     -22.419  -8.640  -0.279  0.00  0.00     0.003 C 
BRANCH  25  26
HETATM   26 Se           1     -22.406 -10.587  -0.359  0.00  0.00     0.000 Se
HETATM   27  C           1     -20.853 -10.788   0.801  0.00  0.00     0.000 C 
ENDBRANCH  25  26
ENDBRANCH  24  25
ENDBRANCH  19  24
ENDBRANCH  16  19
ENDBRANCH   1  15
BRANCH   1  28
HETATM   28  C           1     -20.335  -9.185  -5.348  0.00  0.00     0.197 C 
HETATM   29  O           1     -20.848 -10.306  -5.141  0.00  0.00    -0.646 OA
HETATM   30  O           1     -19.096  -9.078  -5.476  0.00  0.00    -0.646 OA
ENDBRANCH   1  28
TORSDOF 12
ENDMDL
MODEL 4
REMARK VINA RESULT:      -6.4     12.682     15.209
REMARK  12 active torsions:
REMARK  status: ('A' for Active; 'I' for Inactive)
REMARK    1  A    between atoms: C_1  and  O_22 
REMARK    2  A    between atoms: C_4  and  C_5 
REMARK    3  A    between atoms: C_5  and  C_26 
REMARK    4  A    between atoms: N_8  and  C_13 
REMARK    5  A    between atoms: Se_10  and  C_11 
REMARK    6  A    between atoms: C_11  and  C_12 
REMARK    7  A    between atoms: C_12  and  C_13 
REMARK    8  A    between atoms: C_13  and  C_14 
REMARK       I    between atoms: C_14  and  N_15 
REMARK    9  A    between atoms: N_15  and  C_26 
REMARK   10  A    between atoms: O_19  and  P_21 
REMARK   11  A    between atoms: P_21  and  O_22 
REMARK   12  A    between atoms: C_24  and  C_26 
ROOT
HETATM    1  C           1     -20.599  -5.187  -6.145  0.00  0.00     0.189 C 
ENDROOT
BRANCH   1   2
HETATM    2  C           1     -21.293  -6.532  -5.969  0.00  0.00     0.074 C 
BRANCH   2   3
HETATM    3  C           1     -21.155  -6.982  -4.548  0.00  0.00    -0.056 A 
HETATM    4  C           1     -21.847  -6.319  -3.535  0.00  0.00     0.010 A 
HETATM    5  C           1     -21.719  -6.739  -2.211  0.00  0.00     0.038 A 
HETATM    6  C           1     -20.898  -7.823  -1.901  0.00  0.00     0.081 A 
HETATM    7  C           1     -20.206  -8.488  -2.913  0.00  0.00     0.038 A 
HETATM    8  C           1     -20.335  -8.067  -4.237  0.00  0.00     0.010 A 
BRANCH   6   9
HETATM    9  O           1     -20.773  -8.232  -0.615  0.00  0.00    -0.247 OA
BRANCH   9  10
HETATM   10  P           1     -21.961  -9.126   0.015  0.00  0.00     0.411 P 
HETATM   11  O           1     -22.696  -9.808  -1.075  0.00  0.00    -0.624 OA
HETATM   12  O           1     -21.387 -10.138   0.929  0.00  0.00    -0.624 OA
BRANCH  10  13
HETATM   13  O           1     -22.975  -8.174   0.835  0.00  0.00    -0.300 OA
HETATM   14  H           1     -23.366  -7.616   0.184  0.00  0.00     0.223 HD
ENDBRANCH  10  13
ENDBRANCH   9  10
ENDBRANCH   6   9
ENDBRANCH   2   3
ENDBRANCH   1   2
BRANCH   1  15
HETATM   15  N           1     -21.587  -4.170  -6.444  0.00  0.00    -0.344 N 
HETATM   16  C           1     -22.790  -4.524  -6.994  0.00  0.00     0.249 C 
HETATM   17  O           1     -23.725  -4.794  -6.279  0.00  0.00    -0.271 OA
HETATM   18  H           1     -21.389  -3.197  -6.246  0.00  0.00     0.163 HD
BRANCH  16  19
HETATM   19  C           1     -22.947  -4.579  -8.493  0.00  0.00     0.274 C 
BRANCH  19  20
HETATM   20  N           1     -24.383  -4.343  -8.855  0.00  0.00    -0.067 N 
HETATM   21  H           1     -24.942  -5.202  -8.647  0.00  0.00     0.275 HD
HETATM   22  H           1     -24.756  -3.542  -8.295  0.00  0.00     0.275 HD
HETATM   23  H           1     -24.454  -4.119  -9.873  0.00  0.00     0.275 HD
ENDBRANCH  19  20
BRANCH  19  24
HETATM   24  C           1     -22.080  -3.504  -9.136  0.00  0.00     0.042 C 
BRANCH  24  25
HETATM   25  C           1     -22.620  -3.176 -10.521  0.00  0.00     0.003 C 
BRANCH  25  26
HETATM   26 Se           1     -21.792  -4.351 -11.837  0.00  0.00     0.000 Se
HETATM   27  C           1     -20.074  -4.438 -10.919  0.00  0.00     0.000 C 
ENDBRANCH  25  26
ENDBRANCH  24  25
ENDBRANCH  19  24
ENDBRANCH  16  19
ENDBRANCH   1  15
BRANCH   1  28
HETATM   28  C           1     -19.610  -5.277  -7.283  0.00  0.00     0.197 C 
HETATM   29  O           1     -19.535  -6.323  -7.963  0.00  0.00    -0.646 OA
HETATM   30  O           1     -18.868  -4.306  -7.544  0.00  0.00    -0.646 OA
ENDBRANCH   1  28
TORSDOF 12
ENDMDL
MODEL 5
REMARK VINA RESULT:      -6.3     12.778     15.355
REMARK  12 active torsions:
REMARK  status: ('A' for Active; 'I' for Inactive)
REMARK    1  A    between atoms: C_1  and  O_22 
REMARK    2  A    between atoms: C_4  and  C_5 
REMARK    3  A    between atoms: C_5  and  C_26 
REMARK    4  A    between atoms: N_8  and  C_13 
REMARK    5  A    between atoms: Se_10  and  C_11 
REMARK    6  A    between atoms: C_11  and  C_12 
REMARK    7  A    between atoms: C_12  and  C_13 
REMARK    8  A    between atoms: C_13  and  C_14 
REMARK       I    between atoms: C_14  and  N_15 
REMARK    9  A    between atoms: N_15  and  C_26 
REMARK   10  A    between atoms: O_19  and  P_21 
REMARK   11  A    between atoms: P_21  and  O_22 
REMARK   12  A    between atoms: C_24  and  C_26 
ROOT
HETATM    1  C           1     -21.375  -8.195  -5.244  0.00  0.00     0.189 C 
ENDROOT
BRANCH   1   2
HETATM    2  C           1     -20.347  -7.086  -5.431  0.00  0.00     0.074 C 
BRANCH   2   3
HETATM    3  C           1     -20.862  -6.091  -6.424  0.00  0.00    -0.056 A 
HETATM    4  C           1     -22.083  -5.453  -6.205  0.00  0.00     0.010 A 
HETATM    5  C           1     -22.561  -4.526  -7.130  0.00  0.00     0.038 A 
HETATM    6  C           1     -21.819  -4.237  -8.275  0.00  0.00     0.081 A 
HETATM    7  C           1     -20.598  -4.874  -8.495  0.00  0.00     0.038 A 
HETATM    8  C           1     -20.120  -5.801  -7.569  0.00  0.00     0.010 A 
BRANCH   6   9
HETATM    9  O           1     -22.284  -3.336  -9.174  0.00  0.00    -0.247 OA
BRANCH   9  10
HETATM   10  P           1     -23.144  -3.888 -10.425  0.00  0.00     0.411 P 
HETATM   11  O           1     -23.563  -5.282 -10.157  0.00  0.00    -0.624 OA
HETATM   12  O           1     -24.343  -3.041 -10.613  0.00  0.00    -0.624 OA
BRANCH  10  13
HETATM   13  O           1     -22.239  -3.844 -11.762  0.00  0.00    -0.300 OA
HETATM   14  H           1     -21.427  -4.257 -11.520  0.00  0.00     0.223 HD
ENDBRANCH  10  13
ENDBRANCH   9  10
ENDBRANCH   6   9
ENDBRANCH   2   3
ENDBRANCH   1   2
BRANCH   1  15
HETATM   15  N           1     -21.979  -8.076  -3.931  0.00  0.00    -0.344 N 
HETATM   16  C           1     -21.217  -7.698  -2.859  0.00  0.00     0.249 C 
HETATM   17  O           1     -21.104  -6.528  -2.580  0.00  0.00    -0.271 OA
HETATM   18  H           1     -22.964  -8.272  -3.808  0.00  0.00     0.163 HD
BRANCH  16  19
HETATM   19  C           1     -20.517  -8.742  -2.025  0.00  0.00     0.274 C 
BRANCH  19  20
HETATM   20  N           1     -21.290 -10.027  -2.081  0.00  0.00    -0.067 N 
HETATM   21  H           1     -22.281  -9.852  -1.798  0.00  0.00     0.275 HD
HETATM   22  H           1     -21.269 -10.404  -3.056  0.00  0.00     0.275 HD
HETATM   23  H           1     -20.859 -10.721  -1.430  0.00  0.00     0.275 HD
ENDBRANCH  19  20
BRANCH  19  24
HETATM   24  C           1     -19.113  -8.972  -2.570  0.00  0.00     0.042 C 
BRANCH  24  25
HETATM   25  C           1     -18.663 -10.387  -2.233  0.00  0.00     0.003 C 
BRANCH  25  26
HETATM   26 Se           1     -17.276 -10.943  -3.485  0.00  0.00     0.000 Se
HETATM   27  C           1     -15.988  -9.598  -2.910  0.00  0.00     0.000 C 
ENDBRANCH  25  26
ENDBRANCH  24  25
ENDBRANCH  19  24
ENDBRANCH  16  19
ENDBRANCH   1  15
BRANCH   1  28
HETATM   28  C           1     -20.695  -9.537  -5.364  0.00  0.00     0.197 C 
HETATM   29  O           1     -19.557  -9.617  -5.876  0.00  0.00    -0.646 OA
HETATM   30  O           1     -21.269 -10.568  -4.952  0.00  0.00    -0.646 OA
ENDBRANCH   1  28
TORSDOF 12
ENDMDL
MODEL 6
REMARK VINA RESULT:      -6.1     12.759     15.449
REMARK  12 active torsions:
REMARK  status: ('A' for Active; 'I' for Inactive)
REMARK    1  A    between atoms: C_1  and  O_22 
REMARK    2  A    between atoms: C_4  and  C_5 
REMARK    3  A    between atoms: C_5  and  C_26 
REMARK    4  A    between atoms: N_8  and  C_13 
REMARK    5  A    between atoms: Se_10  and  C_11 
REMARK    6  A    between atoms: C_11  and  C_12 
REMARK    7  A    between atoms: C_12  and  C_13 
REMARK    8  A    between atoms: C_13  and  C_14 
REMARK       I    between atoms: C_14  and  N_15 
REMARK    9  A    between atoms: N_15  and  C_26 
REMARK   10  A    between atoms: O_19  and  P_21 
REMARK   11  A    between atoms: P_21  and  O_22 
REMARK   12  A    between atoms: C_24  and  C_26 
ROOT
HETATM    1  C           1     -20.943  -7.383  -3.544  0.00  0.00     0.189 C 
ENDROOT
BRANCH   1   2
HETATM    2  C           1     -21.940  -7.443  -4.694  0.00  0.00     0.074 C 
BRANCH   2   3
HETATM    3  C           1     -21.541  -6.461  -5.752  0.00  0.00    -0.056 A 
HETATM    4  C           1     -22.454  -5.505  -6.198  0.00  0.00     0.010 A 
HETATM    5  C           1     -22.081  -4.591  -7.183  0.00  0.00     0.038 A 
HETATM    6  C           1     -20.795  -4.633  -7.722  0.00  0.00     0.081 A 
HETATM    7  C           1     -19.882  -5.587  -7.277  0.00  0.00     0.038 A 
HETATM    8  C           1     -20.255  -6.502  -6.291  0.00  0.00     0.010 A 
BRANCH   6   9
HETATM    9  O           1     -20.434  -3.744  -8.679  0.00  0.00    -0.247 OA
BRANCH   9  10
HETATM   10  P           1     -20.658  -4.160 -10.224  0.00  0.00     0.411 P 
HETATM   11  O           1     -19.730  -5.258 -10.578  0.00  0.00    -0.624 OA
HETATM   12  O           1     -22.053  -4.614 -10.416  0.00  0.00    -0.624 OA
BRANCH  10  13
HETATM   13  O           1     -20.372  -2.885 -11.172  0.00  0.00    -0.300 OA
HETATM   14  H           1     -19.435  -2.860 -11.271  0.00  0.00     0.223 HD
ENDBRANCH  10  13
ENDBRANCH   9  10
ENDBRANCH   6   9
ENDBRANCH   2   3
ENDBRANCH   1   2
BRANCH   1  15
HETATM   15  N           1     -20.468  -8.720  -3.248  0.00  0.00    -0.344 N 
HETATM   16  C           1     -19.344  -9.200  -3.865  0.00  0.00     0.249 C 
HETATM   17  O           1     -18.259  -9.030  -3.363  0.00  0.00    -0.271 OA
HETATM   18  H           1     -20.967  -9.299  -2.584  0.00  0.00     0.163 HD
BRANCH  16  19
HETATM   19  C           1     -19.461  -9.941  -5.175  0.00  0.00     0.274 C 
BRANCH  19  20
HETATM   20  N           1     -18.327  -9.548  -6.074  0.00  0.00    -0.067 N 
HETATM   21  H           1     -17.988  -8.595  -5.813  0.00  0.00     0.275 HD
HETATM   22  H           1     -17.546 -10.235  -5.970  0.00  0.00     0.275 HD
HETATM   23  H           1     -18.656  -9.542  -7.066  0.00  0.00     0.275 HD
ENDBRANCH  19  20
BRANCH  19  24
HETATM   24  C           1     -19.407 -11.441  -4.918  0.00  0.00     0.042 C 
BRANCH  24  25
HETATM   25  C           1     -19.701 -12.189  -6.211  0.00  0.00     0.003 C 
BRANCH  25  26
HETATM   26 Se           1     -21.586 -11.991  -6.663  0.00  0.00     0.000 Se
HETATM   27  C           1     -22.236 -12.803  -5.015  0.00  0.00     0.000 C 
ENDBRANCH  25  26
ENDBRANCH  24  25
ENDBRANCH  19  24
ENDBRANCH  16  19
ENDBRANCH   1  15
BRANCH   1  28
HETATM   28  C           1     -21.617  -6.807  -2.323  0.00  0.00     0.197 C 
HETATM   29  O           1     -21.517  -7.389  -1.222  0.00  0.00    -0.646 OA
HETATM   30  O           1     -22.276  -5.749  -2.413  0.00  0.00    -0.646 OA
ENDBRANCH   1  28
TORSDOF 12
ENDMDL
MODEL 7
REMARK VINA RESULT:      -6.0     14.096     16.406
REMARK  12 active torsions:
REMARK  status: ('A' for Active; 'I' for Inactive)
REMARK    1  A    between atoms: C_1  and  O_22 
REMARK    2  A    between atoms: C_4  and  C_5 
REMARK    3  A    between atoms: C_5  and  C_26 
REMARK    4  A    between atoms: N_8  and  C_13 
REMARK    5  A    between atoms: Se_10  and  C_11 
REMARK    6  A    between atoms: C_11  and  C_12 
REMARK    7  A    between atoms: C_12  and  C_13 
REMARK    8  A    between atoms: C_13  and  C_14 
REMARK       I    between atoms: C_14  and  N_15 
REMARK    9  A    between atoms: N_15  and  C_26 
REMARK   10  A    between atoms: O_19  and  P_21 
REMARK   11  A    between atoms: P_21  and  O_22 
REMARK   12  A    between atoms: C_24  and  C_26 
ROOT
HETATM    1  C           1     -21.405  -7.742  -2.341  0.00  0.00     0.189 C 
ENDROOT
BRANCH   1   2
HETATM    2  C           1     -19.965  -8.065  -1.963  0.00  0.00     0.074 C 
BRANCH   2   3
HETATM    3  C           1     -19.479  -9.215  -2.788  0.00  0.00    -0.056 A 
HETATM    4  C           1     -20.392 -10.110  -3.346  0.00  0.00     0.010 A 
HETATM    5  C           1     -19.940 -11.182  -4.115  0.00  0.00     0.038 A 
HETATM    6  C           1     -18.572 -11.358  -4.327  0.00  0.00     0.081 A 
HETATM    7  C           1     -17.658 -10.464  -3.771  0.00  0.00     0.038 A 
HETATM    8  C           1     -18.112  -9.393  -3.002  0.00  0.00     0.010 A 
BRANCH   6   9
HETATM    9  O           1     -18.132 -12.400  -5.075  0.00  0.00    -0.247 OA
BRANCH   9  10
HETATM   10  P           1     -18.321 -12.316  -6.676  0.00  0.00     0.411 P 
HETATM   11  O           1     -17.107 -12.835  -7.344  0.00  0.00    -0.624 OA
HETATM   12  O           1     -19.490 -13.128  -7.080  0.00  0.00    -0.624 OA
BRANCH  10  13
HETATM   13  O           1     -18.560 -10.778  -7.110  0.00  0.00    -0.300 OA
HETATM   14  H           1     -17.729 -10.355  -6.971  0.00  0.00     0.223 HD
ENDBRANCH  10  13
ENDBRANCH   9  10
ENDBRANCH   6   9
ENDBRANCH   2   3
ENDBRANCH   1   2
BRANCH   1  15
HETATM   15  N           1     -21.460  -6.428  -2.952  0.00  0.00    -0.344 N 
HETATM   16  C           1     -21.650  -6.309  -4.302  0.00  0.00     0.249 C 
HETATM   17  O           1     -22.768  -6.233  -4.751  0.00  0.00    -0.271 OA
HETATM   18  H           1     -21.360  -5.599  -2.380  0.00  0.00     0.163 HD
BRANCH  16  19
HETATM   19  C           1     -20.461  -6.274  -5.230  0.00  0.00     0.274 C 
BRANCH  19  20
HETATM   20  N           1     -20.600  -7.352  -6.263  0.00  0.00    -0.067 N 
HETATM   21  H           1     -21.301  -8.057  -5.940  0.00  0.00     0.275 HD
HETATM   22  H           1     -20.921  -6.931  -7.164  0.00  0.00     0.275 HD
HETATM   23  H           1     -19.676  -7.819  -6.406  0.00  0.00     0.275 HD
ENDBRANCH  19  20
BRANCH  19  24
HETATM   24  C           1     -20.393  -4.917  -5.920  0.00  0.00     0.042 C 
BRANCH  24  25
HETATM   25  C           1     -19.542  -5.029  -7.178  0.00  0.00     0.003 C 
BRANCH  25  26
HETATM   26 Se           1     -20.574  -4.421  -8.716  0.00  0.00     0.000 Se
HETATM   27  C           1     -22.235  -4.199  -7.721  0.00  0.00     0.000 C 
ENDBRANCH  25  26
ENDBRANCH  24  25
ENDBRANCH  19  24
ENDBRANCH  16  19
ENDBRANCH   1  15
BRANCH   1  28
HETATM   28  C           1     -22.265  -7.756  -1.100  0.00  0.00     0.197 C 
HETATM   29  O           1     -22.769  -6.693  -0.678  0.00  0.00    -0.646 OA
HETATM   30  O           1     -22.473  -8.830  -0.496  0.00  0.00    -0.646 OA
ENDBRANCH   1  28
TORSDOF 12
ENDMDL
MODEL 8
REMARK VINA RESULT:      -6.0     15.301     17.964
REMARK  12 active torsions:
REMARK  status: ('A' for Active; 'I' for Inactive)
REMARK    1  A    between atoms: C_1  and  O_22 
REMARK    2  A    between atoms: C_4  and  C_5 
REMARK    3  A    between atoms: C_5  and  C_26 
REMARK    4  A    between atoms: N_8  and  C_13 
REMARK    5  A    between atoms: Se_10  and  C_11 
REMARK    6  A    between atoms: C_11  and  C_12 
REMARK    7  A    between atoms: C_12  and  C_13 
REMARK    8  A    between atoms: C_13  and  C_14 
REMARK       I    between atoms: C_14  and  N_15 
REMARK    9  A    between atoms: N_15  and  C_26 
REMARK   10  A    between atoms: O_19  and  P_21 
REMARK   11  A    between atoms: P_21  and  O_22 
REMARK   12  A    between atoms: C_24  and  C_26 
ROOT
HETATM    1  C           1     -20.711  -9.737  -1.196  0.00  0.00     0.189 C 
ENDROOT
BRANCH   1   2
HETATM    2  C           1     -21.876  -9.483  -2.145  0.00  0.00     0.074 C 
BRANCH   2   3
HETATM    3  C           1     -21.546  -8.331  -3.041  0.00  0.00    -0.056 A 
HETATM    4  C           1     -21.262  -8.552  -4.389  0.00  0.00     0.010 A 
HETATM    5  C           1     -20.956  -7.478  -5.224  0.00  0.00     0.038 A 
HETATM    6  C           1     -20.933  -6.181  -4.710  0.00  0.00     0.081 A 
HETATM    7  C           1     -21.217  -5.958  -3.364  0.00  0.00     0.038 A 
HETATM    8  C           1     -21.523  -7.033  -2.529  0.00  0.00     0.010 A 
BRANCH   6   9
HETATM    9  O           1     -20.635  -5.137  -5.522  0.00  0.00    -0.247 OA
BRANCH   9  10
HETATM   10  P           1     -21.664  -4.789  -6.716  0.00  0.00     0.411 P 
HETATM   11  O           1     -21.338  -5.610  -7.904  0.00  0.00    -0.624 OA
HETATM   12  O           1     -23.047  -5.083  -6.279  0.00  0.00    -0.624 OA
BRANCH  10  13
HETATM   13  O           1     -21.541  -3.223  -7.093  0.00  0.00    -0.300 OA
HETATM   14  H           1     -21.763  -3.174  -8.008  0.00  0.00     0.223 HD
ENDBRANCH  10  13
ENDBRANCH   9  10
ENDBRANCH   6   9
ENDBRANCH   2   3
ENDBRANCH   1   2
BRANCH   1  15
HETATM   15  N           1     -20.162 -11.055  -1.449  0.00  0.00    -0.344 N 
HETATM   16  C           1     -18.815 -11.210  -1.639  0.00  0.00     0.249 C 
HETATM   17  O           1     -18.092 -11.421  -0.695  0.00  0.00    -0.271 OA
HETATM   18  H           1     -20.774 -11.860  -1.484  0.00  0.00     0.163 HD
BRANCH  16  19
HETATM   19  C           1     -18.234 -11.116  -3.028  0.00  0.00     0.274 C 
BRANCH  19  20
HETATM   20  N           1     -19.272 -11.519  -4.033  0.00  0.00    -0.067 N 
HETATM   21  H           1     -19.292 -12.560  -4.117  0.00  0.00     0.275 HD
HETATM   22  H           1     -20.210 -11.178  -3.720  0.00  0.00     0.275 HD
HETATM   23  H           1     -19.040 -11.099  -4.961  0.00  0.00     0.275 HD
ENDBRANCH  19  20
BRANCH  19  24
HETATM   24  C           1     -17.795  -9.683  -3.300  0.00  0.00     0.042 C 
BRANCH  24  25
HETATM   25  C           1     -16.278  -9.629  -3.413  0.00  0.00     0.003 C 
BRANCH  25  26
HETATM   26 Se           1     -15.751  -9.968  -5.259  0.00  0.00     0.000 Se
HETATM   27  C           1     -15.048 -11.750  -4.904  0.00  0.00     0.000 C 
ENDBRANCH  25  26
ENDBRANCH  24  25
ENDBRANCH  19  24
ENDBRANCH  16  19
ENDBRANCH   1  15
BRANCH   1  28
HETATM   28  C           1     -21.200  -9.663   0.231  0.00  0.00     0.197 C 
HETATM   29  O           1     -20.780 -10.480   1.078  0.00  0.00    -0.646 OA
HETATM   30  O           1     -22.023  -8.783   0.564  0.00  0.00    -0.646 OA
ENDBRANCH   1  28
TORSDOF 12
ENDMDL
MODEL 9
REMARK VINA RESULT:      -5.9     15.097     17.070
REMARK  12 active torsions:
REMARK  status: ('A' for Active; 'I' for Inactive)
REMARK    1  A    between atoms: C_1  and  O_22 
REMARK    2  A    between atoms: C_4  and  C_5 
REMARK    3  A    between atoms: C_5  and  C_26 
REMARK    4  A    between atoms: N_8  and  C_13 
REMARK    5  A    between atoms: Se_10  and  C_11 
REMARK    6  A    between atoms: C_11  and  C_12 
REMARK    7  A    between atoms: C_12  and  C_13 
REMARK    8  A    between atoms: C_13  and  C_14 
REMARK       I    between atoms: C_14  and  N_15 
REMARK    9  A    between atoms: N_15  and  C_26 
REMARK   10  A    between atoms: O_19  and  P_21 
REMARK   11  A    between atoms: P_21  and  O_22 
REMARK   12  A    between atoms: C_24  and  C_26 
ROOT
HETATM    1  C           1     -20.565  -7.460  -4.482  0.00  0.00     0.189 C 
ENDROOT
BRANCH   1   2
HETATM    2  C           1     -20.364  -8.833  -5.111  0.00  0.00     0.074 C 
BRANCH   2   3
HETATM    3  C           1     -18.960  -9.291  -4.868  0.00  0.00    -0.056 A 
HETATM    4  C           1     -18.116  -9.559  -5.947  0.00  0.00     0.010 A 
HETATM    5  C           1     -16.808  -9.985  -5.721  0.00  0.00     0.038 A 
HETATM    6  C           1     -16.342 -10.143  -4.415  0.00  0.00     0.081 A 
HETATM    7  C           1     -17.184  -9.876  -3.337  0.00  0.00     0.038 A 
HETATM    8  C           1     -18.493  -9.449  -3.564  0.00  0.00     0.010 A 
BRANCH   6   9
HETATM    9  O           1     -15.070 -10.558  -4.196  0.00  0.00    -0.247 OA
BRANCH   9  10
HETATM   10  P           1     -14.715 -12.104  -4.496  0.00  0.00     0.411 P 
HETATM   11  O           1     -14.206 -12.234  -5.880  0.00  0.00    -0.624 OA
HETATM   12  O           1     -13.679 -12.566  -3.545  0.00  0.00    -0.624 OA
BRANCH  10  13
HETATM   13  O           1     -16.044 -13.005  -4.323  0.00  0.00    -0.300 OA
HETATM   14  H           1     -15.728 -13.867  -4.108  0.00  0.00     0.223 HD
ENDBRANCH  10  13
ENDBRANCH   9  10
ENDBRANCH   6   9
ENDBRANCH   2   3
ENDBRANCH   1   2
BRANCH   1  15
HETATM   15  N           1     -21.788  -7.461  -3.703  0.00  0.00    -0.344 N 
HETATM   16  C           1     -21.804  -6.901  -2.454  0.00  0.00     0.249 C 
HETATM   17  O           1     -22.076  -5.732  -2.319  0.00  0.00    -0.271 OA
HETATM   18  H           1     -22.630  -7.874  -4.084  0.00  0.00     0.163 HD
BRANCH  16  19
HETATM   19  C           1     -21.482  -7.745  -1.246  0.00  0.00     0.274 C 
BRANCH  19  20
HETATM   20  N           1     -22.382  -7.357  -0.110  0.00  0.00    -0.067 N 
HETATM   21  H           1     -23.304  -7.838  -0.215  0.00  0.00     0.275 HD
HETATM   22  H           1     -21.942  -7.641   0.795  0.00  0.00     0.275 HD
HETATM   23  H           1     -22.526  -6.322  -0.119  0.00  0.00     0.275 HD
ENDBRANCH  19  20
BRANCH  19  24
HETATM   24  C           1     -21.694  -9.216  -1.580  0.00  0.00     0.042 C 
BRANCH  24  25
HETATM   25  C           1     -22.568  -9.859  -0.512  0.00  0.00     0.003 C 
BRANCH  25  26
HETATM   26 Se           1     -23.656 -11.260  -1.319  0.00  0.00     0.000 Se
HETATM   27  C           1     -22.787 -11.160  -3.060  0.00  0.00     0.000 C 
ENDBRANCH  25  26
ENDBRANCH  24  25
ENDBRANCH  19  24
ENDBRANCH  16  19
ENDBRANCH   1  15
BRANCH   1  28
HETATM   28  C           1     -20.663  -6.418  -5.571  0.00  0.00     0.197 C 
HETATM   29  O           1     -20.486  -5.212  -5.298  0.00  0.00    -0.646 OA
HETATM   30  O           1     -20.922  -6.763  -6.744  0.00  0.00    -0.646 OA
ENDBRANCH   1  28
TORSDOF 12
ENDMDL
