MODEL 1
REMARK VINA RESULT:      -7.2      0.000      0.000
REMARK  10 active torsions:
REMARK  status: ('A' for Active; 'I' for Inactive)
REMARK    1  A    between atoms: C_2  and  C_21 
REMARK    2  A    between atoms: C_2  and  C_3 
REMARK    3  A    between atoms: C_3  and  C_23 
REMARK    4  A    between atoms: C_3  and  N_14 
REMARK    5  A    between atoms: C_4  and  C_15 
REMARK    6  A    between atoms: C_4  and  C_5 
REMARK       I    between atoms: N_14  and  C_22 
REMARK    7  A    between atoms: C_15  and  C_22 
REMARK    8  A    between atoms: C_15  and  N_18 
REMARK    9  A    between atoms: C_17  and  O_19 
REMARK   10  A    between atoms: C_21  and  Se_26 
ROOT
HETATM    1  C           1     -22.192  -5.242  -6.641  0.00  0.00     0.278 C 
ENDROOT
BRANCH   1   2
HETATM    2  C           1     -21.551  -3.956  -7.146  0.00  0.00     0.081 C 
BRANCH   2   3
HETATM    3  C           1     -21.586  -3.935  -8.643  0.00  0.00    -0.056 A 
HETATM    4  C           1     -22.770  -3.620  -9.308  0.00  0.00     0.010 A 
HETATM    5  C           1     -22.803  -3.599 -10.703  0.00  0.00     0.037 A 
HETATM    6  C           1     -21.650  -3.894 -11.431  0.00  0.00     0.065 A 
HETATM    7  C           1     -20.466  -4.209 -10.766  0.00  0.00     0.037 A 
HETATM    8  C           1     -20.433  -4.229  -9.371  0.00  0.00     0.010 A 
BRANCH   6   9
HETATM    9  O           1     -21.682  -3.875 -12.786  0.00  0.00    -0.361 OA
HETATM   10  H           1     -20.766  -3.807 -13.107  0.00  0.00     0.217 HD
ENDBRANCH   6   9
ENDBRANCH   2   3
ENDBRANCH   1   2
BRANCH   1  11
HETATM   11  C           1     -21.434  -5.742  -5.435  0.00  0.00     0.249 C 
HETATM   12  O           1     -20.227  -5.689  -5.416  0.00  0.00    -0.271 OA
HETATM   13  N           1     -22.113  -6.255  -4.364  0.00  0.00    -0.345 N 
HETATM   14  H           1     -23.124  -6.299  -4.380  0.00  0.00     0.163 HD
BRANCH  13  15
HETATM   15  C           1     -21.385  -6.735  -3.205  0.00  0.00     0.185 C 
BRANCH  15  16
HETATM   16  C           1     -22.267  -6.620  -1.968  0.00  0.00     0.036 C 
BRANCH  16  17
HETATM   17  C           1     -21.644  -7.410  -0.825  0.00  0.00     0.003 C 
BRANCH  17  18
HETATM   18 Se           1     -23.053  -8.106   0.329  0.00  0.00     0.000 Se
HETATM   19  C           1     -23.015  -9.901  -0.430  0.00  0.00     0.000 C 
ENDBRANCH  17  18
ENDBRANCH  16  17
ENDBRANCH  15  16
BRANCH  15  20
HETATM   20  C           1     -21.001  -8.179  -3.416  0.00  0.00     0.196 C 
HETATM   21  O           1     -21.870  -9.016  -3.742  0.00  0.00    -0.646 OA
HETATM   22  O           1     -19.813  -8.537  -3.266  0.00  0.00    -0.646 OA
ENDBRANCH  15  20
ENDBRANCH  13  15
ENDBRANCH   1  11
BRANCH   1  23
HETATM   23  N           1     -23.616  -4.973  -6.258  0.00  0.00    -0.066 N 
HETATM   24  H           1     -24.161  -4.704  -7.108  0.00  0.00     0.275 HD
HETATM   25  H           1     -24.032  -5.835  -5.837  0.00  0.00     0.275 HD
HETATM   26  H           1     -23.650  -4.194  -5.563  0.00  0.00     0.275 HD
ENDBRANCH   1  23
TORSDOF 10
ENDMDL
MODEL 2
REMARK VINA RESULT:      -7.1     13.835     14.910
REMARK  10 active torsions:
REMARK  status: ('A' for Active; 'I' for Inactive)
REMARK    1  A    between atoms: C_2  and  C_21 
REMARK    2  A    between atoms: C_2  and  C_3 
REMARK    3  A    between atoms: C_3  and  C_23 
REMARK    4  A    between atoms: C_3  and  N_14 
REMARK    5  A    between atoms: C_4  and  C_15 
REMARK    6  A    between atoms: C_4  and  C_5 
REMARK       I    between atoms: N_14  and  C_22 
REMARK    7  A    between atoms: C_15  and  C_22 
REMARK    8  A    between atoms: C_15  and  N_18 
REMARK    9  A    between atoms: C_17  and  O_19 
REMARK   10  A    between atoms: C_21  and  Se_26 
ROOT
HETATM    1  C           1     -33.105  -4.431 -16.744  0.00  0.00     0.278 C 
ENDROOT
BRANCH   1   2
HETATM    2  C           1     -31.613  -4.475 -16.439  0.00  0.00     0.081 C 
BRANCH   2   3
HETATM    3  C           1     -30.982  -5.606 -17.192  0.00  0.00    -0.056 A 
HETATM    4  C           1     -31.752  -6.704 -17.574  0.00  0.00     0.010 A 
HETATM    5  C           1     -31.165  -7.757 -18.275  0.00  0.00     0.037 A 
HETATM    6  C           1     -29.808  -7.711 -18.594  0.00  0.00     0.065 A 
HETATM    7  C           1     -29.038  -6.613 -18.213  0.00  0.00     0.037 A 
HETATM    8  C           1     -29.625  -5.559 -17.511  0.00  0.00     0.010 A 
BRANCH   6   9
HETATM    9  O           1     -29.237  -8.734 -19.276  0.00  0.00    -0.361 OA
HETATM   10  H           1     -29.205  -9.507 -18.686  0.00  0.00     0.217 HD
ENDBRANCH   6   9
ENDBRANCH   2   3
ENDBRANCH   1   2
BRANCH   1  11
HETATM   11  C           1     -33.884  -4.480 -15.453  0.00  0.00     0.249 C 
HETATM   12  O           1     -34.996  -4.952 -15.436  0.00  0.00    -0.271 OA
HETATM   13  N           1     -33.331  -3.988 -14.301  0.00  0.00    -0.345 N 
HETATM   14  H           1     -32.400  -3.593 -14.316  0.00  0.00     0.163 HD
BRANCH  13  15
HETATM   15  C           1     -34.079  -4.034 -13.059  0.00  0.00     0.185 C 
BRANCH  15  16
HETATM   16  C           1     -33.114  -4.166 -11.889  0.00  0.00     0.036 C 
BRANCH  16  17
HETATM   17  C           1     -33.183  -5.580 -11.329  0.00  0.00     0.003 C 
BRANCH  17  18
HETATM   18 Se           1     -34.835  -5.798 -10.317  0.00  0.00     0.000 Se
HETATM   19  C           1     -34.666  -7.732 -10.144  0.00  0.00     0.000 C 
ENDBRANCH  17  18
ENDBRANCH  16  17
ENDBRANCH  15  16
BRANCH  15  20
HETATM   20  C           1     -34.881  -2.765 -12.909  0.00  0.00     0.196 C 
HETATM   21  O           1     -34.795  -1.865 -13.772  0.00  0.00    -0.646 OA
HETATM   22  O           1     -35.632  -2.614 -11.921  0.00  0.00    -0.646 OA
ENDBRANCH  15  20
ENDBRANCH  13  15
ENDBRANCH   1  11
BRANCH   1  23
HETATM   23  N           1     -33.428  -3.162 -17.474  0.00  0.00    -0.066 N 
HETATM   24  H           1     -33.849  -3.391 -18.403  0.00  0.00     0.275 HD
HETATM   25  H           1     -34.108  -2.601 -16.912  0.00  0.00     0.275 HD
HETATM   26  H           1     -32.553  -2.609 -17.617  0.00  0.00     0.275 HD
ENDBRANCH   1  23
TORSDOF 10
ENDMDL
MODEL 3
REMARK VINA RESULT:      -6.8      1.608      2.209
REMARK  10 active torsions:
REMARK  status: ('A' for Active; 'I' for Inactive)
REMARK    1  A    between atoms: C_2  and  C_21 
REMARK    2  A    between atoms: C_2  and  C_3 
REMARK    3  A    between atoms: C_3  and  C_23 
REMARK    4  A    between atoms: C_3  and  N_14 
REMARK    5  A    between atoms: C_4  and  C_15 
REMARK    6  A    between atoms: C_4  and  C_5 
REMARK       I    between atoms: N_14  and  C_22 
REMARK    7  A    between atoms: C_15  and  C_22 
REMARK    8  A    between atoms: C_15  and  N_18 
REMARK    9  A    between atoms: C_17  and  O_19 
REMARK   10  A    between atoms: C_21  and  Se_26 
ROOT
HETATM    1  C           1     -21.575  -5.935  -6.578  0.00  0.00     0.278 C 
ENDROOT
BRANCH   1   2
HETATM    2  C           1     -20.950  -4.615  -7.011  0.00  0.00     0.081 C 
BRANCH   2   3
HETATM    3  C           1     -21.158  -4.424  -8.482  0.00  0.00    -0.056 A 
HETATM    4  C           1     -20.087  -4.576  -9.362  0.00  0.00     0.010 A 
HETATM    5  C           1     -20.279  -4.398 -10.733  0.00  0.00     0.037 A 
HETATM    6  C           1     -21.544  -4.069 -11.221  0.00  0.00     0.065 A 
HETATM    7  C           1     -22.615  -3.918 -10.341  0.00  0.00     0.037 A 
HETATM    8  C           1     -22.422  -4.096  -8.971  0.00  0.00     0.010 A 
BRANCH   6   9
HETATM    9  O           1     -21.731  -3.897 -12.552  0.00  0.00    -0.361 OA
HETATM   10  H           1     -20.884  -4.068 -12.999  0.00  0.00     0.217 HD
ENDBRANCH   6   9
ENDBRANCH   2   3
ENDBRANCH   1   2
BRANCH   1  11
HETATM   11  C           1     -20.486  -6.890  -6.151  0.00  0.00     0.249 C 
HETATM   12  O           1     -19.444  -6.929  -6.760  0.00  0.00    -0.271 OA
HETATM   13  N           1     -20.681  -7.712  -5.074  0.00  0.00    -0.345 N 
HETATM   14  H           1     -21.554  -7.679  -4.564  0.00  0.00     0.163 HD
BRANCH  13  15
HETATM   15  C           1     -19.636  -8.630  -4.663  0.00  0.00     0.185 C 
BRANCH  15  16
HETATM   16  C           1     -19.588  -8.698  -3.143  0.00  0.00     0.036 C 
BRANCH  16  17
HETATM   17  C           1     -20.717  -7.858  -2.561  0.00  0.00     0.003 C 
BRANCH  17  18
HETATM   18 Se           1     -21.777  -8.947  -1.341  0.00  0.00     0.000 Se
HETATM   19  C           1     -22.524  -7.430  -0.372  0.00  0.00     0.000 C 
ENDBRANCH  17  18
ENDBRANCH  16  17
ENDBRANCH  15  16
BRANCH  15  20
HETATM   20  C           1     -19.927 -10.003  -5.219  0.00  0.00     0.196 C 
HETATM   21  O           1     -20.835 -10.700  -4.719  0.00  0.00    -0.646 OA
HETATM   22  O           1     -19.258 -10.441  -6.180  0.00  0.00    -0.646 OA
ENDBRANCH  15  20
ENDBRANCH  13  15
ENDBRANCH   1  11
BRANCH   1  23
HETATM   23  N           1     -22.505  -5.693  -5.427  0.00  0.00    -0.066 N 
HETATM   24  H           1     -23.016  -6.576  -5.199  0.00  0.00     0.275 HD
HETATM   25  H           1     -21.955  -5.385  -4.594  0.00  0.00     0.275 HD
HETATM   26  H           1     -23.193  -4.950  -5.685  0.00  0.00     0.275 HD
ENDBRANCH   1  23
TORSDOF 10
ENDMDL
MODEL 4
REMARK VINA RESULT:      -6.6      2.222      2.877
REMARK  10 active torsions:
REMARK  status: ('A' for Active; 'I' for Inactive)
REMARK    1  A    between atoms: C_2  and  C_21 
REMARK    2  A    between atoms: C_2  and  C_3 
REMARK    3  A    between atoms: C_3  and  C_23 
REMARK    4  A    between atoms: C_3  and  N_14 
REMARK    5  A    between atoms: C_4  and  C_15 
REMARK    6  A    between atoms: C_4  and  C_5 
REMARK       I    between atoms: N_14  and  C_22 
REMARK    7  A    between atoms: C_15  and  C_22 
REMARK    8  A    between atoms: C_15  and  N_18 
REMARK    9  A    between atoms: C_17  and  O_19 
REMARK   10  A    between atoms: C_21  and  Se_26 
ROOT
HETATM    1  C           1     -20.390  -5.132  -6.599  0.00  0.00     0.278 C 
ENDROOT
BRANCH   1   2
HETATM    2  C           1     -21.046  -3.856  -7.111  0.00  0.00     0.081 C 
BRANCH   2   3
HETATM    3  C           1     -21.417  -4.028  -8.551  0.00  0.00    -0.056 A 
HETATM    4  C           1     -20.445  -3.893  -9.542  0.00  0.00     0.010 A 
HETATM    5  C           1     -20.789  -4.054 -10.884  0.00  0.00     0.037 A 
HETATM    6  C           1     -22.107  -4.349 -11.234  0.00  0.00     0.065 A 
HETATM    7  C           1     -23.079  -4.484 -10.244  0.00  0.00     0.037 A 
HETATM    8  C           1     -22.734  -4.324  -8.901  0.00  0.00     0.010 A 
BRANCH   6   9
HETATM    9  O           1     -22.442  -4.506 -12.538  0.00  0.00    -0.361 OA
HETATM   10  H           1     -21.858  -5.184 -12.919  0.00  0.00     0.217 HD
ENDBRANCH   6   9
ENDBRANCH   2   3
ENDBRANCH   1   2
BRANCH   1  11
HETATM   11  C           1     -21.334  -5.840  -5.658  0.00  0.00     0.249 C 
HETATM   12  O           1     -22.508  -5.553  -5.651  0.00  0.00    -0.271 OA
HETATM   13  N           1     -20.860  -6.807  -4.813  0.00  0.00    -0.345 N 
HETATM   14  H           1     -19.877  -7.047  -4.819  0.00  0.00     0.163 HD
BRANCH  13  15
HETATM   15  C           1     -21.767  -7.488  -3.908  0.00  0.00     0.185 C 
BRANCH  15  16
HETATM   16  C           1     -21.436  -8.974  -3.882  0.00  0.00     0.036 C 
BRANCH  16  17
HETATM   17  C           1     -20.219  -9.240  -4.758  0.00  0.00     0.003 C 
BRANCH  17  18
HETATM   18 Se           1     -19.131 -10.642  -3.952  0.00  0.00     0.000 Se
HETATM   19  C           1     -18.033  -9.417  -2.906  0.00  0.00     0.000 C 
ENDBRANCH  17  18
ENDBRANCH  16  17
ENDBRANCH  15  16
BRANCH  15  20
HETATM   20  C           1     -21.616  -6.915  -2.520  0.00  0.00     0.196 C 
HETATM   21  O           1     -22.282  -5.914  -2.182  0.00  0.00    -0.646 OA
HETATM   22  O           1     -20.823  -7.442  -1.711  0.00  0.00    -0.646 OA
ENDBRANCH  15  20
ENDBRANCH  13  15
ENDBRANCH   1  11
BRANCH   1  23
HETATM   23  N           1     -20.074  -6.029  -7.758  0.00  0.00    -0.066 N 
HETATM   24  H           1     -20.947  -6.507  -8.078  0.00  0.00     0.275 HD
HETATM   25  H           1     -19.682  -5.460  -8.542  0.00  0.00     0.275 HD
HETATM   26  H           1     -19.374  -6.747  -7.463  0.00  0.00     0.275 HD
ENDBRANCH   1  23
TORSDOF 10
ENDMDL
MODEL 5
REMARK VINA RESULT:      -6.6      1.804      2.354
REMARK  10 active torsions:
REMARK  status: ('A' for Active; 'I' for Inactive)
REMARK    1  A    between atoms: C_2  and  C_21 
REMARK    2  A    between atoms: C_2  and  C_3 
REMARK    3  A    between atoms: C_3  and  C_23 
REMARK    4  A    between atoms: C_3  and  N_14 
REMARK    5  A    between atoms: C_4  and  C_15 
REMARK    6  A    between atoms: C_4  and  C_5 
REMARK       I    between atoms: N_14  and  C_22 
REMARK    7  A    between atoms: C_15  and  C_22 
REMARK    8  A    between atoms: C_15  and  N_18 
REMARK    9  A    between atoms: C_17  and  O_19 
REMARK   10  A    between atoms: C_21  and  Se_26 
ROOT
HETATM    1  C           1     -20.386  -5.209  -6.504  0.00  0.00     0.278 C 
ENDROOT
BRANCH   1   2
HETATM    2  C           1     -21.127  -3.963  -6.972  0.00  0.00     0.081 C 
BRANCH   2   3
HETATM    3  C           1     -21.425  -4.079  -8.435  0.00  0.00    -0.056 A 
HETATM    4  C           1     -20.412  -3.872  -9.371  0.00  0.00     0.010 A 
HETATM    5  C           1     -20.689  -3.980 -10.735  0.00  0.00     0.037 A 
HETATM    6  C           1     -21.979  -4.297 -11.160  0.00  0.00     0.065 A 
HETATM    7  C           1     -22.992  -4.506 -10.224  0.00  0.00     0.037 A 
HETATM    8  C           1     -22.715  -4.397  -8.861  0.00  0.00     0.010 A 
BRANCH   6   9
HETATM    9  O           1     -22.249  -4.403 -12.484  0.00  0.00    -0.361 OA
HETATM   10  H           1     -23.064  -4.924 -12.584  0.00  0.00     0.217 HD
ENDBRANCH   6   9
ENDBRANCH   2   3
ENDBRANCH   1   2
BRANCH   1  11
HETATM   11  C           1     -21.266  -5.992  -5.560  0.00  0.00     0.249 C 
HETATM   12  O           1     -22.461  -5.820  -5.566  0.00  0.00    -0.271 OA
HETATM   13  N           1     -20.709  -6.897  -4.697  0.00  0.00    -0.345 N 
HETATM   14  H           1     -19.707  -7.040  -4.693  0.00  0.00     0.163 HD
BRANCH  13  15
HETATM   15  C           1     -21.553  -7.649  -3.789  0.00  0.00     0.185 C 
BRANCH  15  16
HETATM   16  C           1     -21.001  -9.060  -3.634  0.00  0.00     0.036 C 
BRANCH  16  17
HETATM   17  C           1     -22.149 -10.032  -3.397  0.00  0.00     0.003 C 
BRANCH  17  18
HETATM   18 Se           1     -21.783 -11.095  -1.805  0.00  0.00     0.000 Se
HETATM   19  C           1     -23.031 -10.122  -0.667  0.00  0.00     0.000 C 
ENDBRANCH  17  18
ENDBRANCH  16  17
ENDBRANCH  15  16
BRANCH  15  20
HETATM   20  C           1     -21.577  -6.967  -2.444  0.00  0.00     0.196 C 
HETATM   21  O           1     -20.867  -7.400  -1.511  0.00  0.00    -0.646 OA
HETATM   22  O           1     -22.307  -5.969  -2.263  0.00  0.00    -0.646 OA
ENDBRANCH  15  20
ENDBRANCH  13  15
ENDBRANCH   1  11
BRANCH   1  23
HETATM   23  N           1     -20.044  -6.061  -7.689  0.00  0.00    -0.066 N 
HETATM   24  H           1     -19.557  -6.928  -7.368  0.00  0.00     0.275 HD
HETATM   25  H           1     -20.921  -6.322  -8.195  0.00  0.00     0.275 HD
HETATM   26  H           1     -19.416  -5.528  -8.333  0.00  0.00     0.275 HD
ENDBRANCH   1  23
TORSDOF 10
ENDMDL
MODEL 6
REMARK VINA RESULT:      -6.6     13.432     16.248
REMARK  10 active torsions:
REMARK  status: ('A' for Active; 'I' for Inactive)
REMARK    1  A    between atoms: C_2  and  C_21 
REMARK    2  A    between atoms: C_2  and  C_3 
REMARK    3  A    between atoms: C_3  and  C_23 
REMARK    4  A    between atoms: C_3  and  N_14 
REMARK    5  A    between atoms: C_4  and  C_15 
REMARK    6  A    between atoms: C_4  and  C_5 
REMARK       I    between atoms: N_14  and  C_22 
REMARK    7  A    between atoms: C_15  and  C_22 
REMARK    8  A    between atoms: C_15  and  N_18 
REMARK    9  A    between atoms: C_17  and  O_19 
REMARK   10  A    between atoms: C_21  and  Se_26 
ROOT
HETATM    1  C           1     -33.937  -3.363 -11.648  0.00  0.00     0.278 C 
ENDROOT
BRANCH   1   2
HETATM    2  C           1     -34.970  -4.047 -10.761  0.00  0.00     0.081 C 
BRANCH   2   3
HETATM    3  C           1     -34.555  -5.464 -10.511  0.00  0.00    -0.056 A 
HETATM    4  C           1     -33.363  -5.946 -11.053  0.00  0.00     0.010 A 
HETATM    5  C           1     -32.975  -7.266 -10.821  0.00  0.00     0.037 A 
HETATM    6  C           1     -33.779  -8.102 -10.046  0.00  0.00     0.065 A 
HETATM    7  C           1     -34.970  -7.620  -9.504  0.00  0.00     0.037 A 
HETATM    8  C           1     -35.358  -6.300  -9.736  0.00  0.00     0.010 A 
BRANCH   6   9
HETATM    9  O           1     -33.402  -9.384  -9.820  0.00  0.00    -0.361 OA
HETATM   10  H           1     -33.557  -9.581  -8.880  0.00  0.00     0.217 HD
ENDBRANCH   6   9
ENDBRANCH   2   3
ENDBRANCH   1   2
BRANCH   1  11
HETATM   11  C           1     -34.642  -2.571 -12.722  0.00  0.00     0.249 C 
HETATM   12  O           1     -34.607  -2.947 -13.870  0.00  0.00    -0.271 OA
HETATM   13  N           1     -35.320  -1.428 -12.396  0.00  0.00    -0.345 N 
HETATM   14  H           1     -35.349  -1.114 -11.435  0.00  0.00     0.163 HD
BRANCH  13  15
HETATM   15  C           1     -35.997  -0.666 -13.429  0.00  0.00     0.185 C 
BRANCH  15  16
HETATM   16  C           1     -37.201   0.045 -12.827  0.00  0.00     0.036 C 
BRANCH  16  17
HETATM   17  C           1     -37.485  -0.519 -11.441  0.00  0.00     0.003 C 
BRANCH  17  18
HETATM   18 Se           1     -36.973   0.788 -10.089  0.00  0.00     0.000 Se
HETATM   19  C           1     -37.366  -0.377  -8.577  0.00  0.00     0.000 C 
ENDBRANCH  17  18
ENDBRANCH  16  17
ENDBRANCH  15  16
BRANCH  15  20
HETATM   20  C           1     -35.046   0.354 -14.005  0.00  0.00     0.196 C 
HETATM   21  O           1     -34.670   0.257 -15.192  0.00  0.00    -0.646 OA
HETATM   22  O           1     -34.636   1.296 -13.293  0.00  0.00    -0.646 OA
ENDBRANCH  15  20
ENDBRANCH  13  15
ENDBRANCH   1  11
BRANCH   1  23
HETATM   23  N           1     -33.099  -2.439 -10.816  0.00  0.00    -0.066 N 
HETATM   24  H           1     -32.827  -2.918  -9.928  0.00  0.00     0.275 HD
HETATM   25  H           1     -32.238  -2.176 -11.347  0.00  0.00     0.275 HD
HETATM   26  H           1     -33.647  -1.577 -10.592  0.00  0.00     0.275 HD
ENDBRANCH   1  23
TORSDOF 10
ENDMDL
MODEL 7
REMARK VINA RESULT:      -6.1      2.579      3.311
REMARK  10 active torsions:
REMARK  status: ('A' for Active; 'I' for Inactive)
REMARK    1  A    between atoms: C_2  and  C_21 
REMARK    2  A    between atoms: C_2  and  C_3 
REMARK    3  A    between atoms: C_3  and  C_23 
REMARK    4  A    between atoms: C_3  and  N_14 
REMARK    5  A    between atoms: C_4  and  C_15 
REMARK    6  A    between atoms: C_4  and  C_5 
REMARK       I    between atoms: N_14  and  C_22 
REMARK    7  A    between atoms: C_15  and  C_22 
REMARK    8  A    between atoms: C_15  and  N_18 
REMARK    9  A    between atoms: C_17  and  O_19 
REMARK   10  A    between atoms: C_21  and  Se_26 
ROOT
HETATM    1  C           1     -20.873  -5.898  -5.920  0.00  0.00     0.278 C 
ENDROOT
BRANCH   1   2
HETATM    2  C           1     -19.941  -5.767  -7.118  0.00  0.00     0.081 C 
BRANCH   2   3
HETATM    3  C           1     -20.643  -5.037  -8.221  0.00  0.00    -0.056 A 
HETATM    4  C           1     -21.970  -4.638  -8.057  0.00  0.00     0.010 A 
HETATM    5  C           1     -22.625  -3.957  -9.084  0.00  0.00     0.037 A 
HETATM    6  C           1     -21.953  -3.675 -10.273  0.00  0.00     0.065 A 
HETATM    7  C           1     -20.626  -4.073 -10.436  0.00  0.00     0.037 A 
HETATM    8  C           1     -19.971  -4.754  -9.410  0.00  0.00     0.010 A 
BRANCH   6   9
HETATM    9  O           1     -22.589  -3.014 -11.270  0.00  0.00    -0.361 OA
HETATM   10  H           1     -23.479  -2.781 -10.955  0.00  0.00     0.217 HD
ENDBRANCH   6   9
ENDBRANCH   2   3
ENDBRANCH   1   2
BRANCH   1  11
HETATM   11  C           1     -20.850  -7.321  -5.418  0.00  0.00     0.249 C 
HETATM   12  O           1     -21.171  -8.225  -6.152  0.00  0.00    -0.271 OA
HETATM   13  N           1     -20.466  -7.586  -4.131  0.00  0.00    -0.345 N 
HETATM   14  H           1     -20.197  -6.828  -3.517  0.00  0.00     0.163 HD
BRANCH  13  15
HETATM   15  C           1     -20.444  -8.954  -3.648  0.00  0.00     0.185 C 
BRANCH  15  16
HETATM   16  C           1     -19.037  -9.306  -3.187  0.00  0.00     0.036 C 
BRANCH  16  17
HETATM   17  C           1     -18.745 -10.765  -3.514  0.00  0.00     0.003 C 
BRANCH  17  18
HETATM   18 Se           1     -19.020 -11.072  -5.419  0.00  0.00     0.000 Se
HETATM   19  C           1     -17.682  -9.774  -5.990  0.00  0.00     0.000 C 
ENDBRANCH  17  18
ENDBRANCH  16  17
ENDBRANCH  15  16
BRANCH  15  20
HETATM   20  C           1     -21.403  -9.092  -2.491  0.00  0.00     0.196 C 
HETATM   21  O           1     -22.161 -10.083  -2.423  0.00  0.00    -0.646 OA
HETATM   22  O           1     -21.437  -8.215  -1.600  0.00  0.00    -0.646 OA
ENDBRANCH  15  20
ENDBRANCH  13  15
ENDBRANCH   1  11
BRANCH   1  23
HETATM   23  N           1     -20.415  -4.977  -4.829  0.00  0.00    -0.066 N 
HETATM   24  H           1     -19.551  -5.363  -4.386  0.00  0.00     0.275 HD
HETATM   25  H           1     -20.207  -4.035  -5.233  0.00  0.00     0.275 HD
HETATM   26  H           1     -21.167  -4.889  -4.108  0.00  0.00     0.275 HD
ENDBRANCH   1  23
TORSDOF 10
ENDMDL
MODEL 8
REMARK VINA RESULT:      -6.0     13.198     14.338
REMARK  10 active torsions:
REMARK  status: ('A' for Active; 'I' for Inactive)
REMARK    1  A    between atoms: C_2  and  C_21 
REMARK    2  A    between atoms: C_2  and  C_3 
REMARK    3  A    between atoms: C_3  and  C_23 
REMARK    4  A    between atoms: C_3  and  N_14 
REMARK    5  A    between atoms: C_4  and  C_15 
REMARK    6  A    between atoms: C_4  and  C_5 
REMARK       I    between atoms: N_14  and  C_22 
REMARK    7  A    between atoms: C_15  and  C_22 
REMARK    8  A    between atoms: C_15  and  N_18 
REMARK    9  A    between atoms: C_17  and  O_19 
REMARK   10  A    between atoms: C_21  and  Se_26 
ROOT
HETATM    1  C           1     -33.691  -4.806 -15.355  0.00  0.00     0.278 C 
ENDROOT
BRANCH   1   2
HETATM    2  C           1     -33.139  -3.849 -16.403  0.00  0.00     0.081 C 
BRANCH   2   3
HETATM    3  C           1     -31.866  -4.404 -16.964  0.00  0.00    -0.056 A 
HETATM    4  C           1     -30.914  -3.546 -17.513  0.00  0.00     0.010 A 
HETATM    5  C           1     -29.727  -4.062 -18.035  0.00  0.00     0.037 A 
HETATM    6  C           1     -29.494  -5.437 -18.008  0.00  0.00     0.065 A 
HETATM    7  C           1     -30.446  -6.295 -17.458  0.00  0.00     0.037 A 
HETATM    8  C           1     -31.632  -5.779 -16.936  0.00  0.00     0.010 A 
BRANCH   6   9
HETATM    9  O           1     -28.342  -5.938 -18.515  0.00  0.00    -0.361 OA
HETATM   10  H           1     -28.478  -6.886 -18.688  0.00  0.00     0.217 HD
ENDBRANCH   6   9
ENDBRANCH   2   3
ENDBRANCH   1   2
BRANCH   1  11
HETATM   11  C           1     -34.180  -4.019 -14.163  0.00  0.00     0.249 C 
HETATM   12  O           1     -34.578  -2.888 -14.309  0.00  0.00    -0.271 OA
HETATM   13  N           1     -34.170  -4.587 -12.917  0.00  0.00    -0.345 N 
HETATM   14  H           1     -33.836  -5.534 -12.796  0.00  0.00     0.163 HD
BRANCH  13  15
HETATM   15  C           1     -34.639  -3.831 -11.772  0.00  0.00     0.185 C 
BRANCH  15  16
HETATM   16  C           1     -34.793  -4.763 -10.577  0.00  0.00     0.036 C 
BRANCH  16  17
HETATM   17  C           1     -34.249  -6.140 -10.934  0.00  0.00     0.003 C 
BRANCH  17  18
HETATM   18 Se           1     -35.108  -7.487  -9.817  0.00  0.00     0.000 Se
HETATM   19  C           1     -33.624  -8.747  -9.911  0.00  0.00     0.000 C 
ENDBRANCH  17  18
ENDBRANCH  16  17
ENDBRANCH  15  16
BRANCH  15  20
HETATM   20  C           1     -33.640  -2.750 -11.440  0.00  0.00     0.196 C 
HETATM   21  O           1     -32.448  -3.048 -11.215  0.00  0.00    -0.646 OA
HETATM   22  O           1     -34.006  -1.555 -11.391  0.00  0.00    -0.646 OA
ENDBRANCH  15  20
ENDBRANCH  13  15
ENDBRANCH   1  11
BRANCH   1  23
HETATM   23  N           1     -34.832  -5.583 -15.940  0.00  0.00    -0.066 N 
HETATM   24  H           1     -34.938  -5.340 -16.951  0.00  0.00     0.275 HD
HETATM   25  H           1     -34.640  -6.607 -15.848  0.00  0.00     0.275 HD
HETATM   26  H           1     -35.714  -5.346 -15.432  0.00  0.00     0.275 HD
ENDBRANCH   1  23
TORSDOF 10
ENDMDL
MODEL 9
REMARK VINA RESULT:      -6.0     13.848     17.216
REMARK  10 active torsions:
REMARK  status: ('A' for Active; 'I' for Inactive)
REMARK    1  A    between atoms: C_2  and  C_21 
REMARK    2  A    between atoms: C_2  and  C_3 
REMARK    3  A    between atoms: C_3  and  C_23 
REMARK    4  A    between atoms: C_3  and  N_14 
REMARK    5  A    between atoms: C_4  and  C_15 
REMARK    6  A    between atoms: C_4  and  C_5 
REMARK       I    between atoms: N_14  and  C_22 
REMARK    7  A    between atoms: C_15  and  C_22 
REMARK    8  A    between atoms: C_15  and  N_18 
REMARK    9  A    between atoms: C_17  and  O_19 
REMARK   10  A    between atoms: C_21  and  Se_26 
ROOT
HETATM    1  C           1     -35.146  -0.656 -11.851  0.00  0.00     0.278 C 
ENDROOT
BRANCH   1   2
HETATM    2  C           1     -35.970  -1.936 -11.780  0.00  0.00     0.081 C 
BRANCH   2   3
HETATM    3  C           1     -35.054  -3.112 -11.636  0.00  0.00    -0.056 A 
HETATM    4  C           1     -35.493  -4.261 -10.979  0.00  0.00     0.010 A 
HETATM    5  C           1     -34.641  -5.357 -10.845  0.00  0.00     0.037 A 
HETATM    6  C           1     -33.349  -5.304 -11.369  0.00  0.00     0.065 A 
HETATM    7  C           1     -32.911  -4.156 -12.028  0.00  0.00     0.037 A 
HETATM    8  C           1     -33.763  -3.059 -12.162  0.00  0.00     0.010 A 
BRANCH   6   9
HETATM    9  O           1     -32.521  -6.369 -11.240  0.00  0.00    -0.361 OA
HETATM   10  H           1     -31.606  -6.047 -11.308  0.00  0.00     0.217 HD
ENDBRANCH   6   9
ENDBRANCH   2   3
ENDBRANCH   1   2
BRANCH   1  11
HETATM   11  C           1     -34.989  -0.238 -13.292  0.00  0.00     0.249 C 
HETATM   12  O           1     -34.213   0.641 -13.585  0.00  0.00    -0.271 OA
HETATM   13  N           1     -35.726  -0.853 -14.268  0.00  0.00    -0.345 N 
HETATM   14  H           1     -36.376  -1.589 -14.022  0.00  0.00     0.163 HD
BRANCH  13  15
HETATM   15  C           1     -35.576  -0.451 -15.653  0.00  0.00     0.185 C 
BRANCH  15  16
HETATM   16  C           1     -35.768  -1.662 -16.556  0.00  0.00     0.036 C 
BRANCH  16  17
HETATM   17  C           1     -34.413  -2.284 -16.868  0.00  0.00     0.003 C 
BRANCH  17  18
HETATM   18 Se           1     -34.198  -3.924 -15.838  0.00  0.00     0.000 Se
HETATM   19  C           1     -32.547  -4.459 -16.725  0.00  0.00     0.000 C 
ENDBRANCH  17  18
ENDBRANCH  16  17
ENDBRANCH  15  16
BRANCH  15  20
HETATM   20  C           1     -36.611   0.595 -15.987  0.00  0.00     0.196 C 
HETATM   21  O           1     -36.269   1.787 -16.138  0.00  0.00    -0.646 OA
HETATM   22  O           1     -37.811   0.267 -16.114  0.00  0.00    -0.646 OA
ENDBRANCH  15  20
ENDBRANCH  13  15
ENDBRANCH   1  11
BRANCH   1  23
HETATM   23  N           1     -35.846   0.429 -11.090  0.00  0.00    -0.066 N 
HETATM   24  H           1     -36.277   1.105 -11.761  0.00  0.00     0.275 HD
HETATM   25  H           1     -36.593   0.009 -10.492  0.00  0.00     0.275 HD
HETATM   26  H           1     -35.157   0.932 -10.486  0.00  0.00     0.275 HD
ENDBRANCH   1  23
TORSDOF 10
ENDMDL
