MODEL 1
REMARK VINA RESULT:      -7.2      0.000      0.000
REMARK  8 active torsions:
REMARK  status: ('A' for Active; 'I' for Inactive)
REMARK    1  A    between atoms: C_8  and  C_14 
REMARK    2  A    between atoms: C_8  and  C_12 
REMARK    3  A    between atoms: C_8  and  N_16 
REMARK    4  A    between atoms: C_12  and  C_26 
REMARK       I    between atoms: C_13  and  N_16 
REMARK    5  A    between atoms: C_13  and  C_22 
REMARK    6  A    between atoms: N_19  and  C_22 
REMARK    7  A    between atoms: S_20  and  C_21 
REMARK    8  A    between atoms: C_21  and  C_22 
ROOT
HETATM    1  C           1     -21.934  -6.696  -5.478  0.00  0.00     0.190 C 
ENDROOT
BRANCH   1   2
HETATM    2  C           1     -20.973  -7.840  -5.266  0.00  0.00     0.197 C 
HETATM    3  O           1     -19.742  -7.623  -5.222  0.00  0.00    -0.646 OA
HETATM    4  O           1     -21.407  -9.005  -5.131  0.00  0.00    -0.646 OA
ENDBRANCH   1   2
BRANCH   1   5
HETATM    5  C           1     -21.182  -5.500  -6.045  0.00  0.00     0.077 C 
BRANCH   5   6
HETATM    6  C           1     -21.976  -4.893  -7.160  0.00  0.00    -0.028 A 
HETATM    7  C           1     -21.506  -4.623  -8.476  0.00  0.00    -0.002 A 
HETATM    8  C           1     -20.274  -4.806  -9.132  0.00  0.00     0.014 A 
HETATM    9  C           1     -22.568  -4.061  -9.184  0.00  0.00     0.042 A 
HETATM   10  C           1     -20.148  -4.420 -10.472  0.00  0.00     0.001 A 
HETATM   11  C           1     -21.225  -3.860 -11.155  0.00  0.00     0.002 A 
HETATM   12  C           1     -22.459  -3.668 -10.523  0.00  0.00     0.030 A 
HETATM   13  N           1     -23.639  -3.994  -8.322  0.00  0.00    -0.365 N 
HETATM   14  H           1     -24.587  -3.614  -8.570  0.00  0.00     0.165 HD
HETATM   15  C           1     -23.292  -4.495  -7.095  0.00  0.00     0.096 A 
ENDBRANCH   5   6
ENDBRANCH   1   5
BRANCH   1  16
HETATM   16  N           1     -22.536  -6.331  -4.211  0.00  0.00    -0.344 N 
HETATM   17  H           1     -23.511  -6.063  -4.172  0.00  0.00     0.163 HD
HETATM   18  C           1     -21.786  -6.349  -3.066  0.00  0.00     0.249 C 
HETATM   19  O           1     -21.186  -5.359  -2.721  0.00  0.00    -0.271 OA
BRANCH  18  20
HETATM   20  C           1     -21.708  -7.607  -2.235  0.00  0.00     0.283 C 
BRANCH  20  21
HETATM   21  N           1     -20.278  -8.046  -2.129  0.00  0.00    -0.066 N 
HETATM   22  H           1     -19.915  -8.285  -3.080  0.00  0.00     0.275 HD
HETATM   23  H           1     -19.706  -7.273  -1.723  0.00  0.00     0.275 HD
HETATM   24  H           1     -20.216  -8.887  -1.512  0.00  0.00     0.275 HD
ENDBRANCH  20  21
BRANCH  20  25
HETATM   25  C           1     -22.258  -7.331  -0.843  0.00  0.00     0.113 C 
BRANCH  25  26
HETATM   26  S           1     -21.470  -8.445   0.354  0.00  0.00    -0.180 SA
HETATM   27  H           1     -22.307  -9.479   0.156  0.00  0.00     0.101 HD
ENDBRANCH  25  26
ENDBRANCH  20  25
ENDBRANCH  18  20
ENDBRANCH   1  16
TORSDOF 8
ENDMDL
MODEL 2
REMARK VINA RESULT:      -6.9      1.274      2.008
REMARK  8 active torsions:
REMARK  status: ('A' for Active; 'I' for Inactive)
REMARK    1  A    between atoms: C_8  and  C_14 
REMARK    2  A    between atoms: C_8  and  C_12 
REMARK    3  A    between atoms: C_8  and  N_16 
REMARK    4  A    between atoms: C_12  and  C_26 
REMARK       I    between atoms: C_13  and  N_16 
REMARK    5  A    between atoms: C_13  and  C_22 
REMARK    6  A    between atoms: N_19  and  C_22 
REMARK    7  A    between atoms: S_20  and  C_21 
REMARK    8  A    between atoms: C_21  and  C_22 
ROOT
HETATM    1  C           1     -21.709  -6.567  -5.239  0.00  0.00     0.190 C 
ENDROOT
BRANCH   1   2
HETATM    2  C           1     -20.870  -7.821  -5.274  0.00  0.00     0.197 C 
HETATM    3  O           1     -21.379  -8.903  -5.638  0.00  0.00    -0.646 OA
HETATM    4  O           1     -19.666  -7.776  -4.942  0.00  0.00    -0.646 OA
ENDBRANCH   1   2
BRANCH   1   5
HETATM    5  C           1     -20.799  -5.346  -5.220  0.00  0.00     0.077 C 
BRANCH   5   6
HETATM    6  C           1     -20.523  -4.906  -6.624  0.00  0.00    -0.028 A 
HETATM    7  C           1     -21.495  -4.532  -7.593  0.00  0.00    -0.002 A 
HETATM    8  C           1     -22.900  -4.447  -7.589  0.00  0.00     0.014 A 
HETATM    9  C           1     -20.805  -4.196  -8.758  0.00  0.00     0.042 A 
HETATM   10  C           1     -23.564  -4.030  -8.748  0.00  0.00     0.001 A 
HETATM   11  C           1     -22.850  -3.700  -9.898  0.00  0.00     0.002 A 
HETATM   12  C           1     -21.453  -3.777  -9.926  0.00  0.00     0.030 A 
HETATM   13  N           1     -19.464  -4.363  -8.496  0.00  0.00    -0.365 N 
HETATM   14  H           1     -18.691  -4.187  -9.186  0.00  0.00     0.165 HD
HETATM   15  C           1     -19.282  -4.793  -7.208  0.00  0.00     0.096 A 
ENDBRANCH   5   6
ENDBRANCH   1   5
BRANCH   1  16
HETATM   16  N           1     -22.534  -6.572  -4.047  0.00  0.00    -0.344 N 
HETATM   17  H           1     -23.542  -6.610  -4.128  0.00  0.00     0.163 HD
HETATM   18  C           1     -21.949  -6.528  -2.810  0.00  0.00     0.249 C 
HETATM   19  O           1     -21.728  -5.463  -2.284  0.00  0.00    -0.271 OA
BRANCH  18  20
HETATM   20  C           1     -21.581  -7.810  -2.102  0.00  0.00     0.283 C 
BRANCH  20  21
HETATM   21  N           1     -20.094  -7.867  -1.917  0.00  0.00    -0.066 N 
HETATM   22  H           1     -19.651  -7.053  -2.402  0.00  0.00     0.275 HD
HETATM   23  H           1     -19.869  -7.829  -0.898  0.00  0.00     0.275 HD
HETATM   24  H           1     -19.726  -8.756  -2.323  0.00  0.00     0.275 HD
ENDBRANCH  20  21
BRANCH  20  25
HETATM   25  C           1     -22.264  -7.854  -0.742  0.00  0.00     0.113 C 
BRANCH  25  26
HETATM   26  S           1     -22.726  -9.565  -0.351  0.00  0.00    -0.180 SA
HETATM   27  H           1     -24.042  -9.412  -0.579  0.00  0.00     0.101 HD
ENDBRANCH  25  26
ENDBRANCH  20  25
ENDBRANCH  18  20
ENDBRANCH   1  16
TORSDOF 8
ENDMDL
MODEL 3
REMARK VINA RESULT:      -6.8      3.070      6.990
REMARK  8 active torsions:
REMARK  status: ('A' for Active; 'I' for Inactive)
REMARK    1  A    between atoms: C_8  and  C_14 
REMARK    2  A    between atoms: C_8  and  C_12 
REMARK    3  A    between atoms: C_8  and  N_16 
REMARK    4  A    between atoms: C_12  and  C_26 
REMARK       I    between atoms: C_13  and  N_16 
REMARK    5  A    between atoms: C_13  and  C_22 
REMARK    6  A    between atoms: N_19  and  C_22 
REMARK    7  A    between atoms: S_20  and  C_21 
REMARK    8  A    between atoms: C_21  and  C_22 
ROOT
HETATM    1  C           1     -20.030  -7.424  -5.295  0.00  0.00     0.190 C 
ENDROOT
BRANCH   1   2
HETATM    2  C           1     -19.071  -8.579  -5.133  0.00  0.00     0.197 C 
HETATM    3  O           1     -18.565  -9.117  -6.142  0.00  0.00    -0.646 OA
HETATM    4  O           1     -18.781  -8.996  -3.991  0.00  0.00    -0.646 OA
ENDBRANCH   1   2
BRANCH   1   5
HETATM    5  C           1     -21.426  -7.860  -4.872  0.00  0.00     0.077 C 
BRANCH   5   6
HETATM    6  C           1     -21.736  -7.303  -3.518  0.00  0.00    -0.028 A 
HETATM    7  C           1     -21.838  -8.045  -2.308  0.00  0.00    -0.002 A 
HETATM    8  C           1     -21.700  -9.406  -1.980  0.00  0.00     0.014 A 
HETATM    9  C           1     -22.139  -7.136  -1.293  0.00  0.00     0.042 A 
HETATM   10  C           1     -21.870  -9.811  -0.651  0.00  0.00     0.001 A 
HETATM   11  C           1     -22.172  -8.882   0.343  0.00  0.00     0.002 A 
HETATM   12  C           1     -22.313  -7.524   0.040  0.00  0.00     0.030 A 
HETATM   13  N           1     -22.217  -5.891  -1.875  0.00  0.00    -0.365 N 
HETATM   14  H           1     -22.432  -5.000  -1.362  0.00  0.00     0.165 HD
HETATM   15  C           1     -21.974  -5.980  -3.221  0.00  0.00     0.096 A 
ENDBRANCH   5   6
ENDBRANCH   1   5
BRANCH   1  16
HETATM   16  N           1     -20.053  -7.009  -6.683  0.00  0.00    -0.344 N 
HETATM   17  H           1     -20.037  -7.702  -7.420  0.00  0.00     0.163 HD
HETATM   18  C           1     -20.098  -5.677  -6.998  0.00  0.00     0.249 C 
HETATM   19  O           1     -19.072  -5.056  -7.145  0.00  0.00    -0.271 OA
BRANCH  18  20
HETATM   20  C           1     -21.429  -4.985  -7.162  0.00  0.00     0.283 C 
BRANCH  20  21
HETATM   21  N           1     -21.304  -3.554  -6.729  0.00  0.00    -0.066 N 
HETATM   22  H           1     -22.137  -3.290  -6.156  0.00  0.00     0.275 HD
HETATM   23  H           1     -20.438  -3.440  -6.158  0.00  0.00     0.275 HD
HETATM   24  H           1     -21.251  -2.939  -7.572  0.00  0.00     0.275 HD
ENDBRANCH  20  21
BRANCH  20  25
HETATM   25  C           1     -21.853  -5.037  -8.624  0.00  0.00     0.113 C 
BRANCH  25  26
HETATM   26  S           1     -23.330  -4.010  -8.865  0.00  0.00    -0.180 SA
HETATM   27  H           1     -23.024  -3.100  -7.924  0.00  0.00     0.101 HD
ENDBRANCH  25  26
ENDBRANCH  20  25
ENDBRANCH  18  20
ENDBRANCH   1  16
TORSDOF 8
ENDMDL
MODEL 4
REMARK VINA RESULT:      -6.7      3.256      7.469
REMARK  8 active torsions:
REMARK  status: ('A' for Active; 'I' for Inactive)
REMARK    1  A    between atoms: C_8  and  C_14 
REMARK    2  A    between atoms: C_8  and  C_12 
REMARK    3  A    between atoms: C_8  and  N_16 
REMARK    4  A    between atoms: C_12  and  C_26 
REMARK       I    between atoms: C_13  and  N_16 
REMARK    5  A    between atoms: C_13  and  C_22 
REMARK    6  A    between atoms: N_19  and  C_22 
REMARK    7  A    between atoms: S_20  and  C_21 
REMARK    8  A    between atoms: C_21  and  C_22 
ROOT
HETATM    1  C           1     -21.187  -7.393  -5.545  0.00  0.00     0.190 C 
ENDROOT
BRANCH   1   2
HETATM    2  C           1     -21.958  -6.319  -4.816  0.00  0.00     0.197 C 
HETATM    3  O           1     -23.142  -6.075  -5.135  0.00  0.00    -0.646 OA
HETATM    4  O           1     -21.415  -5.677  -3.893  0.00  0.00    -0.646 OA
ENDBRANCH   1   2
BRANCH   1   5
HETATM    5  C           1     -20.301  -8.140  -4.559  0.00  0.00     0.077 C 
BRANCH   5   6
HETATM    6  C           1     -21.141  -9.062  -3.731  0.00  0.00    -0.028 A 
HETATM    7  C           1     -21.468  -8.893  -2.357  0.00  0.00    -0.002 A 
HETATM    8  C           1     -21.161  -7.917  -1.391  0.00  0.00     0.014 A 
HETATM    9  C           1     -22.264  -9.977  -1.988  0.00  0.00     0.042 A 
HETATM   10  C           1     -21.661  -8.059  -0.090  0.00  0.00     0.001 A 
HETATM   11  C           1     -22.454  -9.153   0.251  0.00  0.00     0.002 A 
HETATM   12  C           1     -22.771 -10.136  -0.693  0.00  0.00     0.030 A 
HETATM   13  N           1     -22.409 -10.771  -3.103  0.00  0.00    -0.365 N 
HETATM   14  H           1     -22.959 -11.666  -3.136  0.00  0.00     0.165 HD
HETATM   15  C           1     -21.733 -10.227  -4.164  0.00  0.00     0.096 A 
ENDBRANCH   5   6
ENDBRANCH   1   5
BRANCH   1  16
HETATM   16  N           1     -20.362  -6.782  -6.569  0.00  0.00    -0.344 N 
HETATM   17  H           1     -19.654  -7.329  -7.042  0.00  0.00     0.163 HD
HETATM   18  C           1     -20.540  -5.465  -6.896  0.00  0.00     0.249 C 
HETATM   19  O           1     -19.920  -4.608  -6.313  0.00  0.00    -0.271 OA
BRANCH  18  20
HETATM   20  C           1     -21.512  -5.083  -7.986  0.00  0.00     0.283 C 
BRANCH  20  21
HETATM   21  N           1     -22.481  -4.068  -7.457  0.00  0.00    -0.066 N 
HETATM   22  H           1     -23.300  -4.558  -7.031  0.00  0.00     0.275 HD
HETATM   23  H           1     -22.010  -3.483  -6.731  0.00  0.00     0.275 HD
HETATM   24  H           1     -22.808  -3.457  -8.239  0.00  0.00     0.275 HD
ENDBRANCH  20  21
BRANCH  20  25
HETATM   25  C           1     -20.748  -4.490  -9.163  0.00  0.00     0.113 C 
BRANCH  25  26
HETATM   26  S           1     -21.917  -4.011 -10.466  0.00  0.00    -0.180 SA
HETATM   27  H           1     -21.258  -4.607 -11.474  0.00  0.00     0.101 HD
ENDBRANCH  25  26
ENDBRANCH  20  25
ENDBRANCH  18  20
ENDBRANCH   1  16
TORSDOF 8
ENDMDL
MODEL 5
REMARK VINA RESULT:      -6.7      2.748      3.918
REMARK  8 active torsions:
REMARK  status: ('A' for Active; 'I' for Inactive)
REMARK    1  A    between atoms: C_8  and  C_14 
REMARK    2  A    between atoms: C_8  and  C_12 
REMARK    3  A    between atoms: C_8  and  N_16 
REMARK    4  A    between atoms: C_12  and  C_26 
REMARK       I    between atoms: C_13  and  N_16 
REMARK    5  A    between atoms: C_13  and  C_22 
REMARK    6  A    between atoms: N_19  and  C_22 
REMARK    7  A    between atoms: S_20  and  C_21 
REMARK    8  A    between atoms: C_21  and  C_22 
ROOT
HETATM    1  C           1     -21.461  -7.339  -3.857  0.00  0.00     0.190 C 
ENDROOT
BRANCH   1   2
HETATM    2  C           1     -21.591  -6.856  -2.432  0.00  0.00     0.197 C 
HETATM    3  O           1     -20.930  -7.405  -1.524  0.00  0.00    -0.646 OA
HETATM    4  O           1     -22.359  -5.908  -2.161  0.00  0.00    -0.646 OA
ENDBRANCH   1   2
BRANCH   1   5
HETATM    5  C           1     -22.188  -6.378  -4.787  0.00  0.00     0.077 C 
BRANCH   5   6
HETATM    6  C           1     -21.328  -6.089  -5.978  0.00  0.00    -0.028 A 
HETATM    7  C           1     -21.679  -5.272  -7.089  0.00  0.00    -0.002 A 
HETATM    8  C           1     -22.822  -4.526  -7.433  0.00  0.00     0.014 A 
HETATM    9  C           1     -20.592  -5.277  -7.963  0.00  0.00     0.042 A 
HETATM   10  C           1     -22.838  -3.814  -8.638  0.00  0.00     0.001 A 
HETATM   11  C           1     -21.738  -3.837  -9.492  0.00  0.00     0.002 A 
HETATM   12  C           1     -20.591  -4.571  -9.171  0.00  0.00     0.030 A 
HETATM   13  N           1     -19.621  -6.071  -7.396  0.00  0.00    -0.365 N 
HETATM   14  H           1     -18.682  -6.269  -7.823  0.00  0.00     0.165 HD
HETATM   15  C           1     -20.056  -6.568  -6.195  0.00  0.00     0.096 A 
ENDBRANCH   5   6
ENDBRANCH   1   5
BRANCH   1  16
HETATM   16  N           1     -22.047  -8.660  -3.973  0.00  0.00    -0.344 N 
HETATM   17  H           1     -23.049  -8.777  -3.898  0.00  0.00     0.163 HD
HETATM   18  C           1     -21.245  -9.748  -4.187  0.00  0.00     0.249 C 
HETATM   19  O           1     -20.796 -10.362  -3.248  0.00  0.00    -0.271 OA
BRANCH  18  20
HETATM   20  C           1     -20.920 -10.182  -5.597  0.00  0.00     0.283 C 
BRANCH  20  21
HETATM   21  N           1     -19.437 -10.120  -5.808  0.00  0.00    -0.066 N 
HETATM   22  H           1     -19.226 -10.223  -6.826  0.00  0.00     0.275 HD
HETATM   23  H           1     -19.076  -9.201  -5.468  0.00  0.00     0.275 HD
HETATM   24  H           1     -18.977 -10.894  -5.277  0.00  0.00     0.275 HD
ENDBRANCH  20  21
BRANCH  20  25
HETATM   25  C           1     -21.405 -11.609  -5.813  0.00  0.00     0.113 C 
BRANCH  25  26
HETATM   26  S           1     -20.107 -12.572  -6.639  0.00  0.00    -0.180 SA
HETATM   27  H           1     -19.116 -11.690  -6.420  0.00  0.00     0.101 HD
ENDBRANCH  25  26
ENDBRANCH  20  25
ENDBRANCH  18  20
ENDBRANCH   1  16
TORSDOF 8
ENDMDL
MODEL 6
REMARK VINA RESULT:      -6.6      3.836      6.781
REMARK  8 active torsions:
REMARK  status: ('A' for Active; 'I' for Inactive)
REMARK    1  A    between atoms: C_8  and  C_14 
REMARK    2  A    between atoms: C_8  and  C_12 
REMARK    3  A    between atoms: C_8  and  N_16 
REMARK    4  A    between atoms: C_12  and  C_26 
REMARK       I    between atoms: C_13  and  N_16 
REMARK    5  A    between atoms: C_13  and  C_22 
REMARK    6  A    between atoms: N_19  and  C_22 
REMARK    7  A    between atoms: S_20  and  C_21 
REMARK    8  A    between atoms: C_21  and  C_22 
ROOT
HETATM    1  C           1     -21.395  -7.827  -2.490  0.00  0.00     0.190 C 
ENDROOT
BRANCH   1   2
HETATM    2  C           1     -22.170  -7.892  -1.196  0.00  0.00     0.197 C 
HETATM    3  O           1     -22.246  -8.970  -0.567  0.00  0.00    -0.646 OA
HETATM    4  O           1     -22.733  -6.868  -0.752  0.00  0.00    -0.646 OA
ENDBRANCH   1   2
BRANCH   1   5
HETATM    5  C           1     -19.946  -8.217  -2.235  0.00  0.00     0.077 C 
BRANCH   5   6
HETATM    6  C           1     -19.478  -9.137  -3.320  0.00  0.00    -0.028 A 
HETATM    7  C           1     -18.145  -9.592  -3.517  0.00  0.00    -0.002 A 
HETATM    8  C           1     -16.926  -9.372  -2.848  0.00  0.00     0.014 A 
HETATM    9  C           1     -18.157 -10.427  -4.635  0.00  0.00     0.042 A 
HETATM   10  C           1     -15.764  -9.994  -3.320  0.00  0.00     0.001 A 
HETATM   11  C           1     -15.805 -10.822  -4.440  0.00  0.00     0.002 A 
HETATM   12  C           1     -17.004 -11.055  -5.121  0.00  0.00     0.030 A 
HETATM   13  N           1     -19.454 -10.470  -5.093  0.00  0.00    -0.365 N 
HETATM   14  H           1     -19.778 -11.019  -5.928  0.00  0.00     0.165 HD
HETATM   15  C           1     -20.262  -9.693  -4.305  0.00  0.00     0.096 A 
ENDBRANCH   5   6
ENDBRANCH   1   5
BRANCH   1  16
HETATM   16  N           1     -21.446  -6.476  -3.014  0.00  0.00    -0.344 N 
HETATM   17  H           1     -21.297  -5.687  -2.397  0.00  0.00     0.163 HD
HETATM   18  C           1     -21.695  -6.267  -4.343  0.00  0.00     0.249 C 
HETATM   19  O           1     -22.832  -6.136  -4.732  0.00  0.00    -0.271 OA
BRANCH  18  20
HETATM   20  C           1     -20.550  -6.199  -5.325  0.00  0.00     0.283 C 
BRANCH  20  21
HETATM   21  N           1     -20.949  -6.875  -6.603  0.00  0.00    -0.066 N 
HETATM   22  H           1     -21.919  -6.584  -6.862  0.00  0.00     0.275 HD
HETATM   23  H           1     -20.289  -6.598  -7.363  0.00  0.00     0.275 HD
HETATM   24  H           1     -20.919  -7.911  -6.474  0.00  0.00     0.275 HD
ENDBRANCH  20  21
BRANCH  20  25
HETATM   25  C           1     -20.207  -4.743  -5.606  0.00  0.00     0.113 C 
BRANCH  25  26
HETATM   26  S           1     -20.939  -4.241  -7.189  0.00  0.00    -0.180 SA
HETATM   27  H           1     -20.085  -3.230  -7.425  0.00  0.00     0.101 HD
ENDBRANCH  25  26
ENDBRANCH  20  25
ENDBRANCH  18  20
ENDBRANCH   1  16
TORSDOF 8
ENDMDL
MODEL 7
REMARK VINA RESULT:      -6.5      4.711      8.185
REMARK  8 active torsions:
REMARK  status: ('A' for Active; 'I' for Inactive)
REMARK    1  A    between atoms: C_8  and  C_14 
REMARK    2  A    between atoms: C_8  and  C_12 
REMARK    3  A    between atoms: C_8  and  N_16 
REMARK    4  A    between atoms: C_12  and  C_26 
REMARK       I    between atoms: C_13  and  N_16 
REMARK    5  A    between atoms: C_13  and  C_22 
REMARK    6  A    between atoms: N_19  and  C_22 
REMARK    7  A    between atoms: S_20  and  C_21 
REMARK    8  A    between atoms: C_21  and  C_22 
ROOT
HETATM    1  C           1     -21.233  -7.861  -2.996  0.00  0.00     0.190 C 
ENDROOT
BRANCH   1   2
HETATM    2  C           1     -21.710  -6.429  -3.018  0.00  0.00     0.197 C 
HETATM    3  O           1     -21.357  -5.667  -3.945  0.00  0.00    -0.646 OA
HETATM    4  O           1     -22.459  -6.006  -2.112  0.00  0.00    -0.646 OA
ENDBRANCH   1   2
BRANCH   1   5
HETATM    5  C           1     -20.518  -8.138  -1.681  0.00  0.00     0.077 C 
BRANCH   5   6
HETATM    6  C           1     -20.638  -9.591  -1.343  0.00  0.00    -0.028 A 
HETATM    7  C           1     -21.790 -10.238  -0.816  0.00  0.00    -0.002 A 
HETATM    8  C           1     -23.081  -9.804  -0.463  0.00  0.00     0.014 A 
HETATM    9  C           1     -21.466 -11.585  -0.651  0.00  0.00     0.042 A 
HETATM   10  C           1     -24.001 -10.731   0.042  0.00  0.00     0.001 A 
HETATM   11  C           1     -23.650 -12.070   0.196  0.00  0.00     0.002 A 
HETATM   12  C           1     -22.372 -12.525  -0.148  0.00  0.00     0.030 A 
HETATM   13  N           1     -20.162 -11.741  -1.065  0.00  0.00    -0.365 N 
HETATM   14  H           1     -19.634 -12.649  -1.059  0.00  0.00     0.165 HD
HETATM   15  C           1     -19.651 -10.541  -1.485  0.00  0.00     0.096 A 
ENDBRANCH   5   6
ENDBRANCH   1   5
BRANCH   1  16
HETATM   16  N           1     -20.317  -8.081  -4.099  0.00  0.00    -0.344 N 
HETATM   17  H           1     -19.387  -7.681  -4.072  0.00  0.00     0.163 HD
HETATM   18  C           1     -20.709  -8.830  -5.175  0.00  0.00     0.249 C 
HETATM   19  O           1     -21.241  -8.297  -6.120  0.00  0.00    -0.271 OA
BRANCH  18  20
HETATM   20  C           1     -20.478 -10.321  -5.182  0.00  0.00     0.283 C 
BRANCH  20  21
HETATM   21  N           1     -21.102 -10.917  -6.408  0.00  0.00    -0.066 N 
HETATM   22  H           1     -20.351 -11.231  -7.064  0.00  0.00     0.275 HD
HETATM   23  H           1     -21.690 -11.735  -6.136  0.00  0.00     0.275 HD
HETATM   24  H           1     -21.698 -10.199  -6.880  0.00  0.00     0.275 HD
ENDBRANCH  20  21
BRANCH  20  25
HETATM   25  C           1     -18.981 -10.603  -5.186  0.00  0.00     0.113 C 
BRANCH  25  26
HETATM   26  S           1     -18.593 -11.802  -6.492  0.00  0.00    -0.180 SA
HETATM   27  H           1     -17.642 -11.060  -7.086  0.00  0.00     0.101 HD
ENDBRANCH  25  26
ENDBRANCH  20  25
ENDBRANCH  18  20
ENDBRANCH   1  16
TORSDOF 8
ENDMDL
MODEL 8
REMARK VINA RESULT:      -6.5      4.443      7.567
REMARK  8 active torsions:
REMARK  status: ('A' for Active; 'I' for Inactive)
REMARK    1  A    between atoms: C_8  and  C_14 
REMARK    2  A    between atoms: C_8  and  C_12 
REMARK    3  A    between atoms: C_8  and  N_16 
REMARK    4  A    between atoms: C_12  and  C_26 
REMARK       I    between atoms: C_13  and  N_16 
REMARK    5  A    between atoms: C_13  and  C_22 
REMARK    6  A    between atoms: N_19  and  C_22 
REMARK    7  A    between atoms: S_20  and  C_21 
REMARK    8  A    between atoms: C_21  and  C_22 
ROOT
HETATM    1  C           1     -21.205  -7.775  -3.448  0.00  0.00     0.190 C 
ENDROOT
BRANCH   1   2
HETATM    2  C           1     -21.664  -6.351  -3.643  0.00  0.00     0.197 C 
HETATM    3  O           1     -22.107  -5.983  -4.753  0.00  0.00    -0.646 OA
HETATM    4  O           1     -21.603  -5.539  -2.695  0.00  0.00    -0.646 OA
ENDBRANCH   1   2
BRANCH   1   5
HETATM    5  C           1     -20.646  -7.941  -2.042  0.00  0.00     0.077 C 
BRANCH   5   6
HETATM    6  C           1     -21.719  -8.454  -1.134  0.00  0.00    -0.028 A 
HETATM    7  C           1     -22.367  -9.718  -1.229  0.00  0.00    -0.002 A 
HETATM    8  C           1     -22.250 -10.814  -2.104  0.00  0.00     0.014 A 
HETATM    9  C           1     -23.295  -9.783  -0.190  0.00  0.00     0.042 A 
HETATM   10  C           1     -23.065 -11.936  -1.908  0.00  0.00     0.001 A 
HETATM   11  C           1     -23.983 -11.974  -0.862  0.00  0.00     0.002 A 
HETATM   12  C           1     -24.117 -10.896   0.020  0.00  0.00     0.030 A 
HETATM   13  N           1     -23.207  -8.598   0.506  0.00  0.00    -0.365 N 
HETATM   14  H           1     -23.787  -8.351   1.347  0.00  0.00     0.165 HD
HETATM   15  C           1     -22.257  -7.787  -0.057  0.00  0.00     0.096 A 
ENDBRANCH   5   6
ENDBRANCH   1   5
BRANCH   1  16
HETATM   16  N           1     -20.174  -8.086  -4.418  0.00  0.00    -0.344 N 
HETATM   17  H           1     -19.524  -7.369  -4.714  0.00  0.00     0.163 HD
HETATM   18  C           1     -20.077  -9.351  -4.934  0.00  0.00     0.249 C 
HETATM   19  O           1     -20.684  -9.641  -5.938  0.00  0.00    -0.271 OA
BRANCH  18  20
HETATM   20  C           1     -19.214 -10.382  -4.249  0.00  0.00     0.283 C 
BRANCH  20  21
HETATM   21  N           1     -19.526 -11.740  -4.803  0.00  0.00    -0.066 N 
HETATM   22  H           1     -20.490 -12.022  -4.513  0.00  0.00     0.275 HD
HETATM   23  H           1     -19.470 -11.711  -5.845  0.00  0.00     0.275 HD
HETATM   24  H           1     -18.835 -12.433  -4.436  0.00  0.00     0.275 HD
ENDBRANCH  20  21
BRANCH  20  25
HETATM   25  C           1     -17.746 -10.059  -4.492  0.00  0.00     0.113 C 
BRANCH  25  26
HETATM   26  S           1     -16.948  -9.640  -2.917  0.00  0.00    -0.180 SA
HETATM   27  H           1     -16.544  -8.412  -3.285  0.00  0.00     0.101 HD
ENDBRANCH  25  26
ENDBRANCH  20  25
ENDBRANCH  18  20
ENDBRANCH   1  16
TORSDOF 8
ENDMDL
MODEL 9
REMARK VINA RESULT:      -6.5      3.513      7.562
REMARK  8 active torsions:
REMARK  status: ('A' for Active; 'I' for Inactive)
REMARK    1  A    between atoms: C_8  and  C_14 
REMARK    2  A    between atoms: C_8  and  C_12 
REMARK    3  A    between atoms: C_8  and  N_16 
REMARK    4  A    between atoms: C_12  and  C_26 
REMARK       I    between atoms: C_13  and  N_16 
REMARK    5  A    between atoms: C_13  and  C_22 
REMARK    6  A    between atoms: N_19  and  C_22 
REMARK    7  A    between atoms: S_20  and  C_21 
REMARK    8  A    between atoms: C_21  and  C_22 
ROOT
HETATM    1  C           1     -20.352  -8.746  -4.582  0.00  0.00     0.190 C 
ENDROOT
BRANCH   1   2
HETATM    2  C           1     -19.071  -9.425  -5.000  0.00  0.00     0.197 C 
HETATM    3  O           1     -19.026 -10.074  -6.068  0.00  0.00    -0.646 OA
HETATM    4  O           1     -18.053  -9.337  -4.280  0.00  0.00    -0.646 OA
ENDBRANCH   1   2
BRANCH   1   5
HETATM    5  C           1     -21.326  -9.786  -4.045  0.00  0.00     0.077 C 
BRANCH   5   6
HETATM    6  C           1     -21.052 -10.025  -2.593  0.00  0.00    -0.028 A 
HETATM    7  C           1     -21.432  -9.176  -1.516  0.00  0.00    -0.002 A 
HETATM    8  C           1     -22.121  -7.952  -1.431  0.00  0.00     0.014 A 
HETATM    9  C           1     -20.979  -9.776  -0.341  0.00  0.00     0.042 A 
HETATM   10  C           1     -22.331  -7.370  -0.174  0.00  0.00     0.001 A 
HETATM   11  C           1     -21.867  -7.992   0.983  0.00  0.00     0.002 A 
HETATM   12  C           1     -21.180  -9.209   0.923  0.00  0.00     0.030 A 
HETATM   13  N           1     -20.348 -10.945  -0.701  0.00  0.00    -0.365 N 
HETATM   14  H           1     -19.900 -11.617  -0.029  0.00  0.00     0.165 HD
HETATM   15  C           1     -20.386 -11.106  -2.061  0.00  0.00     0.096 A 
ENDBRANCH   5   6
ENDBRANCH   1   5
BRANCH   1  16
HETATM   16  N           1     -20.940  -8.081  -5.728  0.00  0.00    -0.344 N 
HETATM   17  H           1     -21.685  -8.529  -6.247  0.00  0.00     0.163 HD
HETATM   18  C           1     -20.490  -6.845  -6.108  0.00  0.00     0.249 C 
HETATM   19  O           1     -19.583  -6.750  -6.901  0.00  0.00    -0.271 OA
BRANCH  18  20
HETATM   20  C           1     -21.125  -5.601  -5.536  0.00  0.00     0.283 C 
BRANCH  20  21
HETATM   21  N           1     -20.089  -4.523  -5.415  0.00  0.00    -0.066 N 
HETATM   22  H           1     -20.560  -3.591  -5.373  0.00  0.00     0.275 HD
HETATM   23  H           1     -19.533  -4.672  -4.544  0.00  0.00     0.275 HD
HETATM   24  H           1     -19.455  -4.555  -6.245  0.00  0.00     0.275 HD
ENDBRANCH  20  21
BRANCH  20  25
HETATM   25  C           1     -22.242  -5.131  -6.458  0.00  0.00     0.113 C 
BRANCH  25  26
HETATM   26  S           1     -21.607  -3.850  -7.576  0.00  0.00    -0.180 SA
HETATM   27  H           1     -20.440  -3.668  -6.933  0.00  0.00     0.101 HD
ENDBRANCH  25  26
ENDBRANCH  20  25
ENDBRANCH  18  20
ENDBRANCH   1  16
TORSDOF 8
ENDMDL
