MODEL 1
REMARK VINA RESULT:      -6.3      0.000      0.000
REMARK  9 active torsions:
REMARK  status: ('A' for Active; 'I' for Inactive)
REMARK    1  A    between atoms: N_1  and  C_6 
REMARK       I    between atoms: N_1  and  C_16 
REMARK    2  A    between atoms: C_3  and  C_16 
REMARK    3  A    between atoms: C_3  and  C_18 
REMARK    4  A    between atoms: C_3  and  N_14 
REMARK    5  A    between atoms: C_5  and  C_6 
REMARK    6  A    between atoms: C_6  and  C_15 
REMARK    7  A    between atoms: C_10  and  C_23 
REMARK    8  A    between atoms: C_10  and  C_15 
REMARK    9  A    between atoms: N_22  and  C_23 
ROOT
HETATM    1  N           1     -35.027  -1.475 -12.833  0.00  0.00    -0.345 N 
HETATM    2  H           1     -35.443  -1.824 -13.687  0.00  0.00     0.163 HD
HETATM    3  O           1     -33.882  -1.918 -10.967  0.00  0.00    -0.271 OA
HETATM    4  C           1     -34.379  -2.335 -11.986  0.00  0.00     0.249 C 
ENDROOT
BRANCH   1   5
HETATM    5  C           1     -35.116  -0.066 -12.506  0.00  0.00     0.185 C 
BRANCH   5   6
HETATM    6  C           1     -36.366   0.185 -11.699  0.00  0.00     0.196 C 
HETATM    7  O           1     -37.489   0.007 -12.215  0.00  0.00    -0.646 OA
HETATM    8  O           1     -36.276   0.570 -10.513  0.00  0.00    -0.646 OA
ENDBRANCH   5   6
BRANCH   5   9
HETATM    9  C           1     -35.168   0.750 -13.792  0.00  0.00     0.038 C 
BRANCH   9  10
HETATM   10  C           1     -35.410  -0.178 -14.974  0.00  0.00     0.030 C 
BRANCH  10  11
HETATM   11  C           1     -36.697   0.226 -15.682  0.00  0.00     0.230 C 
BRANCH  11  12
HETATM   12  N           1     -36.658   1.692 -15.994  0.00  0.00    -0.079 N 
HETATM   13  H           1     -37.114   1.863 -16.919  0.00  0.00     0.274 HD
HETATM   14  H           1     -35.664   2.015 -16.032  0.00  0.00     0.274 HD
HETATM   15  H           1     -37.168   2.220 -15.251  0.00  0.00     0.274 HD
ENDBRANCH  11  12
ENDBRANCH  10  11
ENDBRANCH   9  10
ENDBRANCH   5   9
ENDBRANCH   1   5
BRANCH   4  16
HETATM   16  C           1     -34.286  -3.802 -12.327  0.00  0.00     0.278 C 
BRANCH  16  17
HETATM   17  C           1     -33.284  -4.476 -11.399  0.00  0.00     0.017 C 
HETATM   18  C           1     -31.984  -4.723 -12.153  0.00  0.00     0.012 C 
HETATM   19  C           1     -33.850  -5.805 -10.917  0.00  0.00     0.012 C 
ENDBRANCH  16  17
BRANCH  16  20
HETATM   20  N           1     -33.835  -3.957 -13.748  0.00  0.00    -0.066 N 
HETATM   21  H           1     -34.463  -4.630 -14.242  0.00  0.00     0.275 HD
HETATM   22  H           1     -33.872  -3.030 -14.229  0.00  0.00     0.275 HD
HETATM   23  H           1     -32.855  -4.319 -13.765  0.00  0.00     0.275 HD
ENDBRANCH  16  20
ENDBRANCH   4  16
TORSDOF 9
ENDMDL
MODEL 2
REMARK VINA RESULT:      -5.9      9.026     10.997
REMARK  9 active torsions:
REMARK  status: ('A' for Active; 'I' for Inactive)
REMARK    1  A    between atoms: N_1  and  C_6 
REMARK       I    between atoms: N_1  and  C_16 
REMARK    2  A    between atoms: C_3  and  C_16 
REMARK    3  A    between atoms: C_3  and  C_18 
REMARK    4  A    between atoms: C_3  and  N_14 
REMARK    5  A    between atoms: C_5  and  C_6 
REMARK    6  A    between atoms: C_6  and  C_15 
REMARK    7  A    between atoms: C_10  and  C_23 
REMARK    8  A    between atoms: C_10  and  C_15 
REMARK    9  A    between atoms: N_22  and  C_23 
ROOT
HETATM    1  N           1     -27.503  -6.609 -18.774  0.00  0.00    -0.345 N 
HETATM    2  H           1     -27.550  -7.025 -19.696  0.00  0.00     0.163 HD
HETATM    3  O           1     -26.229  -5.837 -17.110  0.00  0.00    -0.271 OA
HETATM    4  C           1     -26.286  -6.334 -18.210  0.00  0.00     0.249 C 
ENDROOT
BRANCH   1   5
HETATM    5  C           1     -28.722  -6.304 -18.053  0.00  0.00     0.185 C 
BRANCH   5   6
HETATM    6  C           1     -29.712  -7.427 -18.243  0.00  0.00     0.196 C 
HETATM    7  O           1     -30.779  -7.436 -17.595  0.00  0.00    -0.646 OA
HETATM    8  O           1     -29.463  -8.349 -19.050  0.00  0.00    -0.646 OA
ENDBRANCH   5   6
BRANCH   5   9
HETATM    9  C           1     -29.317  -5.006 -18.587  0.00  0.00     0.038 C 
BRANCH   9  10
HETATM   10  C           1     -29.605  -4.064 -17.427  0.00  0.00     0.030 C 
BRANCH  10  11
HETATM   11  C           1     -31.101  -3.780 -17.363  0.00  0.00     0.230 C 
BRANCH  11  12
HETATM   12  N           1     -31.776  -4.840 -16.544  0.00  0.00    -0.079 N 
HETATM   13  H           1     -31.104  -5.212 -15.834  0.00  0.00     0.274 HD
HETATM   14  H           1     -32.088  -5.618 -17.168  0.00  0.00     0.274 HD
HETATM   15  H           1     -32.605  -4.429 -16.058  0.00  0.00     0.274 HD
ENDBRANCH  11  12
ENDBRANCH  10  11
ENDBRANCH   9  10
ENDBRANCH   5   9
ENDBRANCH   1   5
BRANCH   4  16
HETATM   16  C           1     -25.016  -6.651 -18.961  0.00  0.00     0.278 C 
BRANCH  16  17
HETATM   17  C           1     -25.365  -7.190 -20.342  0.00  0.00     0.017 C 
HETATM   18  C           1     -24.276  -8.151 -20.800  0.00  0.00     0.012 C 
HETATM   19  C           1     -25.468  -6.034 -21.329  0.00  0.00     0.012 C 
ENDBRANCH  16  17
BRANCH  16  20
HETATM   20  N           1     -24.234  -7.683 -18.205  0.00  0.00    -0.066 N 
HETATM   21  H           1     -24.869  -8.462 -17.919  0.00  0.00     0.275 HD
HETATM   22  H           1     -23.474  -8.061 -18.815  0.00  0.00     0.275 HD
HETATM   23  H           1     -23.813  -7.247 -17.354  0.00  0.00     0.275 HD
ENDBRANCH  16  20
ENDBRANCH   4  16
TORSDOF 9
ENDMDL
MODEL 3
REMARK VINA RESULT:      -5.9     10.311     12.701
REMARK  9 active torsions:
REMARK  status: ('A' for Active; 'I' for Inactive)
REMARK    1  A    between atoms: N_1  and  C_6 
REMARK       I    between atoms: N_1  and  C_16 
REMARK    2  A    between atoms: C_3  and  C_16 
REMARK    3  A    between atoms: C_3  and  C_18 
REMARK    4  A    between atoms: C_3  and  N_14 
REMARK    5  A    between atoms: C_5  and  C_6 
REMARK    6  A    between atoms: C_6  and  C_15 
REMARK    7  A    between atoms: C_10  and  C_23 
REMARK    8  A    between atoms: C_10  and  C_15 
REMARK    9  A    between atoms: N_22  and  C_23 
ROOT
HETATM    1  N           1     -25.982  -7.049 -18.355  0.00  0.00    -0.345 N 
HETATM    2  H           1     -26.790  -7.575 -18.662  0.00  0.00     0.163 HD
HETATM    3  O           1     -23.834  -6.524 -18.668  0.00  0.00    -0.271 OA
HETATM    4  C           1     -24.798  -7.152 -19.036  0.00  0.00     0.249 C 
ENDROOT
BRANCH   1   5
HETATM    5  C           1     -26.078  -6.185 -17.195  0.00  0.00     0.185 C 
BRANCH   5   6
HETATM    6  C           1     -25.985  -7.018 -15.940  0.00  0.00     0.196 C 
HETATM    7  O           1     -27.025  -7.426 -15.382  0.00  0.00    -0.646 OA
HETATM    8  O           1     -24.866  -7.299 -15.459  0.00  0.00    -0.646 OA
ENDBRANCH   5   6
BRANCH   5   9
HETATM    9  C           1     -27.412  -5.449 -17.220  0.00  0.00     0.038 C 
BRANCH   9  10
HETATM   10  C           1     -28.270  -5.990 -18.355  0.00  0.00     0.030 C 
BRANCH  10  11
HETATM   11  C           1     -29.544  -6.600 -17.783  0.00  0.00     0.230 C 
BRANCH  11  12
HETATM   12  N           1     -29.292  -8.033 -17.420  0.00  0.00    -0.079 N 
HETATM   13  H           1     -29.843  -8.655 -18.054  0.00  0.00     0.274 HD
HETATM   14  H           1     -29.586  -8.199 -16.430  0.00  0.00     0.274 HD
HETATM   15  H           1     -28.274  -8.245 -17.521  0.00  0.00     0.274 HD
ENDBRANCH  11  12
ENDBRANCH  10  11
ENDBRANCH   9  10
ENDBRANCH   5   9
ENDBRANCH   1   5
BRANCH   4  16
HETATM   16  C           1     -24.698  -8.051 -20.243  0.00  0.00     0.278 C 
BRANCH  16  17
HETATM   17  C           1     -23.585  -7.553 -21.157  0.00  0.00     0.017 C 
HETATM   18  C           1     -24.124  -7.398 -22.573  0.00  0.00     0.012 C 
HETATM   19  C           1     -22.440  -8.557 -21.157  0.00  0.00     0.012 C 
ENDBRANCH  16  17
BRANCH  16  20
HETATM   20  N           1     -25.999  -8.034 -20.987  0.00  0.00    -0.066 N 
HETATM   21  H           1     -25.827  -7.792 -21.989  0.00  0.00     0.275 HD
HETATM   22  H           1     -26.446  -8.978 -20.931  0.00  0.00     0.275 HD
HETATM   23  H           1     -26.635  -7.322 -20.562  0.00  0.00     0.275 HD
ENDBRANCH  16  20
ENDBRANCH   4  16
TORSDOF 9
ENDMDL
MODEL 4
REMARK VINA RESULT:      -5.8      2.385      6.433
REMARK  9 active torsions:
REMARK  status: ('A' for Active; 'I' for Inactive)
REMARK    1  A    between atoms: N_1  and  C_6 
REMARK       I    between atoms: N_1  and  C_16 
REMARK    2  A    between atoms: C_3  and  C_16 
REMARK    3  A    between atoms: C_3  and  C_18 
REMARK    4  A    between atoms: C_3  and  N_14 
REMARK    5  A    between atoms: C_5  and  C_6 
REMARK    6  A    between atoms: C_6  and  C_15 
REMARK    7  A    between atoms: C_10  and  C_23 
REMARK    8  A    between atoms: C_10  and  C_15 
REMARK    9  A    between atoms: N_22  and  C_23 
ROOT
HETATM    1  N           1     -35.322  -3.018 -11.602  0.00  0.00    -0.345 N 
HETATM    2  H           1     -36.013  -3.242 -12.307  0.00  0.00     0.163 HD
HETATM    3  O           1     -34.504  -1.520 -10.162  0.00  0.00    -0.271 OA
HETATM    4  C           1     -35.329  -1.787 -11.003  0.00  0.00     0.249 C 
ENDROOT
BRANCH   1   5
HETATM    5  C           1     -34.325  -4.001 -11.227  0.00  0.00     0.185 C 
BRANCH   5   6
HETATM    6  C           1     -33.302  -4.125 -12.329  0.00  0.00     0.196 C 
HETATM    7  O           1     -32.124  -4.440 -12.056  0.00  0.00    -0.646 OA
HETATM    8  O           1     -33.633  -3.912 -13.515  0.00  0.00    -0.646 OA
ENDBRANCH   5   6
BRANCH   5   9
HETATM    9  C           1     -35.000  -5.349 -11.005  0.00  0.00     0.038 C 
BRANCH   9  10
HETATM   10  C           1     -33.963  -6.370 -10.557  0.00  0.00     0.030 C 
BRANCH  10  11
HETATM   11  C           1     -34.659  -7.675 -10.192  0.00  0.00     0.230 C 
BRANCH  11  12
HETATM   12  N           1     -33.662  -8.796 -10.213  0.00  0.00    -0.079 N 
HETATM   13  H           1     -34.152  -9.700 -10.024  0.00  0.00     0.274 HD
HETATM   14  H           1     -32.939  -8.633  -9.477  0.00  0.00     0.274 HD
HETATM   15  H           1     -33.203  -8.836 -11.150  0.00  0.00     0.274 HD
ENDBRANCH  11  12
ENDBRANCH  10  11
ENDBRANCH   9  10
ENDBRANCH   5   9
ENDBRANCH   1   5
BRANCH   4  16
HETATM   16  C           1     -36.367  -0.764 -11.394  0.00  0.00     0.278 C 
BRANCH  16  17
HETATM   17  C           1     -36.280  -0.498 -12.892  0.00  0.00     0.017 C 
HETATM   18  C           1     -35.249   0.592 -13.153  0.00  0.00     0.012 C 
HETATM   19  C           1     -37.639  -0.045 -13.408  0.00  0.00     0.012 C 
ENDBRANCH  16  17
BRANCH  16  20
HETATM   20  N           1     -36.118   0.511 -10.646  0.00  0.00    -0.066 N 
HETATM   21  H           1     -36.187   1.321 -11.302  0.00  0.00     0.275 HD
HETATM   22  H           1     -36.831   0.616  -9.888  0.00  0.00     0.275 HD
HETATM   23  H           1     -35.162   0.486 -10.223  0.00  0.00     0.275 HD
ENDBRANCH  16  20
ENDBRANCH   4  16
TORSDOF 9
ENDMDL
MODEL 5
REMARK VINA RESULT:      -5.6      9.769     12.358
REMARK  9 active torsions:
REMARK  status: ('A' for Active; 'I' for Inactive)
REMARK    1  A    between atoms: N_1  and  C_6 
REMARK       I    between atoms: N_1  and  C_16 
REMARK    2  A    between atoms: C_3  and  C_16 
REMARK    3  A    between atoms: C_3  and  C_18 
REMARK    4  A    between atoms: C_3  and  N_14 
REMARK    5  A    between atoms: C_5  and  C_6 
REMARK    6  A    between atoms: C_6  and  C_15 
REMARK    7  A    between atoms: C_10  and  C_23 
REMARK    8  A    between atoms: C_10  and  C_15 
REMARK    9  A    between atoms: N_22  and  C_23 
ROOT
HETATM    1  N           1     -26.549  -6.001 -18.101  0.00  0.00    -0.345 N 
HETATM    2  H           1     -26.124  -5.266 -17.552  0.00  0.00     0.163 HD
HETATM    3  O           1     -28.418  -6.930 -18.898  0.00  0.00    -0.271 OA
HETATM    4  C           1     -27.910  -6.052 -18.242  0.00  0.00     0.249 C 
ENDROOT
BRANCH   1   5
HETATM    5  C           1     -25.718  -7.001 -18.741  0.00  0.00     0.185 C 
BRANCH   5   6
HETATM    6  C           1     -24.400  -7.099 -18.012  0.00  0.00     0.196 C 
HETATM    7  O           1     -24.370  -7.482 -16.824  0.00  0.00    -0.646 OA
HETATM    8  O           1     -23.338  -6.796 -18.599  0.00  0.00    -0.646 OA
ENDBRANCH   5   6
BRANCH   5   9
HETATM    9  C           1     -25.469  -6.602 -20.191  0.00  0.00     0.038 C 
BRANCH   9  10
HETATM   10  C           1     -25.523  -7.840 -21.075  0.00  0.00     0.030 C 
BRANCH  10  11
HETATM   11  C           1     -24.220  -7.966 -21.854  0.00  0.00     0.230 C 
BRANCH  11  12
HETATM   12  N           1     -23.223  -8.737 -21.040  0.00  0.00    -0.079 N 
HETATM   13  H           1     -23.261  -8.413 -20.046  0.00  0.00     0.274 HD
HETATM   14  H           1     -22.264  -8.578 -21.421  0.00  0.00     0.274 HD
HETATM   15  H           1     -23.452  -9.755 -21.083  0.00  0.00     0.274 HD
ENDBRANCH  11  12
ENDBRANCH  10  11
ENDBRANCH   9  10
ENDBRANCH   5   9
ENDBRANCH   1   5
BRANCH   4  16
HETATM   16  C           1     -28.777  -5.010 -17.576  0.00  0.00     0.278 C 
BRANCH  16  17
HETATM   17  C           1     -29.780  -5.696 -16.658  0.00  0.00     0.017 C 
HETATM   18  C           1     -31.102  -4.942 -16.699  0.00  0.00     0.012 C 
HETATM   19  C           1     -29.244  -5.702 -15.232  0.00  0.00     0.012 C 
ENDBRANCH  16  17
BRANCH  16  20
HETATM   20  N           1     -29.511  -4.229 -18.623  0.00  0.00    -0.066 N 
HETATM   21  H           1     -28.840  -3.913 -19.359  0.00  0.00     0.275 HD
HETATM   22  H           1     -30.245  -4.833 -19.059  0.00  0.00     0.275 HD
HETATM   23  H           1     -29.963  -3.395 -18.183  0.00  0.00     0.275 HD
ENDBRANCH  16  20
ENDBRANCH   4  16
TORSDOF 9
ENDMDL
MODEL 6
REMARK VINA RESULT:      -5.5     11.325     13.614
REMARK  9 active torsions:
REMARK  status: ('A' for Active; 'I' for Inactive)
REMARK    1  A    between atoms: N_1  and  C_6 
REMARK       I    between atoms: N_1  and  C_16 
REMARK    2  A    between atoms: C_3  and  C_16 
REMARK    3  A    between atoms: C_3  and  C_18 
REMARK    4  A    between atoms: C_3  and  N_14 
REMARK    5  A    between atoms: C_5  and  C_6 
REMARK    6  A    between atoms: C_6  and  C_15 
REMARK    7  A    between atoms: C_10  and  C_23 
REMARK    8  A    between atoms: C_10  and  C_15 
REMARK    9  A    between atoms: N_22  and  C_23 
ROOT
HETATM    1  N           1     -23.515  -4.333  -8.519  0.00  0.00    -0.345 N 
HETATM    2  H           1     -24.344  -4.779  -8.148  0.00  0.00     0.163 HD
HETATM    3  O           1     -21.402  -3.691  -8.187  0.00  0.00    -0.271 OA
HETATM    4  C           1     -22.392  -4.223  -7.744  0.00  0.00     0.249 C 
ENDROOT
BRANCH   1   5
HETATM    5  C           1     -23.515  -3.814  -9.872  0.00  0.00     0.185 C 
BRANCH   5   6
HETATM    6  C           1     -24.867  -3.218 -10.181  0.00  0.00     0.196 C 
HETATM    7  O           1     -25.511  -2.632  -9.285  0.00  0.00    -0.646 OA
HETATM    8  O           1     -25.342  -3.310 -11.334  0.00  0.00    -0.646 OA
ENDBRANCH   5   6
BRANCH   5   9
HETATM    9  C           1     -23.223  -4.945 -10.850  0.00  0.00     0.038 C 
BRANCH   9  10
HETATM   10  C           1     -22.214  -4.472 -11.888  0.00  0.00     0.030 C 
BRANCH  10  11
HETATM   11  C           1     -20.833  -4.386 -11.251  0.00  0.00     0.230 C 
BRANCH  11  12
HETATM   12  N           1     -20.346  -2.968 -11.304  0.00  0.00    -0.079 N 
HETATM   13  H           1     -20.517  -2.507 -10.381  0.00  0.00     0.274 HD
HETATM   14  H           1     -20.860  -2.450 -12.052  0.00  0.00     0.274 HD
HETATM   15  H           1     -19.322  -2.959 -11.514  0.00  0.00     0.274 HD
ENDBRANCH  11  12
ENDBRANCH  10  11
ENDBRANCH   9  10
ENDBRANCH   5   9
ENDBRANCH   1   5
BRANCH   4  16
HETATM   16  C           1     -22.391  -4.764  -6.335  0.00  0.00     0.278 C 
BRANCH  16  17
HETATM   17  C           1     -21.283  -5.799  -6.189  0.00  0.00     0.017 C 
HETATM   18  C           1     -21.776  -6.950  -5.322  0.00  0.00     0.012 C 
HETATM   19  C           1     -20.069  -5.154  -5.533  0.00  0.00     0.012 C 
ENDBRANCH  16  17
BRANCH  16  20
HETATM   20  N           1     -23.715  -5.406  -6.047  0.00  0.00    -0.066 N 
HETATM   21  H           1     -24.463  -4.928  -6.598  0.00  0.00     0.275 HD
HETATM   22  H           1     -23.678  -6.416  -6.316  0.00  0.00     0.275 HD
HETATM   23  H           1     -23.928  -5.325  -5.027  0.00  0.00     0.275 HD
ENDBRANCH  16  20
ENDBRANCH   4  16
TORSDOF 9
ENDMDL
MODEL 7
REMARK VINA RESULT:      -5.5     13.844     16.366
REMARK  9 active torsions:
REMARK  status: ('A' for Active; 'I' for Inactive)
REMARK    1  A    between atoms: N_1  and  C_6 
REMARK       I    between atoms: N_1  and  C_16 
REMARK    2  A    between atoms: C_3  and  C_16 
REMARK    3  A    between atoms: C_3  and  C_18 
REMARK    4  A    between atoms: C_3  and  N_14 
REMARK    5  A    between atoms: C_5  and  C_6 
REMARK    6  A    between atoms: C_6  and  C_15 
REMARK    7  A    between atoms: C_10  and  C_23 
REMARK    8  A    between atoms: C_10  and  C_15 
REMARK    9  A    between atoms: N_22  and  C_23 
ROOT
HETATM    1  N           1     -21.053  -5.542  -4.959  0.00  0.00    -0.345 N 
HETATM    2  H           1     -20.628  -4.744  -4.505  0.00  0.00     0.163 HD
HETATM    3  O           1     -21.993  -7.558  -4.754  0.00  0.00    -0.271 OA
HETATM    4  C           1     -21.485  -6.605  -4.212  0.00  0.00     0.249 C 
ENDROOT
BRANCH   1   5
HETATM    5  C           1     -21.206  -5.559  -6.400  0.00  0.00     0.185 C 
BRANCH   5   6
HETATM    6  C           1     -19.861  -5.791  -7.045  0.00  0.00     0.196 C 
HETATM    7  O           1     -19.339  -6.925  -7.012  0.00  0.00    -0.646 OA
HETATM    8  O           1     -19.270  -4.846  -7.613  0.00  0.00    -0.646 OA
ENDBRANCH   5   6
BRANCH   5   9
HETATM    9  C           1     -21.771  -4.222  -6.867  0.00  0.00     0.038 C 
BRANCH   9  10
HETATM   10  C           1     -23.160  -4.434  -7.451  0.00  0.00     0.030 C 
BRANCH  10  11
HETATM   11  C           1     -23.212  -3.855  -8.859  0.00  0.00     0.230 C 
BRANCH  11  12
HETATM   12  N           1     -24.574  -3.281  -9.114  0.00  0.00    -0.079 N 
HETATM   13  H           1     -25.256  -3.685  -8.432  0.00  0.00     0.274 HD
HETATM   14  H           1     -24.876  -3.515 -10.087  0.00  0.00     0.274 HD
HETATM   15  H           1     -24.541  -2.243  -9.000  0.00  0.00     0.274 HD
ENDBRANCH  11  12
ENDBRANCH  10  11
ENDBRANCH   9  10
ENDBRANCH   5   9
ENDBRANCH   1   5
BRANCH   4  16
HETATM   16  C           1     -21.326  -6.587  -2.711  0.00  0.00     0.278 C 
BRANCH  16  17
HETATM   17  C           1     -21.392  -8.012  -2.177  0.00  0.00     0.017 C 
HETATM   18  C           1     -22.068  -8.010  -0.812  0.00  0.00     0.012 C 
HETATM   19  C           1     -19.981  -8.570  -2.042  0.00  0.00     0.012 C 
ENDBRANCH  16  17
BRANCH  16  20
HETATM   20  N           1     -22.429  -5.774  -2.103  0.00  0.00    -0.066 N 
HETATM   21  H           1     -22.041  -4.873  -1.743  0.00  0.00     0.275 HD
HETATM   22  H           1     -23.156  -5.574  -2.827  0.00  0.00     0.275 HD
HETATM   23  H           1     -22.861  -6.306  -1.314  0.00  0.00     0.275 HD
ENDBRANCH  16  20
ENDBRANCH   4  16
TORSDOF 9
ENDMDL
MODEL 8
REMARK VINA RESULT:      -5.3     13.949     16.879
REMARK  9 active torsions:
REMARK  status: ('A' for Active; 'I' for Inactive)
REMARK    1  A    between atoms: N_1  and  C_6 
REMARK       I    between atoms: N_1  and  C_16 
REMARK    2  A    between atoms: C_3  and  C_16 
REMARK    3  A    between atoms: C_3  and  C_18 
REMARK    4  A    between atoms: C_3  and  N_14 
REMARK    5  A    between atoms: C_5  and  C_6 
REMARK    6  A    between atoms: C_6  and  C_15 
REMARK    7  A    between atoms: C_10  and  C_23 
REMARK    8  A    between atoms: C_10  and  C_15 
REMARK    9  A    between atoms: N_22  and  C_23 
ROOT
HETATM    1  N           1     -21.589  -6.289  -6.306  0.00  0.00    -0.345 N 
HETATM    2  H           1     -22.045  -7.053  -6.789  0.00  0.00     0.163 HD
HETATM    3  O           1     -21.039  -4.125  -6.281  0.00  0.00    -0.271 OA
HETATM    4  C           1     -21.584  -5.036  -6.857  0.00  0.00     0.249 C 
ENDROOT
BRANCH   1   5
HETATM    5  C           1     -20.942  -6.522  -5.030  0.00  0.00     0.185 C 
BRANCH   5   6
HETATM    6  C           1     -20.100  -7.772  -5.114  0.00  0.00     0.196 C 
HETATM    7  O           1     -19.380  -7.974  -6.115  0.00  0.00    -0.646 OA
HETATM    8  O           1     -20.123  -8.605  -4.182  0.00  0.00    -0.646 OA
ENDBRANCH   5   6
BRANCH   5   9
HETATM    9  C           1     -22.002  -6.695  -3.948  0.00  0.00     0.038 C 
BRANCH   9  10
HETATM   10  C           1     -21.545  -6.000  -2.673  0.00  0.00     0.030 C 
BRANCH  10  11
HETATM   11  C           1     -22.113  -6.732  -1.464  0.00  0.00     0.230 C 
BRANCH  11  12
HETATM   12  N           1     -21.768  -8.189  -1.554  0.00  0.00    -0.079 N 
HETATM   13  H           1     -21.248  -8.370  -2.442  0.00  0.00     0.274 HD
HETATM   14  H           1     -22.645  -8.757  -1.542  0.00  0.00     0.274 HD
HETATM   15  H           1     -21.170  -8.456  -0.739  0.00  0.00     0.274 HD
ENDBRANCH  11  12
ENDBRANCH  10  11
ENDBRANCH   9  10
ENDBRANCH   5   9
ENDBRANCH   1   5
BRANCH   4  16
HETATM   16  C           1     -22.257  -4.794  -8.186  0.00  0.00     0.278 C 
BRANCH  16  17
HETATM   17  C           1     -21.347  -3.951  -9.070  0.00  0.00     0.017 C 
HETATM   18  C           1     -22.089  -3.573 -10.345  0.00  0.00     0.012 C 
HETATM   19  C           1     -20.101  -4.750  -9.426  0.00  0.00     0.012 C 
ENDBRANCH  16  17
BRANCH  16  20
HETATM   20  N           1     -23.550  -4.068  -7.965  0.00  0.00    -0.066 N 
HETATM   21  H           1     -24.224  -4.697  -7.472  0.00  0.00     0.275 HD
HETATM   22  H           1     -23.378  -3.218  -7.381  0.00  0.00     0.275 HD
HETATM   23  H           1     -23.952  -3.782  -8.886  0.00  0.00     0.275 HD
ENDBRANCH  16  20
ENDBRANCH   4  16
TORSDOF 9
ENDMDL
MODEL 9
REMARK VINA RESULT:      -5.2     15.359     17.691
REMARK  9 active torsions:
REMARK  status: ('A' for Active; 'I' for Inactive)
REMARK    1  A    between atoms: N_1  and  C_6 
REMARK       I    between atoms: N_1  and  C_16 
REMARK    2  A    between atoms: C_3  and  C_16 
REMARK    3  A    between atoms: C_3  and  C_18 
REMARK    4  A    between atoms: C_3  and  N_14 
REMARK    5  A    between atoms: C_5  and  C_6 
REMARK    6  A    between atoms: C_6  and  C_15 
REMARK    7  A    between atoms: C_10  and  C_23 
REMARK    8  A    between atoms: C_10  and  C_15 
REMARK    9  A    between atoms: N_22  and  C_23 
ROOT
HETATM    1  N           1     -20.706  -7.136  -5.949  0.00  0.00    -0.345 N 
HETATM    2  H           1     -20.873  -7.727  -6.753  0.00  0.00     0.163 HD
HETATM    3  O           1     -20.734  -5.082  -5.071  0.00  0.00    -0.271 OA
HETATM    4  C           1     -20.932  -5.788  -6.031  0.00  0.00     0.249 C 
ENDROOT
BRANCH   1   5
HETATM    5  C           1     -20.230  -7.716  -4.709  0.00  0.00     0.185 C 
BRANCH   5   6
HETATM    6  C           1     -19.492  -8.999  -5.006  0.00  0.00     0.196 C 
HETATM    7  O           1     -19.959  -9.812  -5.831  0.00  0.00    -0.646 OA
HETATM    8  O           1     -18.412  -9.246  -4.426  0.00  0.00    -0.646 OA
ENDBRANCH   5   6
BRANCH   5   9
HETATM    9  C           1     -21.416  -8.011  -3.798  0.00  0.00     0.038 C 
BRANCH   9  10
HETATM   10  C           1     -20.979  -7.906  -2.344  0.00  0.00     0.030 C 
BRANCH  10  11
HETATM   11  C           1     -21.980  -7.056  -1.572  0.00  0.00     0.230 C 
BRANCH  11  12
HETATM   12  N           1     -22.364  -5.863  -2.397  0.00  0.00    -0.079 N 
HETATM   13  H           1     -22.143  -6.049  -3.401  0.00  0.00     0.274 HD
HETATM   14  H           1     -21.829  -5.027  -2.071  0.00  0.00     0.274 HD
HETATM   15  H           1     -23.388  -5.683  -2.292  0.00  0.00     0.274 HD
ENDBRANCH  11  12
ENDBRANCH  10  11
ENDBRANCH   9  10
ENDBRANCH   5   9
ENDBRANCH   1   5
BRANCH   4  16
HETATM   16  C           1     -21.428  -5.183  -7.322  0.00  0.00     0.278 C 
BRANCH  16  17
HETATM   17  C           1     -20.287  -5.131  -8.330  0.00  0.00     0.017 C 
HETATM   18  C           1     -19.127  -4.339  -7.740  0.00  0.00     0.012 C 
HETATM   19  C           1     -20.766  -4.452  -9.606  0.00  0.00     0.012 C 
ENDBRANCH  16  17
BRANCH  16  20
HETATM   20  N           1     -21.929  -3.795  -7.063  0.00  0.00    -0.066 N 
HETATM   21  H           1     -22.556  -3.497  -7.844  0.00  0.00     0.275 HD
HETATM   22  H           1     -22.464  -3.779  -6.164  0.00  0.00     0.275 HD
HETATM   23  H           1     -21.119  -3.137  -6.998  0.00  0.00     0.275 HD
ENDBRANCH  16  20
ENDBRANCH   4  16
TORSDOF 9
ENDMDL
