MODEL 1
REMARK VINA RESULT:      -7.1      0.000      0.000
REMARK  9 active torsions:
REMARK  status: ('A' for Active; 'I' for Inactive)
REMARK    1  A    between atoms: O_1  and  C_25 
REMARK    2  A    between atoms: C_4  and  C_9 
REMARK    3  A    between atoms: C_4  and  C_5 
REMARK    4  A    between atoms: C_9  and  C_18 
REMARK    5  A    between atoms: C_9  and  N_22 
REMARK    6  A    between atoms: O_10  and  C_11 
REMARK    7  A    between atoms: C_11  and  C_12 
REMARK    8  A    between atoms: C_12  and  C_17 
REMARK    9  A    between atoms: C_12  and  N_24 
REMARK       I    between atoms: C_18  and  N_24 
ROOT
HETATM    1  C           1     -22.088  -5.186  -6.621  0.00  0.00     0.278 C 
ENDROOT
BRANCH   1   2
HETATM    2  C           1     -21.520  -3.880  -7.161  0.00  0.00     0.081 C 
BRANCH   2   3
HETATM    3  C           1     -21.571  -3.894  -8.657  0.00  0.00    -0.056 A 
HETATM    4  C           1     -20.429  -4.212  -9.391  0.00  0.00     0.010 A 
HETATM    5  C           1     -20.477  -4.226 -10.786  0.00  0.00     0.037 A 
HETATM    6  C           1     -21.668  -3.923 -11.445  0.00  0.00     0.065 A 
HETATM    7  C           1     -22.810  -3.607 -10.711  0.00  0.00     0.037 A 
HETATM    8  C           1     -22.763  -3.592  -9.317  0.00  0.00     0.010 A 
BRANCH   6   9
HETATM    9  O           1     -21.715  -3.937 -12.800  0.00  0.00    -0.361 OA
HETATM   10  H           1     -20.822  -3.744 -13.132  0.00  0.00     0.217 HD
ENDBRANCH   6   9
ENDBRANCH   2   3
ENDBRANCH   1   2
BRANCH   1  11
HETATM   11  C           1     -21.358  -5.566  -5.356  0.00  0.00     0.249 C 
HETATM   12  O           1     -20.175  -5.349  -5.252  0.00  0.00    -0.271 OA
HETATM   13  N           1     -22.038  -6.159  -4.325  0.00  0.00    -0.343 N 
HETATM   14  H           1     -23.030  -6.341  -4.412  0.00  0.00     0.163 HD
BRANCH  13  15
HETATM   15  C           1     -21.337  -6.524  -3.110  0.00  0.00     0.209 C 
BRANCH  15  16
HETATM   16  C           1     -22.216  -6.217  -1.905  0.00  0.00     0.200 C 
BRANCH  16  17
HETATM   17  O           1     -22.312  -7.356  -1.093  0.00  0.00    -0.398 OA
HETATM   18  H           1     -21.616  -7.935  -1.350  0.00  0.00     0.209 HD
ENDBRANCH  16  17
ENDBRANCH  15  16
BRANCH  15  19
HETATM   19  C           1     -21.020  -8.000  -3.138  0.00  0.00     0.198 C 
HETATM   20  O           1     -20.025  -8.437  -2.523  0.00  0.00    -0.646 OA
HETATM   21  O           1     -21.755  -8.784  -3.778  0.00  0.00    -0.646 OA
ENDBRANCH  15  19
ENDBRANCH  13  15
ENDBRANCH   1  11
BRANCH   1  22
HETATM   22  N           1     -23.547  -5.011  -6.323  0.00  0.00    -0.066 N 
HETATM   23  H           1     -23.836  -5.691  -5.584  0.00  0.00     0.275 HD
HETATM   24  H           1     -23.718  -4.037  -5.985  0.00  0.00     0.275 HD
HETATM   25  H           1     -24.103  -5.183  -7.190  0.00  0.00     0.275 HD
ENDBRANCH   1  22
TORSDOF 9
ENDMDL
MODEL 2
REMARK VINA RESULT:      -7.1      0.037      1.109
REMARK  9 active torsions:
REMARK  status: ('A' for Active; 'I' for Inactive)
REMARK    1  A    between atoms: O_1  and  C_25 
REMARK    2  A    between atoms: C_4  and  C_9 
REMARK    3  A    between atoms: C_4  and  C_5 
REMARK    4  A    between atoms: C_9  and  C_18 
REMARK    5  A    between atoms: C_9  and  N_22 
REMARK    6  A    between atoms: O_10  and  C_11 
REMARK    7  A    between atoms: C_11  and  C_12 
REMARK    8  A    between atoms: C_12  and  C_17 
REMARK    9  A    between atoms: C_12  and  N_24 
REMARK       I    between atoms: C_18  and  N_24 
ROOT
HETATM    1  C           1     -22.091  -5.169  -6.640  0.00  0.00     0.278 C 
ENDROOT
BRANCH   1   2
HETATM    2  C           1     -21.504  -3.873  -7.186  0.00  0.00     0.081 C 
BRANCH   2   3
HETATM    3  C           1     -21.565  -3.890  -8.682  0.00  0.00    -0.056 A 
HETATM    4  C           1     -22.765  -3.610  -9.334  0.00  0.00     0.010 A 
HETATM    5  C           1     -22.821  -3.625 -10.729  0.00  0.00     0.037 A 
HETATM    6  C           1     -21.676  -3.919 -11.469  0.00  0.00     0.065 A 
HETATM    7  C           1     -20.476  -4.197 -10.816  0.00  0.00     0.037 A 
HETATM    8  C           1     -20.420  -4.183  -9.422  0.00  0.00     0.010 A 
BRANCH   6   9
HETATM    9  O           1     -21.731  -3.933 -12.823  0.00  0.00    -0.361 OA
HETATM   10  H           1     -21.998  -3.048 -13.121  0.00  0.00     0.217 HD
ENDBRANCH   6   9
ENDBRANCH   2   3
ENDBRANCH   1   2
BRANCH   1  11
HETATM   11  C           1     -21.364  -5.556  -5.375  0.00  0.00     0.249 C 
HETATM   12  O           1     -20.183  -5.330  -5.263  0.00  0.00    -0.271 OA
HETATM   13  N           1     -22.044  -6.165  -4.354  0.00  0.00    -0.343 N 
HETATM   14  H           1     -23.034  -6.354  -4.448  0.00  0.00     0.163 HD
BRANCH  13  15
HETATM   15  C           1     -21.347  -6.537  -3.139  0.00  0.00     0.209 C 
BRANCH  15  16
HETATM   16  C           1     -22.227  -6.233  -1.934  0.00  0.00     0.200 C 
BRANCH  16  17
HETATM   17  O           1     -22.268  -7.352  -1.090  0.00  0.00    -0.398 OA
HETATM   18  H           1     -21.604  -7.224  -0.433  0.00  0.00     0.209 HD
ENDBRANCH  16  17
ENDBRANCH  15  16
BRANCH  15  19
HETATM   19  C           1     -21.033  -8.013  -3.173  0.00  0.00     0.198 C 
HETATM   20  O           1     -20.012  -8.448  -2.599  0.00  0.00    -0.646 OA
HETATM   21  O           1     -21.795  -8.799  -3.777  0.00  0.00    -0.646 OA
ENDBRANCH  15  19
ENDBRANCH  13  15
ENDBRANCH   1  11
BRANCH   1  22
HETATM   22  N           1     -23.547  -4.969  -6.339  0.00  0.00    -0.066 N 
HETATM   23  H           1     -23.657  -4.186  -5.657  0.00  0.00     0.275 HD
HETATM   24  H           1     -24.055  -4.737  -7.222  0.00  0.00     0.275 HD
HETATM   25  H           1     -23.941  -5.846  -5.929  0.00  0.00     0.275 HD
ENDBRANCH   1  22
TORSDOF 9
ENDMDL
MODEL 3
REMARK VINA RESULT:      -6.9      2.127      7.606
REMARK  9 active torsions:
REMARK  status: ('A' for Active; 'I' for Inactive)
REMARK    1  A    between atoms: O_1  and  C_25 
REMARK    2  A    between atoms: C_4  and  C_9 
REMARK    3  A    between atoms: C_4  and  C_5 
REMARK    4  A    between atoms: C_9  and  C_18 
REMARK    5  A    between atoms: C_9  and  N_22 
REMARK    6  A    between atoms: O_10  and  C_11 
REMARK    7  A    between atoms: C_11  and  C_12 
REMARK    8  A    between atoms: C_12  and  C_17 
REMARK    9  A    between atoms: C_12  and  N_24 
REMARK       I    between atoms: C_18  and  N_24 
ROOT
HETATM    1  C           1     -21.167  -5.705  -6.975  0.00  0.00     0.278 C 
ENDROOT
BRANCH   1   2
HETATM    2  C           1     -20.976  -5.198  -5.551  0.00  0.00     0.081 C 
BRANCH   2   3
HETATM    3  C           1     -21.200  -6.322  -4.587  0.00  0.00    -0.056 A 
HETATM    4  C           1     -21.256  -6.066  -3.218  0.00  0.00     0.010 A 
HETATM    5  C           1     -21.466  -7.114  -2.320  0.00  0.00     0.037 A 
HETATM    6  C           1     -21.619  -8.417  -2.794  0.00  0.00     0.065 A 
HETATM    7  C           1     -21.563  -8.672  -4.163  0.00  0.00     0.037 A 
HETATM    8  C           1     -21.354  -7.625  -5.061  0.00  0.00     0.010 A 
BRANCH   6   9
HETATM    9  O           1     -21.822  -9.434  -1.922  0.00  0.00    -0.361 OA
HETATM   10  H           1     -22.772  -9.639  -1.917  0.00  0.00     0.217 HD
ENDBRANCH   6   9
ENDBRANCH   2   3
ENDBRANCH   1   2
BRANCH   1  11
HETATM   11  C           1     -21.654  -4.575  -7.849  0.00  0.00     0.249 C 
HETATM   12  O           1     -21.676  -3.446  -7.422  0.00  0.00    -0.271 OA
HETATM   13  N           1     -22.072  -4.831  -9.128  0.00  0.00    -0.343 N 
HETATM   14  H           1     -22.054  -5.777  -9.487  0.00  0.00     0.163 HD
BRANCH  13  15
HETATM   15  C           1     -22.540  -3.746  -9.968  0.00  0.00     0.209 C 
BRANCH  15  16
HETATM   16  C           1     -21.793  -3.772 -11.295  0.00  0.00     0.200 C 
BRANCH  16  17
HETATM   17  O           1     -22.584  -4.402 -12.265  0.00  0.00    -0.398 OA
HETATM   18  H           1     -22.227  -4.167 -13.105  0.00  0.00     0.209 HD
ENDBRANCH  16  17
ENDBRANCH  15  16
BRANCH  15  19
HETATM   19  C           1     -24.019  -3.909 -10.221  0.00  0.00     0.198 C 
HETATM   20  O           1     -24.576  -5.002  -9.984  0.00  0.00    -0.646 OA
HETATM   21  O           1     -24.686  -2.950 -10.667  0.00  0.00    -0.646 OA
ENDBRANCH  15  19
ENDBRANCH  13  15
ENDBRANCH   1  11
BRANCH   1  22
HETATM   22  N           1     -19.859  -6.216  -7.502  0.00  0.00    -0.066 N 
HETATM   23  H           1     -19.692  -5.827  -8.457  0.00  0.00     0.275 HD
HETATM   24  H           1     -19.087  -5.917  -6.864  0.00  0.00     0.275 HD
HETATM   25  H           1     -19.887  -7.260  -7.551  0.00  0.00     0.275 HD
ENDBRANCH   1  22
TORSDOF 9
ENDMDL
MODEL 4
REMARK VINA RESULT:      -6.6     13.316     14.594
REMARK  9 active torsions:
REMARK  status: ('A' for Active; 'I' for Inactive)
REMARK    1  A    between atoms: O_1  and  C_25 
REMARK    2  A    between atoms: C_4  and  C_9 
REMARK    3  A    between atoms: C_4  and  C_5 
REMARK    4  A    between atoms: C_9  and  C_18 
REMARK    5  A    between atoms: C_9  and  N_22 
REMARK    6  A    between atoms: O_10  and  C_11 
REMARK    7  A    between atoms: C_11  and  C_12 
REMARK    8  A    between atoms: C_12  and  C_17 
REMARK    9  A    between atoms: C_12  and  N_24 
REMARK       I    between atoms: C_18  and  N_24 
ROOT
HETATM    1  C           1     -32.874  -4.509 -16.697  0.00  0.00     0.278 C 
ENDROOT
BRANCH   1   2
HETATM    2  C           1     -31.447  -4.499 -16.163  0.00  0.00     0.081 C 
BRANCH   2   3
HETATM    3  C           1     -30.573  -5.318 -17.061  0.00  0.00    -0.056 A 
HETATM    4  C           1     -29.463  -4.737 -17.673  0.00  0.00     0.010 A 
HETATM    5  C           1     -28.648  -5.501 -18.510  0.00  0.00     0.037 A 
HETATM    6  C           1     -28.945  -6.846 -18.733  0.00  0.00     0.065 A 
HETATM    7  C           1     -30.054  -7.426 -18.120  0.00  0.00     0.037 A 
HETATM    8  C           1     -30.869  -6.663 -17.284  0.00  0.00     0.010 A 
BRANCH   6   9
HETATM    9  O           1     -28.153  -7.588 -19.546  0.00  0.00    -0.361 OA
HETATM   10  H           1     -28.124  -7.152 -20.414  0.00  0.00     0.217 HD
ENDBRANCH   6   9
ENDBRANCH   2   3
ENDBRANCH   1   2
BRANCH   1  11
HETATM   11  C           1     -33.844  -4.454 -15.542  0.00  0.00     0.249 C 
HETATM   12  O           1     -35.009  -4.720 -15.717  0.00  0.00    -0.271 OA
HETATM   13  N           1     -33.403  -4.101 -14.294  0.00  0.00    -0.343 N 
HETATM   14  H           1     -32.427  -3.878 -14.147  0.00  0.00     0.163 HD
BRANCH  13  15
HETATM   15  C           1     -34.334  -4.047 -13.184  0.00  0.00     0.209 C 
BRANCH  15  16
HETATM   16  C           1     -33.776  -4.846 -12.014  0.00  0.00     0.200 C 
BRANCH  16  17
HETATM   17  O           1     -32.375  -4.805 -12.045  0.00  0.00    -0.398 OA
HETATM   18  H           1     -32.089  -4.561 -11.181  0.00  0.00     0.209 HD
ENDBRANCH  16  17
ENDBRANCH  15  16
BRANCH  15  19
HETATM   19  C           1     -34.532  -2.611 -12.765  0.00  0.00     0.198 C 
HETATM   20  O           1     -35.105  -1.809 -13.532  0.00  0.00    -0.646 OA
HETATM   21  O           1     -34.122  -2.225 -11.648  0.00  0.00    -0.646 OA
ENDBRANCH  15  19
ENDBRANCH  13  15
ENDBRANCH   1  11
BRANCH   1  22
HETATM   22  N           1     -33.084  -3.316 -17.582  0.00  0.00    -0.066 N 
HETATM   23  H           1     -32.188  -2.785 -17.670  0.00  0.00     0.275 HD
HETATM   24  H           1     -33.393  -3.636 -18.528  0.00  0.00     0.275 HD
HETATM   25  H           1     -33.816  -2.698 -17.165  0.00  0.00     0.275 HD
ENDBRANCH   1  22
TORSDOF 9
ENDMDL
MODEL 5
REMARK VINA RESULT:      -6.4      1.721      2.365
REMARK  9 active torsions:
REMARK  status: ('A' for Active; 'I' for Inactive)
REMARK    1  A    between atoms: O_1  and  C_25 
REMARK    2  A    between atoms: C_4  and  C_9 
REMARK    3  A    between atoms: C_4  and  C_5 
REMARK    4  A    between atoms: C_9  and  C_18 
REMARK    5  A    between atoms: C_9  and  N_22 
REMARK    6  A    between atoms: O_10  and  C_11 
REMARK    7  A    between atoms: C_11  and  C_12 
REMARK    8  A    between atoms: C_12  and  C_17 
REMARK    9  A    between atoms: C_12  and  N_24 
REMARK       I    between atoms: C_18  and  N_24 
ROOT
HETATM    1  C           1     -22.304  -5.519  -6.798  0.00  0.00     0.278 C 
ENDROOT
BRANCH   1   2
HETATM    2  C           1     -21.303  -4.464  -7.253  0.00  0.00     0.081 C 
BRANCH   2   3
HETATM    3  C           1     -21.408  -4.284  -8.735  0.00  0.00    -0.056 A 
HETATM    4  C           1     -22.660  -4.153  -9.335  0.00  0.00     0.010 A 
HETATM    5  C           1     -22.758  -3.985 -10.717  0.00  0.00     0.037 A 
HETATM    6  C           1     -21.602  -3.947 -11.498  0.00  0.00     0.065 A 
HETATM    7  C           1     -20.351  -4.077 -10.898  0.00  0.00     0.037 A 
HETATM    8  C           1     -20.253  -4.246  -9.516  0.00  0.00     0.010 A 
BRANCH   6   9
HETATM    9  O           1     -21.697  -3.784 -12.840  0.00  0.00    -0.361 OA
HETATM   10  H           1     -20.976  -4.286 -13.254  0.00  0.00     0.217 HD
ENDBRANCH   6   9
ENDBRANCH   2   3
ENDBRANCH   1   2
BRANCH   1  11
HETATM   11  C           1     -21.750  -6.255  -5.602  0.00  0.00     0.249 C 
HETATM   12  O           1     -21.877  -5.790  -4.494  0.00  0.00    -0.271 OA
HETATM   13  N           1     -21.102  -7.450  -5.773  0.00  0.00    -0.343 N 
HETATM   14  H           1     -20.996  -7.839  -6.700  0.00  0.00     0.163 HD
BRANCH  13  15
HETATM   15  C           1     -20.570  -8.156  -4.624  0.00  0.00     0.209 C 
BRANCH  15  16
HETATM   16  C           1     -21.511  -9.291  -4.244  0.00  0.00     0.200 C 
BRANCH  16  17
HETATM   17  O           1     -21.109 -10.469  -4.888  0.00  0.00    -0.398 OA
HETATM   18  H           1     -20.201 -10.360  -5.116  0.00  0.00     0.209 HD
ENDBRANCH  16  17
ENDBRANCH  15  16
BRANCH  15  19
HETATM   19  C           1     -19.214  -8.722  -4.968  0.00  0.00     0.198 C 
HETATM   20  O           1     -18.465  -9.145  -4.061  0.00  0.00    -0.646 OA
HETATM   21  O           1     -18.839  -8.766  -6.160  0.00  0.00    -0.646 OA
ENDBRANCH  15  19
ENDBRANCH  13  15
ENDBRANCH   1  11
BRANCH   1  22
HETATM   22  N           1     -23.594  -4.853  -6.421  0.00  0.00    -0.066 N 
HETATM   23  H           1     -24.349  -5.160  -7.074  0.00  0.00     0.275 HD
HETATM   24  H           1     -23.850  -5.120  -5.443  0.00  0.00     0.275 HD
HETATM   25  H           1     -23.481  -3.816  -6.481  0.00  0.00     0.275 HD
ENDBRANCH   1  22
TORSDOF 9
ENDMDL
MODEL 6
REMARK VINA RESULT:      -6.3      1.472      2.313
REMARK  9 active torsions:
REMARK  status: ('A' for Active; 'I' for Inactive)
REMARK    1  A    between atoms: O_1  and  C_25 
REMARK    2  A    between atoms: C_4  and  C_9 
REMARK    3  A    between atoms: C_4  and  C_5 
REMARK    4  A    between atoms: C_9  and  C_18 
REMARK    5  A    between atoms: C_9  and  N_22 
REMARK    6  A    between atoms: O_10  and  C_11 
REMARK    7  A    between atoms: C_11  and  C_12 
REMARK    8  A    between atoms: C_12  and  C_17 
REMARK    9  A    between atoms: C_12  and  N_24 
REMARK       I    between atoms: C_18  and  N_24 
ROOT
HETATM    1  C           1     -20.413  -5.098  -6.587  0.00  0.00     0.278 C 
ENDROOT
BRANCH   1   2
HETATM    2  C           1     -21.111  -3.844  -7.098  0.00  0.00     0.081 C 
BRANCH   2   3
HETATM    3  C           1     -21.478  -4.029  -8.537  0.00  0.00    -0.056 A 
HETATM    4  C           1     -22.791  -4.343  -8.887  0.00  0.00     0.010 A 
HETATM    5  C           1     -23.133  -4.515 -10.229  0.00  0.00     0.037 A 
HETATM    6  C           1     -22.162  -4.371 -11.220  0.00  0.00     0.065 A 
HETATM    7  C           1     -20.850  -4.057 -10.869  0.00  0.00     0.037 A 
HETATM    8  C           1     -20.507  -3.885  -9.528  0.00  0.00     0.010 A 
BRANCH   6   9
HETATM    9  O           1     -22.495  -4.538 -12.523  0.00  0.00    -0.361 OA
HETATM   10  H           1     -22.449  -3.670 -12.957  0.00  0.00     0.217 HD
ENDBRANCH   6   9
ENDBRANCH   2   3
ENDBRANCH   1   2
BRANCH   1  11
HETATM   11  C           1     -21.335  -5.844  -5.654  0.00  0.00     0.249 C 
HETATM   12  O           1     -22.521  -5.611  -5.663  0.00  0.00    -0.271 OA
HETATM   13  N           1     -20.829  -6.784  -4.796  0.00  0.00    -0.343 N 
HETATM   14  H           1     -19.836  -6.978  -4.789  0.00  0.00     0.163 HD
BRANCH  13  15
HETATM   15  C           1     -21.715  -7.499  -3.900  0.00  0.00     0.209 C 
BRANCH  15  16
HETATM   16  C           1     -21.296  -8.961  -3.831  0.00  0.00     0.200 C 
BRANCH  16  17
HETATM   17  O           1     -19.897  -9.050  -3.870  0.00  0.00    -0.398 OA
HETATM   18  H           1     -19.570  -8.525  -3.159  0.00  0.00     0.209 HD
ENDBRANCH  16  17
ENDBRANCH  15  16
BRANCH  15  19
HETATM   19  C           1     -21.635  -6.888  -2.522  0.00  0.00     0.198 C 
HETATM   20  O           1     -22.345  -5.901  -2.234  0.00  0.00    -0.646 OA
HETATM   21  O           1     -20.858  -7.371  -1.669  0.00  0.00    -0.646 OA
ENDBRANCH  15  19
ENDBRANCH  13  15
ENDBRANCH   1  11
BRANCH   1  22
HETATM   22  N           1     -20.058  -5.979  -7.748  0.00  0.00    -0.066 N 
HETATM   23  H           1     -19.446  -5.453  -8.411  0.00  0.00     0.275 HD
HETATM   24  H           1     -19.550  -6.824  -7.401  0.00  0.00     0.275 HD
HETATM   25  H           1     -20.931  -6.275  -8.240  0.00  0.00     0.275 HD
ENDBRANCH   1  22
TORSDOF 9
ENDMDL
MODEL 7
REMARK VINA RESULT:      -6.1      1.475      2.159
REMARK  9 active torsions:
REMARK  status: ('A' for Active; 'I' for Inactive)
REMARK    1  A    between atoms: O_1  and  C_25 
REMARK    2  A    between atoms: C_4  and  C_9 
REMARK    3  A    between atoms: C_4  and  C_5 
REMARK    4  A    between atoms: C_9  and  C_18 
REMARK    5  A    between atoms: C_9  and  N_22 
REMARK    6  A    between atoms: O_10  and  C_11 
REMARK    7  A    between atoms: C_11  and  C_12 
REMARK    8  A    between atoms: C_12  and  C_17 
REMARK    9  A    between atoms: C_12  and  N_24 
REMARK       I    between atoms: C_18  and  N_24 
ROOT
HETATM    1  C           1     -21.817  -5.831  -6.696  0.00  0.00     0.278 C 
ENDROOT
BRANCH   1   2
HETATM    2  C           1     -21.102  -4.552  -7.111  0.00  0.00     0.081 C 
BRANCH   2   3
HETATM    3  C           1     -21.258  -4.349  -8.585  0.00  0.00    -0.056 A 
HETATM    4  C           1     -22.476  -3.912  -9.104  0.00  0.00     0.010 A 
HETATM    5  C           1     -22.621  -3.722 -10.480  0.00  0.00     0.037 A 
HETATM    6  C           1     -21.546  -3.970 -11.334  0.00  0.00     0.065 A 
HETATM    7  C           1     -20.329  -4.406 -10.815  0.00  0.00     0.037 A 
HETATM    8  C           1     -20.183  -4.595  -9.440  0.00  0.00     0.010 A 
BRANCH   6   9
HETATM    9  O           1     -21.687  -3.785 -12.669  0.00  0.00    -0.361 OA
HETATM   10  H           1     -20.974  -3.197 -12.967  0.00  0.00     0.217 HD
ENDBRANCH   6   9
ENDBRANCH   2   3
ENDBRANCH   1   2
BRANCH   1  11
HETATM   11  C           1     -20.814  -6.807  -6.130  0.00  0.00     0.249 C 
HETATM   12  O           1     -19.706  -6.879  -6.606  0.00  0.00    -0.271 OA
HETATM   13  N           1     -21.160  -7.612  -5.078  0.00  0.00    -0.343 N 
HETATM   14  H           1     -22.089  -7.552  -4.679  0.00  0.00     0.163 HD
BRANCH  13  15
HETATM   15  C           1     -20.197  -8.550  -4.535  0.00  0.00     0.209 C 
BRANCH  15  16
HETATM   16  C           1     -20.213  -8.472  -3.014  0.00  0.00     0.200 C 
BRANCH  16  17
HETATM   17  O           1     -21.331  -7.736  -2.595  0.00  0.00    -0.398 OA
HETATM   18  H           1     -21.551  -7.149  -3.298  0.00  0.00     0.209 HD
ENDBRANCH  16  17
ENDBRANCH  15  16
BRANCH  15  19
HETATM   19  C           1     -20.559  -9.949  -4.970  0.00  0.00     0.198 C 
HETATM   20  O           1     -21.013 -10.149  -6.117  0.00  0.00    -0.646 OA
HETATM   21  O           1     -20.403 -10.908  -4.183  0.00  0.00    -0.646 OA
ENDBRANCH  15  19
ENDBRANCH  13  15
ENDBRANCH   1  11
BRANCH   1  22
HETATM   22  N           1     -22.846  -5.512  -5.652  0.00  0.00    -0.066 N 
HETATM   23  H           1     -23.536  -6.294  -5.593  0.00  0.00     0.275 HD
HETATM   24  H           1     -22.376  -5.392  -4.727  0.00  0.00     0.275 HD
HETATM   25  H           1     -23.342  -4.629  -5.910  0.00  0.00     0.275 HD
ENDBRANCH   1  22
TORSDOF 9
ENDMDL
MODEL 8
REMARK VINA RESULT:      -6.1      1.801      2.399
REMARK  9 active torsions:
REMARK  status: ('A' for Active; 'I' for Inactive)
REMARK    1  A    between atoms: O_1  and  C_25 
REMARK    2  A    between atoms: C_4  and  C_9 
REMARK    3  A    between atoms: C_4  and  C_5 
REMARK    4  A    between atoms: C_9  and  C_18 
REMARK    5  A    between atoms: C_9  and  N_22 
REMARK    6  A    between atoms: O_10  and  C_11 
REMARK    7  A    between atoms: C_11  and  C_12 
REMARK    8  A    between atoms: C_12  and  C_17 
REMARK    9  A    between atoms: C_12  and  N_24 
REMARK       I    between atoms: C_18  and  N_24 
ROOT
HETATM    1  C           1     -21.164  -5.293  -5.971  0.00  0.00     0.278 C 
ENDROOT
BRANCH   1   2
HETATM    2  C           1     -20.648  -5.932  -7.254  0.00  0.00     0.081 C 
BRANCH   2   3
HETATM    3  C           1     -21.004  -5.064  -8.421  0.00  0.00    -0.056 A 
HETATM    4  C           1     -20.067  -4.830  -9.427  0.00  0.00     0.010 A 
HETATM    5  C           1     -20.399  -4.021 -10.515  0.00  0.00     0.037 A 
HETATM    6  C           1     -21.669  -3.449 -10.596  0.00  0.00     0.065 A 
HETATM    7  C           1     -22.605  -3.684  -9.590  0.00  0.00     0.037 A 
HETATM    8  C           1     -22.273  -4.492  -8.502  0.00  0.00     0.010 A 
BRANCH   6   9
HETATM    9  O           1     -21.991  -2.664 -11.653  0.00  0.00    -0.361 OA
HETATM   10  H           1     -22.955  -2.541 -11.651  0.00  0.00     0.217 HD
ENDBRANCH   6   9
ENDBRANCH   2   3
ENDBRANCH   1   2
BRANCH   1  11
HETATM   11  C           1     -21.566  -6.375  -4.998  0.00  0.00     0.249 C 
HETATM   12  O           1     -22.505  -6.203  -4.257  0.00  0.00    -0.271 OA
HETATM   13  N           1     -20.866  -7.551  -4.953  0.00  0.00    -0.343 N 
HETATM   14  H           1     -20.080  -7.695  -5.574  0.00  0.00     0.163 HD
BRANCH  13  15
HETATM   15  C           1     -21.252  -8.590  -4.018  0.00  0.00     0.209 C 
BRANCH  15  16
HETATM   16  C           1     -21.228  -9.940  -4.720  0.00  0.00     0.200 C 
BRANCH  16  17
HETATM   17  O           1     -20.198  -9.955  -5.671  0.00  0.00    -0.398 OA
HETATM   18  H           1     -19.490  -9.446  -5.316  0.00  0.00     0.209 HD
ENDBRANCH  16  17
ENDBRANCH  15  16
BRANCH  15  19
HETATM   19  C           1     -20.284  -8.607  -2.861  0.00  0.00     0.198 C 
HETATM   20  O           1     -19.329  -9.413  -2.857  0.00  0.00    -0.646 OA
HETATM   21  O           1     -20.437  -7.814  -1.906  0.00  0.00    -0.646 OA
ENDBRANCH  15  19
ENDBRANCH  13  15
ENDBRANCH   1  11
BRANCH   1  22
HETATM   22  N           1     -20.082  -4.451  -5.362  0.00  0.00    -0.066 N 
HETATM   23  H           1     -20.443  -3.994  -4.495  0.00  0.00     0.275 HD
HETATM   24  H           1     -19.264  -5.056  -5.123  0.00  0.00     0.275 HD
HETATM   25  H           1     -19.786  -3.718  -6.045  0.00  0.00     0.275 HD
ENDBRANCH   1  22
TORSDOF 9
ENDMDL
MODEL 9
REMARK VINA RESULT:      -5.9      2.257      3.473
REMARK  9 active torsions:
REMARK  status: ('A' for Active; 'I' for Inactive)
REMARK    1  A    between atoms: O_1  and  C_25 
REMARK    2  A    between atoms: C_4  and  C_9 
REMARK    3  A    between atoms: C_4  and  C_5 
REMARK    4  A    between atoms: C_9  and  C_18 
REMARK    5  A    between atoms: C_9  and  N_22 
REMARK    6  A    between atoms: O_10  and  C_11 
REMARK    7  A    between atoms: C_11  and  C_12 
REMARK    8  A    between atoms: C_12  and  C_17 
REMARK    9  A    between atoms: C_12  and  N_24 
REMARK       I    between atoms: C_18  and  N_24 
ROOT
HETATM    1  C           1     -21.464  -6.504  -5.566  0.00  0.00     0.278 C 
ENDROOT
BRANCH   1   2
HETATM    2  C           1     -20.450  -5.522  -6.138  0.00  0.00     0.081 C 
BRANCH   2   3
HETATM    3  C           1     -20.978  -4.948  -7.415  0.00  0.00    -0.056 A 
HETATM    4  C           1     -22.282  -4.457  -7.473  0.00  0.00     0.010 A 
HETATM    5  C           1     -22.773  -3.921  -8.664  0.00  0.00     0.037 A 
HETATM    6  C           1     -21.959  -3.875  -9.796  0.00  0.00     0.065 A 
HETATM    7  C           1     -20.656  -4.365  -9.738  0.00  0.00     0.037 A 
HETATM    8  C           1     -20.164  -4.901  -8.547  0.00  0.00     0.010 A 
BRANCH   6   9
HETATM    9  O           1     -22.437  -3.354 -10.953  0.00  0.00    -0.361 OA
HETATM   10  H           1     -22.826  -4.079 -11.470  0.00  0.00     0.217 HD
ENDBRANCH   6   9
ENDBRANCH   2   3
ENDBRANCH   1   2
BRANCH   1  11
HETATM   11  C           1     -20.829  -7.868  -5.441  0.00  0.00     0.249 C 
HETATM   12  O           1     -21.278  -8.803  -6.060  0.00  0.00    -0.271 OA
HETATM   13  N           1     -19.744  -8.046  -4.625  0.00  0.00    -0.343 N 
HETATM   14  H           1     -19.368  -7.263  -4.106  0.00  0.00     0.163 HD
BRANCH  13  15
HETATM   15  C           1     -19.134  -9.356  -4.504  0.00  0.00     0.209 C 
BRANCH  15  16
HETATM   16  C           1     -18.100  -9.538  -5.607  0.00  0.00     0.200 C 
BRANCH  16  17
HETATM   17  O           1     -18.609 -10.398  -6.589  0.00  0.00    -0.398 OA
HETATM   18  H           1     -18.318 -11.267  -6.371  0.00  0.00     0.209 HD
ENDBRANCH  16  17
ENDBRANCH  15  16
BRANCH  15  19
HETATM   19  C           1     -18.461  -9.473  -3.159  0.00  0.00     0.198 C 
HETATM   20  O           1     -19.147  -9.648  -2.130  0.00  0.00    -0.646 OA
HETATM   21  O           1     -17.215  -9.396  -3.075  0.00  0.00    -0.646 OA
ENDBRANCH  15  19
ENDBRANCH  13  15
ENDBRANCH   1  11
BRANCH   1  22
HETATM   22  N           1     -21.906  -6.033  -4.212  0.00  0.00    -0.066 N 
HETATM   23  H           1     -22.765  -5.447  -4.310  0.00  0.00     0.275 HD
HETATM   24  H           1     -22.116  -6.861  -3.608  0.00  0.00     0.275 HD
HETATM   25  H           1     -21.145  -5.466  -3.775  0.00  0.00     0.275 HD
ENDBRANCH   1  22
TORSDOF 9
ENDMDL
