MODEL 1
REMARK VINA RESULT:      -7.4      0.000      0.000
REMARK  9 active torsions:
REMARK  status: ('A' for Active; 'I' for Inactive)
REMARK    1  A    between atoms: C_2  and  C_16 
REMARK    2  A    between atoms: C_2  and  C_22 
REMARK    3  A    between atoms: N_8  and  C_19 
REMARK    4  A    between atoms: C_12  and  C_21 
REMARK    5  A    between atoms: N_13  and  C_18 
REMARK       I    between atoms: N_13  and  C_20 
REMARK       I    between atoms: C_16  and  N_23 
REMARK    6  A    between atoms: C_18  and  C_22 
REMARK    7  A    between atoms: C_18  and  C_27 
REMARK    8  A    between atoms: C_19  and  C_20 
REMARK    9  A    between atoms: C_19  and  C_21 
ROOT
HETATM    1  H           1     -21.790  -7.893  -5.893  0.00  0.00     0.163 HD
HETATM    2  O           1     -20.682  -5.168  -4.804  0.00  0.00    -0.271 OA
HETATM    3  N           1     -21.268  -7.266  -5.295  0.00  0.00    -0.345 N 
HETATM    4  C           1     -21.305  -5.916  -5.519  0.00  0.00     0.249 C 
ENDROOT
BRANCH   4   5
HETATM    5  C           1     -22.125  -5.362  -6.658  0.00  0.00     0.278 C 
BRANCH   5   6
HETATM    6  N           1     -23.518  -5.077  -6.178  0.00  0.00    -0.066 N 
HETATM    7  H           1     -23.942  -4.327  -6.768  0.00  0.00     0.275 HD
HETATM    8  H           1     -24.094  -5.945  -6.246  0.00  0.00     0.275 HD
HETATM    9  H           1     -23.484  -4.758  -5.183  0.00  0.00     0.275 HD
ENDBRANCH   5   6
BRANCH   5  10
HETATM   10  C           1     -21.489  -4.075  -7.164  0.00  0.00     0.081 C 
BRANCH  10  11
HETATM   11  C           1     -21.457  -4.087  -8.660  0.00  0.00    -0.056 A 
HETATM   12  C           1     -22.609  -3.776  -9.384  0.00  0.00     0.007 A 
HETATM   13  C           1     -22.579  -3.787 -10.779  0.00  0.00     0.001 A 
HETATM   14  C           1     -21.400  -4.111 -11.450  0.00  0.00     0.000 A 
HETATM   15  C           1     -20.250  -4.422 -10.725  0.00  0.00     0.001 A 
HETATM   16  C           1     -20.278  -4.411  -9.331  0.00  0.00     0.007 A 
ENDBRANCH  10  11
ENDBRANCH   5  10
ENDBRANCH   4   5
BRANCH   3  17
HETATM   17  C           1     -20.480  -7.798  -4.199  0.00  0.00     0.186 C 
BRANCH  17  18
HETATM   18  C           1     -21.405  -8.419  -3.161  0.00  0.00     0.045 C 
BRANCH  18  19
HETATM   19  C           1     -21.084  -7.846  -1.787  0.00  0.00     0.105 C 
BRANCH  19  20
HETATM   20  C           1     -22.150  -6.855  -1.391  0.00  0.00     0.215 C 
HETATM   21  O           1     -22.871  -7.086  -0.450  0.00  0.00    -0.274 OA
HETATM   22  N           1     -22.300  -5.693  -2.099  0.00  0.00    -0.370 N 
HETATM   23  H           1     -21.696  -5.499  -2.888  0.00  0.00     0.159 HD
HETATM   24  H           1     -23.015  -5.027  -1.835  0.00  0.00     0.159 HD
ENDBRANCH  19  20
ENDBRANCH  18  19
ENDBRANCH  17  18
BRANCH  17  25
HETATM   25  C           1     -19.536  -8.851  -4.725  0.00  0.00     0.196 C 
HETATM   26  O           1     -19.814  -9.471  -5.774  0.00  0.00    -0.646 OA
HETATM   27  O           1     -18.476  -9.103  -4.113  0.00  0.00    -0.646 OA
ENDBRANCH  17  25
ENDBRANCH   3  17
TORSDOF 9
ENDMDL
MODEL 2
REMARK VINA RESULT:      -7.0      2.904      7.537
REMARK  9 active torsions:
REMARK  status: ('A' for Active; 'I' for Inactive)
REMARK    1  A    between atoms: C_2  and  C_16 
REMARK    2  A    between atoms: C_2  and  C_22 
REMARK    3  A    between atoms: N_8  and  C_19 
REMARK    4  A    between atoms: C_12  and  C_21 
REMARK    5  A    between atoms: N_13  and  C_18 
REMARK       I    between atoms: N_13  and  C_20 
REMARK       I    between atoms: C_16  and  N_23 
REMARK    6  A    between atoms: C_18  and  C_22 
REMARK    7  A    between atoms: C_18  and  C_27 
REMARK    8  A    between atoms: C_19  and  C_20 
REMARK    9  A    between atoms: C_19  and  C_21 
ROOT
HETATM    1  H           1     -21.416  -3.930  -6.413  0.00  0.00     0.163 HD
HETATM    2  O           1     -21.052  -6.977  -7.063  0.00  0.00    -0.271 OA
HETATM    3  N           1     -21.394  -4.772  -6.973  0.00  0.00    -0.345 N 
HETATM    4  C           1     -21.078  -5.972  -6.394  0.00  0.00     0.249 C 
ENDROOT
BRANCH   4   5
HETATM    5  C           1     -20.764  -6.039  -4.919  0.00  0.00     0.278 C 
BRANCH   5   6
HETATM    6  N           1     -20.153  -4.741  -4.480  0.00  0.00    -0.066 N 
HETATM    7  H           1     -20.722  -4.335  -3.704  0.00  0.00     0.275 HD
HETATM    8  H           1     -19.177  -4.911  -4.148  0.00  0.00     0.275 HD
HETATM    9  H           1     -20.137  -4.074  -5.284  0.00  0.00     0.275 HD
ENDBRANCH   5   6
BRANCH   5  10
HETATM   10  C           1     -22.047  -6.286  -4.138  0.00  0.00     0.081 C 
BRANCH  10  11
HETATM   11  C           1     -21.721  -6.958  -2.840  0.00  0.00    -0.056 A 
HETATM   12  C           1     -22.373  -6.568  -1.671  0.00  0.00     0.007 A 
HETATM   13  C           1     -22.069  -7.193  -0.461  0.00  0.00     0.001 A 
HETATM   14  C           1     -21.112  -8.208  -0.421  0.00  0.00     0.000 A 
HETATM   15  C           1     -20.460  -8.597  -1.591  0.00  0.00     0.001 A 
HETATM   16  C           1     -20.764  -7.972  -2.800  0.00  0.00     0.007 A 
ENDBRANCH  10  11
ENDBRANCH   5  10
ENDBRANCH   4   5
BRANCH   3  17
HETATM   17  C           1     -21.696  -4.708  -8.390  0.00  0.00     0.186 C 
BRANCH  17  18
HETATM   18  C           1     -22.726  -3.616  -8.643  0.00  0.00     0.045 C 
BRANCH  18  19
HETATM   19  C           1     -24.035  -4.249  -9.096  0.00  0.00     0.105 C 
BRANCH  19  20
HETATM   20  C           1     -24.208  -4.043 -10.581  0.00  0.00     0.215 C 
HETATM   21  O           1     -25.002  -3.230 -10.990  0.00  0.00    -0.274 OA
HETATM   22  N           1     -23.463  -4.777 -11.464  0.00  0.00    -0.370 N 
HETATM   23  H           1     -22.797  -5.458 -11.121  0.00  0.00     0.159 HD
HETATM   24  H           1     -23.578  -4.640 -12.460  0.00  0.00     0.159 HD
ENDBRANCH  19  20
ENDBRANCH  18  19
ENDBRANCH  17  18
BRANCH  17  25
HETATM   25  C           1     -20.435  -4.396  -9.158  0.00  0.00     0.196 C 
HETATM   26  O           1     -19.431  -3.953  -8.558  0.00  0.00    -0.646 OA
HETATM   27  O           1     -20.392  -4.581 -10.393  0.00  0.00    -0.646 OA
ENDBRANCH  17  25
ENDBRANCH   3  17
TORSDOF 9
ENDMDL
MODEL 3
REMARK VINA RESULT:      -7.0      1.307      1.449
REMARK  9 active torsions:
REMARK  status: ('A' for Active; 'I' for Inactive)
REMARK    1  A    between atoms: C_2  and  C_16 
REMARK    2  A    between atoms: C_2  and  C_22 
REMARK    3  A    between atoms: N_8  and  C_19 
REMARK    4  A    between atoms: C_12  and  C_21 
REMARK    5  A    between atoms: N_13  and  C_18 
REMARK       I    between atoms: N_13  and  C_20 
REMARK       I    between atoms: C_16  and  N_23 
REMARK    6  A    between atoms: C_18  and  C_22 
REMARK    7  A    between atoms: C_18  and  C_27 
REMARK    8  A    between atoms: C_19  and  C_20 
REMARK    9  A    between atoms: C_19  and  C_21 
ROOT
HETATM    1  H           1     -22.523  -7.667  -4.766  0.00  0.00     0.163 HD
HETATM    2  O           1     -19.827  -7.066  -6.252  0.00  0.00    -0.271 OA
HETATM    3  N           1     -21.548  -7.768  -5.014  0.00  0.00    -0.345 N 
HETATM    4  C           1     -20.991  -6.945  -5.957  0.00  0.00     0.249 C 
ENDROOT
BRANCH   4   5
HETATM    5  C           1     -21.833  -5.886  -6.625  0.00  0.00     0.278 C 
BRANCH   5   6
HETATM    6  N           1     -22.899  -5.423  -5.675  0.00  0.00    -0.066 N 
HETATM    7  H           1     -22.947  -4.380  -5.689  0.00  0.00     0.275 HD
HETATM    8  H           1     -23.820  -5.821  -5.966  0.00  0.00     0.275 HD
HETATM    9  H           1     -22.668  -5.747  -4.709  0.00  0.00     0.275 HD
ENDBRANCH   5   6
BRANCH   5  10
HETATM   10  C           1     -20.952  -4.707  -7.013  0.00  0.00     0.081 C 
BRANCH  10  11
HETATM   11  C           1     -21.139  -4.400  -8.466  0.00  0.00    -0.056 A 
HETATM   12  C           1     -22.340  -3.849  -8.914  0.00  0.00     0.007 A 
HETATM   13  C           1     -22.513  -3.563 -10.268  0.00  0.00     0.001 A 
HETATM   14  C           1     -21.487  -3.829 -11.175  0.00  0.00     0.000 A 
HETATM   15  C           1     -20.287  -4.380 -10.727  0.00  0.00     0.001 A 
HETATM   16  C           1     -20.113  -4.666  -9.373  0.00  0.00     0.007 A 
ENDBRANCH  10  11
ENDBRANCH   5  10
ENDBRANCH   4   5
BRANCH   3  17
HETATM   17  C           1     -20.738  -8.785  -4.372  0.00  0.00     0.186 C 
BRANCH  17  18
HETATM   18  C           1     -21.088  -8.856  -2.892  0.00  0.00     0.045 C 
BRANCH  18  19
HETATM   19  C           1     -20.721  -7.540  -2.219  0.00  0.00     0.105 C 
BRANCH  19  20
HETATM   20  C           1     -21.980  -6.797  -1.844  0.00  0.00     0.215 C 
HETATM   21  O           1     -22.460  -5.996  -2.610  0.00  0.00    -0.274 OA
HETATM   22  N           1     -22.577  -7.031  -0.635  0.00  0.00    -0.370 N 
HETATM   23  H           1     -22.174  -7.702   0.007  0.00  0.00     0.159 HD
HETATM   24  H           1     -23.421  -6.534  -0.382  0.00  0.00     0.159 HD
ENDBRANCH  19  20
ENDBRANCH  18  19
ENDBRANCH  17  18
BRANCH  17  25
HETATM   25  C           1     -21.008 -10.122  -5.016  0.00  0.00     0.196 C 
HETATM   26  O           1     -21.861 -10.892  -4.523  0.00  0.00    -0.646 OA
HETATM   27  O           1     -20.381 -10.461  -6.043  0.00  0.00    -0.646 OA
ENDBRANCH  17  25
ENDBRANCH   3  17
TORSDOF 9
ENDMDL
MODEL 4
REMARK VINA RESULT:      -6.6      1.696      3.177
REMARK  9 active torsions:
REMARK  status: ('A' for Active; 'I' for Inactive)
REMARK    1  A    between atoms: C_2  and  C_16 
REMARK    2  A    between atoms: C_2  and  C_22 
REMARK    3  A    between atoms: N_8  and  C_19 
REMARK    4  A    between atoms: C_12  and  C_21 
REMARK    5  A    between atoms: N_13  and  C_18 
REMARK       I    between atoms: N_13  and  C_20 
REMARK       I    between atoms: C_16  and  N_23 
REMARK    6  A    between atoms: C_18  and  C_22 
REMARK    7  A    between atoms: C_18  and  C_27 
REMARK    8  A    between atoms: C_19  and  C_20 
REMARK    9  A    between atoms: C_19  and  C_21 
ROOT
HETATM    1  H           1     -20.010  -6.656  -4.670  0.00  0.00     0.163 HD
HETATM    2  O           1     -22.907  -5.802  -5.519  0.00  0.00    -0.271 OA
HETATM    3  N           1     -21.021  -6.651  -4.674  0.00  0.00    -0.345 N 
HETATM    4  C           1     -21.699  -5.807  -5.514  0.00  0.00     0.249 C 
ENDROOT
BRANCH   4   5
HETATM    5  C           1     -20.937  -4.886  -6.434  0.00  0.00     0.278 C 
BRANCH   5   6
HETATM    6  N           1     -19.689  -4.414  -5.747  0.00  0.00    -0.066 N 
HETATM    7  H           1     -19.493  -5.027  -4.924  0.00  0.00     0.275 HD
HETATM    8  H           1     -18.887  -4.457  -6.414  0.00  0.00     0.275 HD
HETATM    9  H           1     -19.822  -3.430  -5.422  0.00  0.00     0.275 HD
ENDBRANCH   5   6
BRANCH   5  10
HETATM   10  C           1     -20.563  -5.634  -7.706  0.00  0.00     0.081 C 
BRANCH  10  11
HETATM   11  C           1     -20.983  -4.833  -8.899  0.00  0.00    -0.056 A 
HETATM   12  C           1     -22.275  -4.312  -8.969  0.00  0.00     0.007 A 
HETATM   13  C           1     -22.667  -3.566 -10.081  0.00  0.00     0.001 A 
HETATM   14  C           1     -21.767  -3.342 -11.123  0.00  0.00     0.000 A 
HETATM   15  C           1     -20.475  -3.863 -11.052  0.00  0.00     0.001 A 
HETATM   16  C           1     -20.083  -4.609  -9.941  0.00  0.00     0.007 A 
ENDBRANCH  10  11
ENDBRANCH   5  10
ENDBRANCH   4   5
BRANCH   3  17
HETATM   17  C           1     -21.755  -7.537  -3.791  0.00  0.00     0.186 C 
BRANCH  17  18
HETATM   18  C           1     -21.150  -8.933  -3.852  0.00  0.00     0.045 C 
BRANCH  18  19
HETATM   19  C           1     -19.903  -8.908  -4.726  0.00  0.00     0.105 C 
BRANCH  19  20
HETATM   20  C           1     -18.738  -9.484  -3.959  0.00  0.00     0.215 C 
HETATM   21  O           1     -17.933 -10.188  -4.520  0.00  0.00    -0.274 OA
HETATM   22  N           1     -18.593  -9.206  -2.627  0.00  0.00    -0.370 N 
HETATM   23  H           1     -19.267  -8.616  -2.156  0.00  0.00     0.159 HD
HETATM   24  H           1     -17.811  -9.592  -2.111  0.00  0.00     0.159 HD
ENDBRANCH  19  20
ENDBRANCH  18  19
ENDBRANCH  17  18
BRANCH  17  25
HETATM   25  C           1     -21.673  -7.015  -2.377  0.00  0.00     0.196 C 
HETATM   26  O           1     -20.923  -7.573  -1.547  0.00  0.00    -0.646 OA
HETATM   27  O           1     -22.354  -6.025  -2.035  0.00  0.00    -0.646 OA
ENDBRANCH  17  25
ENDBRANCH   3  17
TORSDOF 9
ENDMDL
MODEL 5
REMARK VINA RESULT:      -6.4      1.696      2.328
REMARK  9 active torsions:
REMARK  status: ('A' for Active; 'I' for Inactive)
REMARK    1  A    between atoms: C_2  and  C_16 
REMARK    2  A    between atoms: C_2  and  C_22 
REMARK    3  A    between atoms: N_8  and  C_19 
REMARK    4  A    between atoms: C_12  and  C_21 
REMARK    5  A    between atoms: N_13  and  C_18 
REMARK       I    between atoms: N_13  and  C_20 
REMARK       I    between atoms: C_16  and  N_23 
REMARK    6  A    between atoms: C_18  and  C_22 
REMARK    7  A    between atoms: C_18  and  C_27 
REMARK    8  A    between atoms: C_19  and  C_20 
REMARK    9  A    between atoms: C_19  and  C_21 
ROOT
HETATM    1  H           1     -21.886  -6.440  -6.340  0.00  0.00     0.163 HD
HETATM    2  O           1     -19.666  -4.471  -5.324  0.00  0.00    -0.271 OA
HETATM    3  N           1     -21.192  -6.054  -5.714  0.00  0.00    -0.345 N 
HETATM    4  C           1     -20.495  -4.931  -6.073  0.00  0.00     0.249 C 
ENDROOT
BRANCH   4   5
HETATM    5  C           1     -20.764  -4.268  -7.401  0.00  0.00     0.278 C 
BRANCH   5   6
HETATM    6  N           1     -19.482  -3.715  -7.951  0.00  0.00    -0.066 N 
HETATM    7  H           1     -19.440  -2.688  -7.769  0.00  0.00     0.275 HD
HETATM    8  H           1     -18.673  -4.187  -7.488  0.00  0.00     0.275 HD
HETATM    9  H           1     -19.443  -3.887  -8.982  0.00  0.00     0.275 HD
ENDBRANCH   5   6
BRANCH   5  10
HETATM   10  C           1     -21.334  -5.292  -8.373  0.00  0.00     0.081 C 
BRANCH  10  11
HETATM   11  C           1     -22.451  -4.672  -9.153  0.00  0.00    -0.056 A 
HETATM   12  C           1     -22.471  -4.776 -10.545  0.00  0.00     0.007 A 
HETATM   13  C           1     -23.512  -4.198 -11.272  0.00  0.00     0.001 A 
HETATM   14  C           1     -24.532  -3.517 -10.609  0.00  0.00     0.000 A 
HETATM   15  C           1     -24.512  -3.414  -9.218  0.00  0.00     0.001 A 
HETATM   16  C           1     -23.472  -3.991  -8.491  0.00  0.00     0.007 A 
ENDBRANCH  10  11
ENDBRANCH   5  10
ENDBRANCH   4   5
BRANCH   3  17
HETATM   17  C           1     -20.933  -6.691  -4.437  0.00  0.00     0.186 C 
BRANCH  17  18
HETATM   18  C           1     -22.207  -6.694  -3.602  0.00  0.00     0.045 C 
BRANCH  18  19
HETATM   19  C           1     -21.921  -6.080  -2.238  0.00  0.00     0.105 C 
BRANCH  19  20
HETATM   20  C           1     -22.029  -7.145  -1.173  0.00  0.00     0.215 C 
HETATM   21  O           1     -22.984  -7.165  -0.434  0.00  0.00    -0.274 OA
HETATM   22  N           1     -21.046  -8.088  -1.048  0.00  0.00    -0.370 N 
HETATM   23  H           1     -20.245  -8.071  -1.668  0.00  0.00     0.159 HD
HETATM   24  H           1     -21.117  -8.803  -0.335  0.00  0.00     0.159 HD
ENDBRANCH  19  20
ENDBRANCH  18  19
ENDBRANCH  17  18
BRANCH  17  25
HETATM   25  C           1     -20.480  -8.112  -4.667  0.00  0.00     0.196 C 
HETATM   26  O           1     -19.764  -8.684  -3.817  0.00  0.00    -0.646 OA
HETATM   27  O           1     -20.821  -8.717  -5.705  0.00  0.00    -0.646 OA
ENDBRANCH  17  25
ENDBRANCH   3  17
TORSDOF 9
ENDMDL
MODEL 6
REMARK VINA RESULT:      -6.3      1.551      2.004
REMARK  9 active torsions:
REMARK  status: ('A' for Active; 'I' for Inactive)
REMARK    1  A    between atoms: C_2  and  C_16 
REMARK    2  A    between atoms: C_2  and  C_22 
REMARK    3  A    between atoms: N_8  and  C_19 
REMARK    4  A    between atoms: C_12  and  C_21 
REMARK    5  A    between atoms: N_13  and  C_18 
REMARK       I    between atoms: N_13  and  C_20 
REMARK       I    between atoms: C_16  and  N_23 
REMARK    6  A    between atoms: C_18  and  C_22 
REMARK    7  A    between atoms: C_18  and  C_27 
REMARK    8  A    between atoms: C_19  and  C_20 
REMARK    9  A    between atoms: C_19  and  C_21 
ROOT
HETATM    1  H           1     -21.503  -7.792  -4.129  0.00  0.00     0.163 HD
HETATM    2  O           1     -19.516  -7.188  -6.481  0.00  0.00    -0.271 OA
HETATM    3  N           1     -20.668  -7.873  -4.694  0.00  0.00    -0.345 N 
HETATM    4  C           1     -20.514  -7.091  -5.807  0.00  0.00     0.249 C 
ENDROOT
BRANCH   4   5
HETATM    5  C           1     -21.590  -6.105  -6.190  0.00  0.00     0.278 C 
BRANCH   5   6
HETATM    6  N           1     -22.541  -5.932  -5.042  0.00  0.00    -0.066 N 
HETATM    7  H           1     -22.019  -5.579  -4.209  0.00  0.00     0.275 HD
HETATM    8  H           1     -23.285  -5.248  -5.307  0.00  0.00     0.275 HD
HETATM    9  H           1     -22.980  -6.853  -4.813  0.00  0.00     0.275 HD
ENDBRANCH   5   6
BRANCH   5  10
HETATM   10  C           1     -20.954  -4.764  -6.528  0.00  0.00     0.081 C 
BRANCH  10  11
HETATM   11  C           1     -21.200  -4.441  -7.969  0.00  0.00    -0.056 A 
HETATM   12  C           1     -20.161  -4.547  -8.894  0.00  0.00     0.007 A 
HETATM   13  C           1     -20.390  -4.246 -10.236  0.00  0.00     0.001 A 
HETATM   14  C           1     -21.657  -3.839 -10.654  0.00  0.00     0.000 A 
HETATM   15  C           1     -22.695  -3.734  -9.729  0.00  0.00     0.001 A 
HETATM   16  C           1     -22.467  -4.035  -8.386  0.00  0.00     0.007 A 
ENDBRANCH  10  11
ENDBRANCH   5  10
ENDBRANCH   4   5
BRANCH   3  17
HETATM   17  C           1     -19.633  -8.820  -4.325  0.00  0.00     0.186 C 
BRANCH  17  18
HETATM   18  C           1     -19.559  -8.930  -2.808  0.00  0.00     0.045 C 
BRANCH  18  19
HETATM   19  C           1     -20.499  -7.910  -2.179  0.00  0.00     0.105 C 
BRANCH  19  20
HETATM   20  C           1     -21.402  -8.601  -1.187  0.00  0.00     0.215 C 
HETATM   21  O           1     -22.033  -9.575  -1.521  0.00  0.00    -0.274 OA
HETATM   22  N           1     -21.505  -8.123   0.091  0.00  0.00    -0.370 N 
HETATM   23  H           1     -20.976  -7.307   0.371  0.00  0.00     0.159 HD
HETATM   24  H           1     -22.111  -8.586   0.757  0.00  0.00     0.159 HD
ENDBRANCH  19  20
ENDBRANCH  18  19
ENDBRANCH  17  18
BRANCH  17  25
HETATM   25  C           1     -19.959 -10.172  -4.911  0.00  0.00     0.196 C 
HETATM   26  O           1     -19.448 -10.522  -5.997  0.00  0.00    -0.646 OA
HETATM   27  O           1     -20.739 -10.943  -4.312  0.00  0.00    -0.646 OA
ENDBRANCH  17  25
ENDBRANCH   3  17
TORSDOF 9
ENDMDL
MODEL 7
REMARK VINA RESULT:      -6.3      1.501      2.107
REMARK  9 active torsions:
REMARK  status: ('A' for Active; 'I' for Inactive)
REMARK    1  A    between atoms: C_2  and  C_16 
REMARK    2  A    between atoms: C_2  and  C_22 
REMARK    3  A    between atoms: N_8  and  C_19 
REMARK    4  A    between atoms: C_12  and  C_21 
REMARK    5  A    between atoms: N_13  and  C_18 
REMARK       I    between atoms: N_13  and  C_20 
REMARK       I    between atoms: C_16  and  N_23 
REMARK    6  A    between atoms: C_18  and  C_22 
REMARK    7  A    between atoms: C_18  and  C_27 
REMARK    8  A    between atoms: C_19  and  C_20 
REMARK    9  A    between atoms: C_19  and  C_21 
ROOT
HETATM    1  H           1     -20.621  -8.676  -4.856  0.00  0.00     0.163 HD
HETATM    2  O           1     -21.064  -6.118  -3.095  0.00  0.00    -0.271 OA
HETATM    3  N           1     -20.606  -8.095  -4.029  0.00  0.00    -0.345 N 
HETATM    4  C           1     -21.082  -6.811  -4.084  0.00  0.00     0.249 C 
ENDROOT
BRANCH   4   5
HETATM    5  C           1     -21.629  -6.265  -5.379  0.00  0.00     0.278 C 
BRANCH   5   6
HETATM    6  N           1     -23.107  -6.043  -5.242  0.00  0.00    -0.066 N 
HETATM    7  H           1     -23.279  -5.235  -4.603  0.00  0.00     0.275 HD
HETATM    8  H           1     -23.517  -5.842  -6.182  0.00  0.00     0.275 HD
HETATM    9  H           1     -23.552  -6.902  -4.844  0.00  0.00     0.275 HD
ENDBRANCH   5   6
BRANCH   5  10
HETATM   10  C           1     -20.946  -4.943  -5.702  0.00  0.00     0.081 C 
BRANCH  10  11
HETATM   11  C           1     -21.045  -4.675  -7.171  0.00  0.00    -0.056 A 
HETATM   12  C           1     -19.997  -5.035  -8.018  0.00  0.00     0.007 A 
HETATM   13  C           1     -20.089  -4.785  -9.387  0.00  0.00     0.001 A 
HETATM   14  C           1     -21.228  -4.174  -9.910  0.00  0.00     0.000 A 
HETATM   15  C           1     -22.276  -3.814  -9.063  0.00  0.00     0.001 A 
HETATM   16  C           1     -22.185  -4.063  -7.694  0.00  0.00     0.007 A 
ENDBRANCH  10  11
ENDBRANCH   5  10
ENDBRANCH   4   5
BRANCH   3  17
HETATM   17  C           1     -20.081  -8.619  -2.783  0.00  0.00     0.186 C 
BRANCH  17  18
HETATM   18  C           1     -21.173  -9.389  -2.053  0.00  0.00     0.045 C 
BRANCH  18  19
HETATM   19  C           1     -21.175  -8.998  -0.582  0.00  0.00     0.105 C 
BRANCH  19  20
HETATM   20  C           1     -22.404  -8.177  -0.279  0.00  0.00     0.215 C 
HETATM   21  O           1     -23.315  -8.661   0.349  0.00  0.00    -0.274 OA
HETATM   22  N           1     -22.486  -6.882  -0.717  0.00  0.00    -0.370 N 
HETATM   23  H           1     -21.723  -6.476  -1.244  0.00  0.00     0.159 HD
HETATM   24  H           1     -23.311  -6.331  -0.515  0.00  0.00     0.159 HD
ENDBRANCH  19  20
ENDBRANCH  18  19
ENDBRANCH  17  18
BRANCH  17  25
HETATM   25  C           1     -18.925  -9.544  -3.076  0.00  0.00     0.196 C 
HETATM   26  O           1     -17.763  -9.215  -2.751  0.00  0.00    -0.646 OA
HETATM   27  O           1     -19.127 -10.639  -3.644  0.00  0.00    -0.646 OA
ENDBRANCH  17  25
ENDBRANCH   3  17
TORSDOF 9
ENDMDL
MODEL 8
REMARK VINA RESULT:      -6.2      2.228      4.261
REMARK  9 active torsions:
REMARK  status: ('A' for Active; 'I' for Inactive)
REMARK    1  A    between atoms: C_2  and  C_16 
REMARK    2  A    between atoms: C_2  and  C_22 
REMARK    3  A    between atoms: N_8  and  C_19 
REMARK    4  A    between atoms: C_12  and  C_21 
REMARK    5  A    between atoms: N_13  and  C_18 
REMARK       I    between atoms: N_13  and  C_20 
REMARK       I    between atoms: C_16  and  N_23 
REMARK    6  A    between atoms: C_18  and  C_22 
REMARK    7  A    between atoms: C_18  and  C_27 
REMARK    8  A    between atoms: C_19  and  C_20 
REMARK    9  A    between atoms: C_19  and  C_21 
ROOT
HETATM    1  H           1     -19.928  -7.699  -3.363  0.00  0.00     0.163 HD
HETATM    2  O           1     -21.288  -8.168  -6.150  0.00  0.00    -0.271 OA
HETATM    3  N           1     -20.177  -8.187  -4.213  0.00  0.00    -0.345 N 
HETATM    4  C           1     -20.991  -7.585  -5.135  0.00  0.00     0.249 C 
ENDROOT
BRANCH   4   5
HETATM    5  C           1     -21.515  -6.192  -4.885  0.00  0.00     0.278 C 
BRANCH   5   6
HETATM    6  N           1     -21.745  -6.003  -3.414  0.00  0.00    -0.066 N 
HETATM    7  H           1     -20.882  -6.269  -2.890  0.00  0.00     0.275 HD
HETATM    8  H           1     -21.977  -5.002  -3.224  0.00  0.00     0.275 HD
HETATM    9  H           1     -22.539  -6.609  -3.106  0.00  0.00     0.275 HD
ENDBRANCH   5   6
BRANCH   5  10
HETATM   10  C           1     -20.497  -5.171  -5.374  0.00  0.00     0.081 C 
BRANCH  10  11
HETATM   11  C           1     -20.797  -4.807  -6.795  0.00  0.00    -0.056 A 
HETATM   12  C           1     -19.770  -4.778  -7.738  0.00  0.00     0.007 A 
HETATM   13  C           1     -20.049  -4.439  -9.062  0.00  0.00     0.001 A 
HETATM   14  C           1     -21.354  -4.128  -9.443  0.00  0.00     0.000 A 
HETATM   15  C           1     -22.381  -4.157  -8.499  0.00  0.00     0.001 A 
HETATM   16  C           1     -22.102  -4.496  -7.175  0.00  0.00     0.007 A 
ENDBRANCH  10  11
ENDBRANCH   5  10
ENDBRANCH   4   5
BRANCH   3  17
HETATM   17  C           1     -19.673  -9.525  -4.455  0.00  0.00     0.186 C 
BRANCH  17  18
HETATM   18  C           1     -18.154  -9.488  -4.553  0.00  0.00     0.045 C 
BRANCH  18  19
HETATM   19  C           1     -17.732  -9.738  -5.995  0.00  0.00     0.105 C 
BRANCH  19  20
HETATM   20  C           1     -18.100 -11.147  -6.391  0.00  0.00     0.215 C 
HETATM   21  O           1     -18.783 -11.341  -7.368  0.00  0.00    -0.274 OA
HETATM   22  N           1     -17.658 -12.204  -5.643  0.00  0.00    -0.370 N 
HETATM   23  H           1     -17.086 -12.042  -4.824  0.00  0.00     0.159 HD
HETATM   24  H           1     -17.904 -13.150  -5.908  0.00  0.00     0.159 HD
ENDBRANCH  19  20
ENDBRANCH  18  19
ENDBRANCH  17  18
BRANCH  17  25
HETATM   25  C           1     -20.081 -10.428  -3.316  0.00  0.00     0.196 C 
HETATM   26  O           1     -20.750  -9.970  -2.365  0.00  0.00    -0.646 OA
HETATM   27  O           1     -19.751 -11.633  -3.324  0.00  0.00    -0.646 OA
ENDBRANCH  17  25
ENDBRANCH   3  17
TORSDOF 9
ENDMDL
MODEL 9
REMARK VINA RESULT:      -6.1     18.178     19.618
REMARK  9 active torsions:
REMARK  status: ('A' for Active; 'I' for Inactive)
REMARK    1  A    between atoms: C_2  and  C_16 
REMARK    2  A    between atoms: C_2  and  C_22 
REMARK    3  A    between atoms: N_8  and  C_19 
REMARK    4  A    between atoms: C_12  and  C_21 
REMARK    5  A    between atoms: N_13  and  C_18 
REMARK       I    between atoms: N_13  and  C_20 
REMARK       I    between atoms: C_16  and  N_23 
REMARK    6  A    between atoms: C_18  and  C_22 
REMARK    7  A    between atoms: C_18  and  C_27 
REMARK    8  A    between atoms: C_19  and  C_20 
REMARK    9  A    between atoms: C_19  and  C_21 
ROOT
HETATM    1  H           1     -17.471   8.185   5.064  0.00  0.00     0.163 HD
HETATM    2  O           1     -16.389  11.128   4.953  0.00  0.00    -0.271 OA
HETATM    3  N           1     -17.491   9.185   4.914  0.00  0.00    -0.345 N 
HETATM    4  C           1     -16.365   9.934   5.132  0.00  0.00     0.249 C 
ENDROOT
BRANCH   4   5
HETATM    5  C           1     -15.093   9.265   5.593  0.00  0.00     0.278 C 
BRANCH   5   6
HETATM    6  N           1     -15.245   8.836   7.023  0.00  0.00    -0.066 N 
HETATM    7  H           1     -15.494   9.664   7.610  0.00  0.00     0.275 HD
HETATM    8  H           1     -16.001   8.118   7.092  0.00  0.00     0.275 HD
HETATM    9  H           1     -14.344   8.429   7.362  0.00  0.00     0.275 HD
ENDBRANCH   5   6
BRANCH   5  10
HETATM   10  C           1     -14.816   8.047   4.725  0.00  0.00     0.081 C 
BRANCH  10  11
HETATM   11  C           1     -14.328   8.490   3.381  0.00  0.00    -0.056 A 
HETATM   12  C           1     -13.350   9.481   3.287  0.00  0.00     0.007 A 
HETATM   13  C           1     -12.895   9.895   2.035  0.00  0.00     0.001 A 
HETATM   14  C           1     -13.418   9.320   0.877  0.00  0.00     0.000 A 
HETATM   15  C           1     -14.396   8.330   0.972  0.00  0.00     0.001 A 
HETATM   16  C           1     -14.851   7.915   2.223  0.00  0.00     0.007 A 
ENDBRANCH  10  11
ENDBRANCH   5  10
ENDBRANCH   4   5
BRANCH   3  17
HETATM   17  C           1     -18.713   9.829   4.470  0.00  0.00     0.186 C 
BRANCH  17  18
HETATM   18  C           1     -19.187   9.183   3.175  0.00  0.00     0.045 C 
BRANCH  18  19
HETATM   19  C           1     -18.035   9.138   2.179  0.00  0.00     0.105 C 
BRANCH  19  20
HETATM   20  C           1     -17.823  10.511   1.590  0.00  0.00     0.215 C 
HETATM   21  O           1     -18.712  11.048   0.974  0.00  0.00    -0.274 OA
HETATM   22  N           1     -16.623  11.148   1.755  0.00  0.00    -0.370 N 
HETATM   23  H           1     -15.878  10.698   2.272  0.00  0.00     0.159 HD
HETATM   24  H           1     -16.480  12.069   1.360  0.00  0.00     0.159 HD
ENDBRANCH  19  20
ENDBRANCH  18  19
ENDBRANCH  17  18
BRANCH  17  25
HETATM   25  C           1     -19.777   9.669   5.529  0.00  0.00     0.196 C 
HETATM   26  O           1     -19.803  10.444   6.509  0.00  0.00    -0.646 OA
HETATM   27  O           1     -20.632   8.764   5.426  0.00  0.00    -0.646 OA
ENDBRANCH  17  25
ENDBRANCH   3  17
TORSDOF 9
ENDMDL
