MODEL 1
REMARK VINA RESULT:      -7.2      0.000      0.000
REMARK  8 active torsions:
REMARK  status: ('A' for Active; 'I' for Inactive)
REMARK    1  A    between atoms: N_1  and  C_17 
REMARK       I    between atoms: N_2  and  C_15 
REMARK       I    between atoms: N_3  and  C_15 
REMARK    2  A    between atoms: N_3  and  C_19 
REMARK    3  A    between atoms: C_8  and  C_19 
REMARK    4  A    between atoms: C_8  and  C_9 
REMARK    5  A    between atoms: C_9  and  C_16 
REMARK    6  A    between atoms: C_16  and  C_25 
REMARK    7  A    between atoms: C_16  and  N_22 
REMARK    8  A    between atoms: C_17  and  C_20 
REMARK       I    between atoms: C_20  and  N_22 
ROOT
HETATM    1  C           1     -27.856  -5.953 -16.817  0.00  0.00     0.185 C 
ENDROOT
BRANCH   1   2
HETATM    2  C           1     -28.938  -5.985 -17.889  0.00  0.00     0.038 C 
BRANCH   2   3
HETATM    3  C           1     -29.102  -4.594 -18.488  0.00  0.00     0.023 C 
BRANCH   3   4
HETATM    4  C           1     -29.643  -3.645 -17.428  0.00  0.00     0.138 C 
BRANCH   4   5
HETATM    5  N           1     -30.989  -3.194 -17.812  0.00  0.00    -0.227 N 
HETATM    6  C           1     -32.006  -3.668 -17.228  0.00  0.00     0.665 C 
HETATM    7  N           1     -31.865  -4.530 -16.312  0.00  0.00    -0.235 N 
HETATM    8  N           1     -33.196  -3.270 -17.569  0.00  0.00    -0.235 N 
HETATM    9  H           1     -30.904  -4.852 -16.037  0.00  0.00     0.174 HD
HETATM   10  H           1     -32.710  -4.924 -15.827  0.00  0.00     0.174 HD
HETATM   11  H           1     -33.312  -2.558 -18.325  0.00  0.00     0.174 HD
HETATM   12  H           1     -34.036  -3.662 -17.086  0.00  0.00     0.174 HD
HETATM   13  H           1     -31.105  -2.478 -18.573  0.00  0.00     0.177 HD
ENDBRANCH   4   5
ENDBRANCH   3   4
ENDBRANCH   2   3
ENDBRANCH   1   2
BRANCH   1  14
HETATM   14  C           1     -28.412  -6.495 -15.523  0.00  0.00     0.196 C 
HETATM   15  O           1     -27.959  -7.557 -15.045  0.00  0.00    -0.646 OA
HETATM   16  O           1     -29.326  -5.882 -14.930  0.00  0.00    -0.646 OA
ENDBRANCH   1  14
BRANCH   1  17
HETATM   17  N           1     -26.735  -6.769 -17.240  0.00  0.00    -0.345 N 
HETATM   18  H           1     -26.879  -7.531 -17.890  0.00  0.00     0.163 HD
HETATM   19  C           1     -25.479  -6.507 -16.760  0.00  0.00     0.243 C 
HETATM   20  O           1     -25.306  -5.598 -15.984  0.00  0.00    -0.272 OA
BRANCH  19  21
HETATM   21  C           1     -24.311  -7.356 -17.199  0.00  0.00     0.332 C 
BRANCH  21  22
HETATM   22  N           1     -24.277  -7.425 -18.697  0.00  0.00    -0.071 N 
HETATM   23  H           1     -24.642  -6.530 -19.095  0.00  0.00     0.274 HD
HETATM   24  H           1     -23.294  -7.572 -19.017  0.00  0.00     0.274 HD
HETATM   25  H           1     -24.873  -8.219 -19.023  0.00  0.00     0.274 HD
ENDBRANCH  21  22
ENDBRANCH  19  21
ENDBRANCH   1  17
TORSDOF 8
ENDMDL
MODEL 2
REMARK VINA RESULT:      -6.9      1.665      2.126
REMARK  8 active torsions:
REMARK  status: ('A' for Active; 'I' for Inactive)
REMARK    1  A    between atoms: N_1  and  C_17 
REMARK       I    between atoms: N_2  and  C_15 
REMARK       I    between atoms: N_3  and  C_15 
REMARK    2  A    between atoms: N_3  and  C_19 
REMARK    3  A    between atoms: C_8  and  C_19 
REMARK    4  A    between atoms: C_8  and  C_9 
REMARK    5  A    between atoms: C_9  and  C_16 
REMARK    6  A    between atoms: C_16  and  C_25 
REMARK    7  A    between atoms: C_16  and  N_22 
REMARK    8  A    between atoms: C_17  and  C_20 
REMARK       I    between atoms: C_20  and  N_22 
ROOT
HETATM    1  C           1     -26.282  -6.000 -17.002  0.00  0.00     0.185 C 
ENDROOT
BRANCH   1   2
HETATM    2  C           1     -27.546  -5.154 -16.923  0.00  0.00     0.038 C 
BRANCH   2   3
HETATM    3  C           1     -28.413  -5.417 -18.147  0.00  0.00     0.023 C 
BRANCH   3   4
HETATM    4  C           1     -29.591  -4.452 -18.153  0.00  0.00     0.138 C 
BRANCH   4   5
HETATM    5  N           1     -30.582  -4.880 -17.155  0.00  0.00    -0.227 N 
HETATM    6  C           1     -31.630  -4.195 -16.969  0.00  0.00     0.665 C 
HETATM    7  N           1     -31.824  -3.141 -17.642  0.00  0.00    -0.235 N 
HETATM    8  N           1     -32.506  -4.574 -16.087  0.00  0.00    -0.235 N 
HETATM    9  H           1     -31.116  -2.835 -18.355  0.00  0.00     0.174 HD
HETATM   10  H           1     -32.694  -2.572 -17.488  0.00  0.00     0.174 HD
HETATM   11  H           1     -32.346  -5.444 -15.531  0.00  0.00     0.174 HD
HETATM   12  H           1     -33.371  -4.008 -15.934  0.00  0.00     0.174 HD
HETATM   13  H           1     -30.421  -5.755 -16.597  0.00  0.00     0.177 HD
ENDBRANCH   4   5
ENDBRANCH   3   4
ENDBRANCH   2   3
ENDBRANCH   1   2
BRANCH   1  14
HETATM   14  C           1     -26.292  -7.025 -15.894  0.00  0.00     0.196 C 
HETATM   15  O           1     -25.212  -7.469 -15.445  0.00  0.00    -0.646 OA
HETATM   16  O           1     -27.377  -7.431 -15.427  0.00  0.00    -0.646 OA
ENDBRANCH   1  14
BRANCH   1  17
HETATM   17  N           1     -26.233  -6.675 -18.284  0.00  0.00    -0.345 N 
HETATM   18  H           1     -27.089  -6.985 -18.726  0.00  0.00     0.163 HD
HETATM   19  C           1     -25.028  -6.891 -18.898  0.00  0.00     0.243 C 
HETATM   20  O           1     -24.007  -6.521 -18.370  0.00  0.00    -0.272 OA
BRANCH  19  21
HETATM   21  C           1     -24.976  -7.594 -20.233  0.00  0.00     0.332 C 
BRANCH  21  22
HETATM   22  N           1     -26.370  -7.931 -20.675  0.00  0.00    -0.071 N 
HETATM   23  H           1     -27.011  -7.910 -19.851  0.00  0.00     0.274 HD
HETATM   24  H           1     -26.689  -7.233 -21.383  0.00  0.00     0.274 HD
HETATM   25  H           1     -26.379  -8.886 -21.098  0.00  0.00     0.274 HD
ENDBRANCH  21  22
ENDBRANCH  19  21
ENDBRANCH   1  17
TORSDOF 8
ENDMDL
MODEL 3
REMARK VINA RESULT:      -5.8      2.616      5.767
REMARK  8 active torsions:
REMARK  status: ('A' for Active; 'I' for Inactive)
REMARK    1  A    between atoms: N_1  and  C_17 
REMARK       I    between atoms: N_2  and  C_15 
REMARK       I    between atoms: N_3  and  C_15 
REMARK    2  A    between atoms: N_3  and  C_19 
REMARK    3  A    between atoms: C_8  and  C_19 
REMARK    4  A    between atoms: C_8  and  C_9 
REMARK    5  A    between atoms: C_9  and  C_16 
REMARK    6  A    between atoms: C_16  and  C_25 
REMARK    7  A    between atoms: C_16  and  N_22 
REMARK    8  A    between atoms: C_17  and  C_20 
REMARK       I    between atoms: C_20  and  N_22 
ROOT
HETATM    1  C           1     -29.365  -5.266 -16.544  0.00  0.00     0.185 C 
ENDROOT
BRANCH   1   2
HETATM    2  C           1     -27.981  -5.275 -15.909  0.00  0.00     0.038 C 
BRANCH   2   3
HETATM    3  C           1     -27.539  -6.712 -15.670  0.00  0.00     0.023 C 
BRANCH   3   4
HETATM    4  C           1     -26.025  -6.808 -15.803  0.00  0.00     0.138 C 
BRANCH   4   5
HETATM    5  N           1     -25.659  -6.869 -17.225  0.00  0.00    -0.227 N 
HETATM    6  C           1     -24.529  -7.325 -17.569  0.00  0.00     0.665 C 
HETATM    7  N           1     -23.715  -7.727 -16.687  0.00  0.00    -0.235 N 
HETATM    8  N           1     -24.205  -7.380 -18.826  0.00  0.00    -0.235 N 
HETATM    9  H           1     -23.976  -7.683 -15.671  0.00  0.00     0.174 HD
HETATM   10  H           1     -22.777  -8.105 -16.972  0.00  0.00     0.174 HD
HETATM   11  H           1     -24.878  -7.048 -19.553  0.00  0.00     0.174 HD
HETATM   12  H           1     -23.273  -7.756 -19.109  0.00  0.00     0.174 HD
HETATM   13  H           1     -26.335  -6.536 -17.956  0.00  0.00     0.177 HD
ENDBRANCH   4   5
ENDBRANCH   3   4
ENDBRANCH   2   3
ENDBRANCH   1   2
BRANCH   1  14
HETATM   14  C           1     -29.649  -3.898 -17.116  0.00  0.00     0.196 C 
HETATM   15  O           1     -28.706  -3.177 -17.508  0.00  0.00    -0.646 OA
HETATM   16  O           1     -30.826  -3.487 -17.198  0.00  0.00    -0.646 OA
ENDBRANCH   1  14
BRANCH   1  17
HETATM   17  N           1     -29.416  -6.253 -17.604  0.00  0.00    -0.345 N 
HETATM   18  H           1     -28.602  -6.418 -18.181  0.00  0.00     0.163 HD
HETATM   19  C           1     -30.567  -6.964 -17.822  0.00  0.00     0.243 C 
HETATM   20  O           1     -31.539  -6.767 -17.133  0.00  0.00    -0.272 OA
BRANCH  19  21
HETATM   21  C           1     -30.620  -7.992 -18.927  0.00  0.00     0.332 C 
BRANCH  21  22
HETATM   22  N           1     -29.259  -8.590 -19.120  0.00  0.00    -0.071 N 
HETATM   23  H           1     -29.337  -9.631 -19.151  0.00  0.00     0.274 HD
HETATM   24  H           1     -28.850  -8.245 -20.017  0.00  0.00     0.274 HD
HETATM   25  H           1     -28.640  -8.312 -18.325  0.00  0.00     0.274 HD
ENDBRANCH  21  22
ENDBRANCH  19  21
ENDBRANCH   1  17
TORSDOF 8
ENDMDL
MODEL 4
REMARK VINA RESULT:      -5.7     11.062     12.798
REMARK  8 active torsions:
REMARK  status: ('A' for Active; 'I' for Inactive)
REMARK    1  A    between atoms: N_1  and  C_17 
REMARK       I    between atoms: N_2  and  C_15 
REMARK       I    between atoms: N_3  and  C_15 
REMARK    2  A    between atoms: N_3  and  C_19 
REMARK    3  A    between atoms: C_8  and  C_19 
REMARK    4  A    between atoms: C_8  and  C_9 
REMARK    5  A    between atoms: C_9  and  C_16 
REMARK    6  A    between atoms: C_16  and  C_25 
REMARK    7  A    between atoms: C_16  and  N_22 
REMARK    8  A    between atoms: C_17  and  C_20 
REMARK       I    between atoms: C_20  and  N_22 
ROOT
HETATM    1  C           1     -21.199  -5.402  -6.592  0.00  0.00     0.185 C 
ENDROOT
BRANCH   1   2
HETATM    2  C           1     -21.740  -4.059  -7.067  0.00  0.00     0.038 C 
BRANCH   2   3
HETATM    3  C           1     -22.966  -4.285  -7.941  0.00  0.00     0.023 C 
BRANCH   3   4
HETATM    4  C           1     -22.528  -4.767  -9.317  0.00  0.00     0.138 C 
BRANCH   4   5
HETATM    5  N           1     -21.529  -3.840  -9.868  0.00  0.00    -0.227 N 
HETATM    6  C           1     -21.346  -3.776 -11.118  0.00  0.00     0.665 C 
HETATM    7  N           1     -22.023  -4.511 -11.895  0.00  0.00    -0.235 N 
HETATM    8  N           1     -20.462  -2.956 -11.605  0.00  0.00    -0.235 N 
HETATM    9  H           1     -22.737  -5.173 -11.502  0.00  0.00     0.174 HD
HETATM   10  H           1     -21.872  -4.458 -12.933  0.00  0.00     0.174 HD
HETATM   11  H           1     -19.903  -2.350 -10.964  0.00  0.00     0.174 HD
HETATM   12  H           1     -20.312  -2.904 -12.638  0.00  0.00     0.174 HD
HETATM   13  H           1     -20.967  -3.230  -9.223  0.00  0.00     0.177 HD
ENDBRANCH   4   5
ENDBRANCH   3   4
ENDBRANCH   2   3
ENDBRANCH   1   2
BRANCH   1  14
HETATM   14  C           1     -19.860  -5.663  -7.237  0.00  0.00     0.196 C 
HETATM   15  O           1     -19.257  -4.736  -7.821  0.00  0.00    -0.646 OA
HETATM   16  O           1     -19.354  -6.804  -7.188  0.00  0.00    -0.646 OA
ENDBRANCH   1  14
BRANCH   1  17
HETATM   17  N           1     -21.044  -5.377  -5.151  0.00  0.00    -0.345 N 
HETATM   18  H           1     -20.623  -4.575  -4.701  0.00  0.00     0.163 HD
HETATM   19  C           1     -21.469  -6.440  -4.399  0.00  0.00     0.243 C 
HETATM   20  O           1     -21.972  -7.398  -4.936  0.00  0.00    -0.272 OA
BRANCH  19  21
HETATM   21  C           1     -21.308  -6.415  -2.898  0.00  0.00     0.332 C 
BRANCH  21  22
HETATM   22  N           1     -22.552  -5.860  -2.270  0.00  0.00    -0.071 N 
HETATM   23  H           1     -22.387  -5.704  -1.251  0.00  0.00     0.274 HD
HETATM   24  H           1     -22.797  -4.952  -2.726  0.00  0.00     0.274 HD
HETATM   25  H           1     -23.337  -6.537  -2.396  0.00  0.00     0.274 HD
ENDBRANCH  21  22
ENDBRANCH  19  21
ENDBRANCH   1  17
TORSDOF 8
ENDMDL
MODEL 5
REMARK VINA RESULT:      -5.7     11.797     13.174
REMARK  8 active torsions:
REMARK  status: ('A' for Active; 'I' for Inactive)
REMARK    1  A    between atoms: N_1  and  C_17 
REMARK       I    between atoms: N_2  and  C_15 
REMARK       I    between atoms: N_3  and  C_15 
REMARK    2  A    between atoms: N_3  and  C_19 
REMARK    3  A    between atoms: C_8  and  C_19 
REMARK    4  A    between atoms: C_8  and  C_9 
REMARK    5  A    between atoms: C_9  and  C_16 
REMARK    6  A    between atoms: C_16  and  C_25 
REMARK    7  A    between atoms: C_16  and  N_22 
REMARK    8  A    between atoms: C_17  and  C_20 
REMARK       I    between atoms: C_20  and  N_22 
ROOT
HETATM    1  C           1     -20.760  -6.833  -5.419  0.00  0.00     0.185 C 
ENDROOT
BRANCH   1   2
HETATM    2  C           1     -20.565  -6.151  -6.767  0.00  0.00     0.038 C 
BRANCH   2   3
HETATM    3  C           1     -19.999  -4.754  -6.553  0.00  0.00     0.023 C 
BRANCH   3   4
HETATM    4  C           1     -20.605  -3.798  -7.572  0.00  0.00     0.138 C 
BRANCH   4   5
HETATM    5  N           1     -22.068  -3.787  -7.425  0.00  0.00    -0.227 N 
HETATM    6  C           1     -22.807  -3.983  -8.434  0.00  0.00     0.665 C 
HETATM    7  N           1     -22.286  -4.187  -9.570  0.00  0.00    -0.235 N 
HETATM    8  N           1     -24.100  -3.973  -8.304  0.00  0.00    -0.235 N 
HETATM    9  H           1     -21.241  -4.194  -9.674  0.00  0.00     0.174 HD
HETATM   10  H           1     -22.899  -4.349 -10.407  0.00  0.00     0.174 HD
HETATM   11  H           1     -24.530  -3.804  -7.367  0.00  0.00     0.174 HD
HETATM   12  H           1     -24.710  -4.134  -9.138  0.00  0.00     0.174 HD
HETATM   13  H           1     -22.500  -3.618  -6.483  0.00  0.00     0.177 HD
ENDBRANCH   4   5
ENDBRANCH   3   4
ENDBRANCH   2   3
ENDBRANCH   1   2
BRANCH   1  14
HETATM   14  C           1     -21.969  -6.251  -4.729  0.00  0.00     0.196 C 
HETATM   15  O           1     -22.978  -5.935  -5.397  0.00  0.00    -0.646 OA
HETATM   16  O           1     -21.962  -6.084  -3.491  0.00  0.00    -0.646 OA
ENDBRANCH   1  14
BRANCH   1  17
HETATM   17  N           1     -20.958  -8.255  -5.622  0.00  0.00    -0.345 N 
HETATM   18  H           1     -21.621  -8.580  -6.313  0.00  0.00     0.163 HD
HETATM   19  C           1     -20.245  -9.158  -4.879  0.00  0.00     0.243 C 
HETATM   20  O           1     -19.453  -8.770  -4.053  0.00  0.00    -0.272 OA
BRANCH  19  21
HETATM   21  C           1     -20.451 -10.639  -5.090  0.00  0.00     0.332 C 
BRANCH  21  22
HETATM   22  N           1     -21.093 -10.869  -6.426  0.00  0.00    -0.071 N 
HETATM   23  H           1     -20.450 -11.429  -7.028  0.00  0.00     0.274 HD
HETATM   24  H           1     -21.990 -11.389  -6.296  0.00  0.00     0.274 HD
HETATM   25  H           1     -21.285  -9.950  -6.882  0.00  0.00     0.274 HD
ENDBRANCH  21  22
ENDBRANCH  19  21
ENDBRANCH   1  17
TORSDOF 8
ENDMDL
MODEL 6
REMARK VINA RESULT:      -5.4     13.534     15.188
REMARK  8 active torsions:
REMARK  status: ('A' for Active; 'I' for Inactive)
REMARK    1  A    between atoms: N_1  and  C_17 
REMARK       I    between atoms: N_2  and  C_15 
REMARK       I    between atoms: N_3  and  C_15 
REMARK    2  A    between atoms: N_3  and  C_19 
REMARK    3  A    between atoms: C_8  and  C_19 
REMARK    4  A    between atoms: C_8  and  C_9 
REMARK    5  A    between atoms: C_9  and  C_16 
REMARK    6  A    between atoms: C_16  and  C_25 
REMARK    7  A    between atoms: C_16  and  N_22 
REMARK    8  A    between atoms: C_17  and  C_20 
REMARK       I    between atoms: C_20  and  N_22 
ROOT
HETATM    1  C           1     -21.239  -6.056  -5.370  0.00  0.00     0.185 C 
ENDROOT
BRANCH   1   2
HETATM    2  C           1     -22.119  -6.371  -4.168  0.00  0.00     0.038 C 
BRANCH   2   3
HETATM    3  C           1     -21.364  -6.045  -2.886  0.00  0.00     0.023 C 
BRANCH   3   4
HETATM    4  C           1     -21.344  -7.271  -1.982  0.00  0.00     0.138 C 
BRANCH   4   5
HETATM    5  N           1     -22.451  -7.190  -1.019  0.00  0.00    -0.227 N 
HETATM    6  C           1     -22.544  -8.042  -0.088  0.00  0.00     0.665 C 
HETATM    7  N           1     -21.683  -8.964   0.014  0.00  0.00    -0.235 N 
HETATM    8  N           1     -23.523  -7.971   0.764  0.00  0.00    -0.235 N 
HETATM    9  H           1     -20.892  -9.022  -0.675  0.00  0.00     0.174 HD
HETATM   10  H           1     -21.759  -9.672   0.786  0.00  0.00     0.174 HD
HETATM   11  H           1     -24.233  -7.209   0.680  0.00  0.00     0.174 HD
HETATM   12  H           1     -23.599  -8.674   1.533  0.00  0.00     0.174 HD
HETATM   13  H           1     -23.166  -6.425  -1.103  0.00  0.00     0.177 HD
ENDBRANCH   4   5
ENDBRANCH   3   4
ENDBRANCH   2   3
ENDBRANCH   1   2
BRANCH   1  14
HETATM   14  C           1     -20.606  -7.328  -5.879  0.00  0.00     0.196 C 
HETATM   15  O           1     -19.481  -7.291  -6.424  0.00  0.00    -0.646 OA
HETATM   16  O           1     -21.206  -8.417  -5.756  0.00  0.00    -0.646 OA
ENDBRANCH   1  14
BRANCH   1  17
HETATM   17  N           1     -22.048  -5.466  -6.419  0.00  0.00    -0.345 N 
HETATM   18  H           1     -22.980  -5.815  -6.596  0.00  0.00     0.163 HD
HETATM   19  C           1     -21.550  -4.433  -7.168  0.00  0.00     0.243 C 
HETATM   20  O           1     -20.436  -4.016  -6.957  0.00  0.00    -0.272 OA
BRANCH  19  21
HETATM   21  C           1     -22.392  -3.819  -8.261  0.00  0.00     0.332 C 
BRANCH  21  22
HETATM   22  N           1     -23.843  -4.071  -7.975  0.00  0.00    -0.071 N 
HETATM   23  H           1     -24.015  -3.983  -6.949  0.00  0.00     0.274 HD
HETATM   24  H           1     -24.425  -3.370  -8.487  0.00  0.00     0.274 HD
HETATM   25  H           1     -24.097  -5.034  -8.290  0.00  0.00     0.274 HD
ENDBRANCH  21  22
ENDBRANCH  19  21
ENDBRANCH   1  17
TORSDOF 8
ENDMDL
MODEL 7
REMARK VINA RESULT:      -5.3     11.593     12.940
REMARK  8 active torsions:
REMARK  status: ('A' for Active; 'I' for Inactive)
REMARK    1  A    between atoms: N_1  and  C_17 
REMARK       I    between atoms: N_2  and  C_15 
REMARK       I    between atoms: N_3  and  C_15 
REMARK    2  A    between atoms: N_3  and  C_19 
REMARK    3  A    between atoms: C_8  and  C_19 
REMARK    4  A    between atoms: C_8  and  C_9 
REMARK    5  A    between atoms: C_9  and  C_16 
REMARK    6  A    between atoms: C_16  and  C_25 
REMARK    7  A    between atoms: C_16  and  N_22 
REMARK    8  A    between atoms: C_17  and  C_20 
REMARK       I    between atoms: C_20  and  N_22 
ROOT
HETATM    1  C           1     -20.586  -6.148  -5.975  0.00  0.00     0.185 C 
ENDROOT
BRANCH   1   2
HETATM    2  C           1     -21.625  -6.101  -7.088  0.00  0.00     0.038 C 
BRANCH   2   3
HETATM    3  C           1     -22.478  -4.848  -6.936  0.00  0.00     0.023 C 
BRANCH   3   4
HETATM    4  C           1     -22.534  -4.107  -8.265  0.00  0.00     0.138 C 
BRANCH   4   5
HETATM    5  N           1     -23.903  -3.628  -8.503  0.00  0.00    -0.227 N 
HETATM    6  C           1     -24.524  -3.979  -9.549  0.00  0.00     0.665 C 
HETATM    7  N           1     -23.965  -4.743 -10.390  0.00  0.00    -0.235 N 
HETATM    8  N           1     -25.735  -3.556  -9.759  0.00  0.00    -0.235 N 
HETATM    9  H           1     -22.987  -5.085 -10.220  0.00  0.00     0.174 HD
HETATM   10  H           1     -24.480  -5.034 -11.258  0.00  0.00     0.174 HD
HETATM   11  H           1     -26.195  -2.926  -9.065  0.00  0.00     0.174 HD
HETATM   12  H           1     -26.247  -3.846 -10.623  0.00  0.00     0.174 HD
HETATM   13  H           1     -24.367  -2.995  -7.805  0.00  0.00     0.177 HD
ENDBRANCH   4   5
ENDBRANCH   3   4
ENDBRANCH   2   3
ENDBRANCH   1   2
BRANCH   1  14
HETATM   14  C           1     -19.702  -4.927  -6.059  0.00  0.00     0.196 C 
HETATM   15  O           1     -19.071  -4.684  -7.111  0.00  0.00    -0.646 OA
HETATM   16  O           1     -19.601  -4.161  -5.078  0.00  0.00    -0.646 OA
ENDBRANCH   1  14
BRANCH   1  17
HETATM   17  N           1     -21.256  -6.172  -4.690  0.00  0.00    -0.345 N 
HETATM   18  H           1     -21.886  -5.423  -4.434  0.00  0.00     0.163 HD
HETATM   19  C           1     -21.036  -7.209  -3.823  0.00  0.00     0.243 C 
HETATM   20  O           1     -20.283  -8.103  -4.129  0.00  0.00    -0.272 OA
BRANCH  19  21
HETATM   21  C           1     -21.733  -7.234  -2.484  0.00  0.00     0.332 C 
BRANCH  21  22
HETATM   22  N           1     -22.405  -5.915  -2.245  0.00  0.00    -0.071 N 
HETATM   23  H           1     -22.239  -5.613  -1.260  0.00  0.00     0.274 HD
HETATM   24  H           1     -22.013  -5.200  -2.900  0.00  0.00     0.274 HD
HETATM   25  H           1     -23.432  -6.012  -2.411  0.00  0.00     0.274 HD
ENDBRANCH  21  22
ENDBRANCH  19  21
ENDBRANCH   1  17
TORSDOF 8
ENDMDL
MODEL 8
REMARK VINA RESULT:      -4.9      1.898      2.492
REMARK  8 active torsions:
REMARK  status: ('A' for Active; 'I' for Inactive)
REMARK    1  A    between atoms: N_1  and  C_17 
REMARK       I    between atoms: N_2  and  C_15 
REMARK       I    between atoms: N_3  and  C_15 
REMARK    2  A    between atoms: N_3  and  C_19 
REMARK    3  A    between atoms: C_8  and  C_19 
REMARK    4  A    between atoms: C_8  and  C_9 
REMARK    5  A    between atoms: C_9  and  C_16 
REMARK    6  A    between atoms: C_16  and  C_25 
REMARK    7  A    between atoms: C_16  and  N_22 
REMARK    8  A    between atoms: C_17  and  C_20 
REMARK       I    between atoms: C_20  and  N_22 
ROOT
HETATM    1  C           1     -28.019  -5.776 -16.732  0.00  0.00     0.185 C 
ENDROOT
BRANCH   1   2
HETATM    2  C           1     -29.350  -5.400 -16.095  0.00  0.00     0.038 C 
BRANCH   2   3
HETATM    3  C           1     -30.188  -4.613 -17.093  0.00  0.00     0.023 C 
BRANCH   3   4
HETATM    4  C           1     -31.656  -4.988 -16.932  0.00  0.00     0.138 C 
BRANCH   4   5
HETATM    5  N           1     -32.499  -3.843 -17.305  0.00  0.00    -0.227 N 
HETATM    6  C           1     -33.579  -3.623 -16.683  0.00  0.00     0.665 C 
HETATM    7  N           1     -33.934  -4.390 -15.741  0.00  0.00    -0.235 N 
HETATM    8  N           1     -34.325  -2.611 -17.013  0.00  0.00    -0.235 N 
HETATM    9  H           1     -33.331  -5.208 -15.474  0.00  0.00     0.174 HD
HETATM   10  H           1     -34.830  -4.208 -15.224  0.00  0.00     0.174 HD
HETATM   11  H           1     -34.032  -1.978 -17.791  0.00  0.00     0.174 HD
HETATM   12  H           1     -35.217  -2.430 -16.500  0.00  0.00     0.174 HD
HETATM   13  H           1     -32.204  -3.207 -18.087  0.00  0.00     0.177 HD
ENDBRANCH   4   5
ENDBRANCH   3   4
ENDBRANCH   2   3
ENDBRANCH   1   2
BRANCH   1  14
HETATM   14  C           1     -27.203  -6.587 -15.755  0.00  0.00     0.196 C 
HETATM   15  O           1     -26.005  -6.295 -15.549  0.00  0.00    -0.646 OA
HETATM   16  O           1     -27.725  -7.549 -15.152  0.00  0.00    -0.646 OA
ENDBRANCH   1  14
BRANCH   1  17
HETATM   17  N           1     -28.260  -6.560 -17.927  0.00  0.00    -0.345 N 
HETATM   18  H           1     -29.116  -7.092 -18.020  0.00  0.00     0.163 HD
HETATM   19  C           1     -27.330  -6.580 -18.932  0.00  0.00     0.243 C 
HETATM   20  O           1     -26.308  -5.947 -18.822  0.00  0.00    -0.272 OA
BRANCH  19  21
HETATM   21  C           1     -27.581  -7.398 -20.176  0.00  0.00     0.332 C 
BRANCH  21  22
HETATM   22  N           1     -28.662  -8.402 -19.906  0.00  0.00    -0.071 N 
HETATM   23  H           1     -28.261  -9.365 -19.952  0.00  0.00     0.274 HD
HETATM   24  H           1     -29.062  -8.235 -18.955  0.00  0.00     0.274 HD
HETATM   25  H           1     -29.415  -8.304 -20.624  0.00  0.00     0.274 HD
ENDBRANCH  21  22
ENDBRANCH  19  21
ENDBRANCH   1  17
TORSDOF 8
ENDMDL
MODEL 9
REMARK VINA RESULT:      -4.9     15.004     16.593
REMARK  8 active torsions:
REMARK  status: ('A' for Active; 'I' for Inactive)
REMARK    1  A    between atoms: N_1  and  C_17 
REMARK       I    between atoms: N_2  and  C_15 
REMARK       I    between atoms: N_3  and  C_15 
REMARK    2  A    between atoms: N_3  and  C_19 
REMARK    3  A    between atoms: C_8  and  C_19 
REMARK    4  A    between atoms: C_8  and  C_9 
REMARK    5  A    between atoms: C_9  and  C_16 
REMARK    6  A    between atoms: C_16  and  C_25 
REMARK    7  A    between atoms: C_16  and  N_22 
REMARK    8  A    between atoms: C_17  and  C_20 
REMARK       I    between atoms: C_20  and  N_22 
ROOT
HETATM    1  C           1     -21.139  -8.073  -1.488  0.00  0.00     0.185 C 
ENDROOT
BRANCH   1   2
HETATM    2  C           1     -20.371  -8.145  -2.802  0.00  0.00     0.038 C 
BRANCH   2   3
HETATM    3  C           1     -20.902  -9.301  -3.639  0.00  0.00     0.023 C 
BRANCH   3   4
HETATM    4  C           1     -21.129  -8.830  -5.069  0.00  0.00     0.138 C 
BRANCH   4   5
HETATM    5  N           1     -21.866  -7.558  -5.057  0.00  0.00    -0.227 N 
HETATM    6  C           1     -21.506  -6.610  -5.814  0.00  0.00     0.665 C 
HETATM    7  N           1     -20.511  -6.757  -6.582  0.00  0.00    -0.235 N 
HETATM    8  N           1     -22.158  -5.485  -5.803  0.00  0.00    -0.235 N 
HETATM    9  H           1     -19.985  -7.666  -6.591  0.00  0.00     0.174 HD
HETATM   10  H           1     -20.212  -5.971  -7.211  0.00  0.00     0.174 HD
HETATM   11  H           1     -22.979  -5.364  -5.168  0.00  0.00     0.174 HD
HETATM   12  H           1     -21.860  -4.703  -6.428  0.00  0.00     0.174 HD
HETATM   13  H           1     -22.692  -7.436  -4.419  0.00  0.00     0.177 HD
ENDBRANCH   4   5
ENDBRANCH   3   4
ENDBRANCH   2   3
ENDBRANCH   1   2
BRANCH   1  14
HETATM   14  C           1     -22.091  -6.903  -1.524  0.00  0.00     0.196 C 
HETATM   15  O           1     -22.898  -6.726  -0.586  0.00  0.00    -0.646 OA
HETATM   16  O           1     -22.074  -6.112  -2.491  0.00  0.00    -0.646 OA
ENDBRANCH   1  14
BRANCH   1  17
HETATM   17  N           1     -21.888  -9.300  -1.299  0.00  0.00    -0.345 N 
HETATM   18  H           1     -22.488  -9.645  -2.036  0.00  0.00     0.163 HD
HETATM   19  C           1     -21.781  -9.992  -0.122  0.00  0.00     0.243 C 
HETATM   20  O           1     -21.065  -9.580   0.758  0.00  0.00    -0.272 OA
BRANCH  19  21
HETATM   21  C           1     -22.561 -11.270   0.076  0.00  0.00     0.332 C 
BRANCH  21  22
HETATM   22  N           1     -23.972 -11.071  -0.393  0.00  0.00    -0.071 N 
HETATM   23  H           1     -24.506 -11.961  -0.276  0.00  0.00     0.274 HD
HETATM   24  H           1     -24.424 -10.317   0.172  0.00  0.00     0.274 HD
HETATM   25  H           1     -23.969 -10.798  -1.401  0.00  0.00     0.274 HD
ENDBRANCH  21  22
ENDBRANCH  19  21
ENDBRANCH   1  17
TORSDOF 8
ENDMDL
