MODEL 1
REMARK VINA RESULT:      -6.7      0.000      0.000
REMARK  7 active torsions:
REMARK  status: ('A' for Active; 'I' for Inactive)
REMARK    1  A    between atoms: P_1  and  O_2 
REMARK    2  A    between atoms: P_1  and  O_9 
REMARK    3  A    between atoms: O_2  and  C_7 
REMARK    4  A    between atoms: N_3  and  C_16 
REMARK       I    between atoms: N_3  and  C_5 
REMARK    5  A    between atoms: C_5  and  C_19 
REMARK    6  A    between atoms: C_7  and  C_16 
REMARK    7  A    between atoms: C_15  and  C_16 
ROOT
HETATM    1  C           1     -35.067  -0.199 -12.452  0.00  0.00     0.210 C 
ENDROOT
BRANCH   1   2
HETATM    2  N           1     -35.077  -1.588 -12.869  0.00  0.00    -0.343 N 
HETATM    3  C           1     -34.771  -2.574 -11.970  0.00  0.00     0.251 C 
HETATM    4  O           1     -34.492  -2.287 -10.831  0.00  0.00    -0.271 OA
HETATM    5  H           1     -35.310  -1.827 -13.824  0.00  0.00     0.163 HD
BRANCH   3   6
HETATM    6  C           1     -34.781  -4.019 -12.405  0.00  0.00     0.311 C 
HETATM    7  C           1     -34.717  -4.946 -11.203  0.00  0.00     0.047 C 
HETATM    8  C           1     -33.238  -5.270 -11.029  0.00  0.00     0.033 C 
HETATM    9  C           1     -32.533  -4.520 -12.146  0.00  0.00     0.271 C 
HETATM   10  N           1     -33.573  -4.343 -13.158  0.00  0.00     0.097 N 
HETATM   11  H           1     -33.692  -5.213 -13.678  0.00  0.00     0.317 HD
ENDBRANCH   3   6
ENDBRANCH   1   2
BRANCH   1  12
HETATM   12  C           1     -34.976   0.697 -13.680  0.00  0.00     0.217 C 
BRANCH  12  13
HETATM   13  O           1     -34.925  -0.096 -14.836  0.00  0.00    -0.287 OA
BRANCH  13  14
HETATM   14  P           1     -36.244  -0.077 -15.767  0.00  0.00     0.406 P 
HETATM   15  O           1     -35.983  -0.838 -17.009  0.00  0.00    -0.624 OA
HETATM   16  O           1     -36.587   1.323 -16.108  0.00  0.00    -0.624 OA
BRANCH  14  17
HETATM   17  O           1     -37.475  -0.754 -14.971  0.00  0.00    -0.300 OA
HETATM   18  H           1     -37.555  -0.256 -14.176  0.00  0.00     0.223 HD
ENDBRANCH  14  17
ENDBRANCH  13  14
ENDBRANCH  12  13
ENDBRANCH   1  12
BRANCH   1  19
HETATM   19  C           1     -36.336   0.110 -11.698  0.00  0.00     0.198 C 
HETATM   20  O           1     -37.446  -0.061 -12.245  0.00  0.00    -0.646 OA
HETATM   21  O           1     -36.278   0.539 -10.525  0.00  0.00    -0.646 OA
ENDBRANCH   1  19
TORSDOF 7
ENDMDL
MODEL 2
REMARK VINA RESULT:      -5.7     25.291     26.487
REMARK  7 active torsions:
REMARK  status: ('A' for Active; 'I' for Inactive)
REMARK    1  A    between atoms: P_1  and  O_2 
REMARK    2  A    between atoms: P_1  and  O_9 
REMARK    3  A    between atoms: O_2  and  C_7 
REMARK    4  A    between atoms: N_3  and  C_16 
REMARK       I    between atoms: N_3  and  C_5 
REMARK    5  A    between atoms: C_5  and  C_19 
REMARK    6  A    between atoms: C_7  and  C_16 
REMARK    7  A    between atoms: C_15  and  C_16 
ROOT
HETATM    1  C           1     -10.089   5.427 -20.583  0.00  0.00     0.210 C 
ENDROOT
BRANCH   1   2
HETATM    2  N           1     -11.245   5.273 -21.445  0.00  0.00    -0.343 N 
HETATM    3  C           1     -11.572   4.039 -21.938  0.00  0.00     0.251 C 
HETATM    4  O           1     -10.898   3.078 -21.655  0.00  0.00    -0.271 OA
HETATM    5  H           1     -11.809   6.079 -21.682  0.00  0.00     0.163 HD
BRANCH   3   6
HETATM    6  C           1     -12.775   3.880 -22.835  0.00  0.00     0.311 C 
HETATM    7  C           1     -13.577   5.169 -22.899  0.00  0.00     0.047 C 
HETATM    8  C           1     -14.662   5.014 -21.840  0.00  0.00     0.033 C 
HETATM    9  C           1     -14.431   3.642 -21.232  0.00  0.00     0.271 C 
HETATM   10  N           1     -13.715   2.913 -22.277  0.00  0.00     0.097 N 
HETATM   11  H           1     -14.378   2.600 -22.987  0.00  0.00     0.317 HD
ENDBRANCH   3   6
ENDBRANCH   1   2
BRANCH   1  12
HETATM   12  C           1      -9.413   6.759 -20.876  0.00  0.00     0.217 C 
BRANCH  12  13
HETATM   13  O           1     -10.388   7.735 -21.126  0.00  0.00    -0.287 OA
BRANCH  13  14
HETATM   14  P           1     -10.294   9.076 -20.230  0.00  0.00     0.406 P 
HETATM   15  O           1     -11.475   9.929 -20.494  0.00  0.00    -0.624 OA
HETATM   16  O           1      -9.061   9.817 -20.580  0.00  0.00    -0.624 OA
BRANCH  14  17
HETATM   17  O           1     -10.259   8.677 -18.666  0.00  0.00    -0.300 OA
HETATM   18  H           1     -11.058   8.202 -18.517  0.00  0.00     0.223 HD
ENDBRANCH  14  17
ENDBRANCH  13  14
ENDBRANCH  12  13
ENDBRANCH   1  12
BRANCH   1  19
HETATM   19  C           1     -10.528   5.393 -19.140  0.00  0.00     0.198 C 
HETATM   20  O           1     -11.705   5.085 -18.852  0.00  0.00    -0.646 OA
HETATM   21  O           1      -9.716   5.673 -18.233  0.00  0.00    -0.646 OA
ENDBRANCH   1  19
TORSDOF 7
ENDMDL
MODEL 3
REMARK VINA RESULT:      -5.5      2.930      5.718
REMARK  7 active torsions:
REMARK  status: ('A' for Active; 'I' for Inactive)
REMARK    1  A    between atoms: P_1  and  O_2 
REMARK    2  A    between atoms: P_1  and  O_9 
REMARK    3  A    between atoms: O_2  and  C_7 
REMARK    4  A    between atoms: N_3  and  C_16 
REMARK       I    between atoms: N_3  and  C_5 
REMARK    5  A    between atoms: C_5  and  C_19 
REMARK    6  A    between atoms: C_7  and  C_16 
REMARK    7  A    between atoms: C_15  and  C_16 
ROOT
HETATM    1  C           1     -35.601  -1.436 -11.760  0.00  0.00     0.210 C 
ENDROOT
BRANCH   1   2
HETATM    2  N           1     -36.375  -0.882 -12.854  0.00  0.00    -0.343 N 
HETATM    3  C           1     -35.859   0.134 -13.612  0.00  0.00     0.251 C 
HETATM    4  O           1     -34.760   0.570 -13.370  0.00  0.00    -0.271 OA
HETATM    5  H           1     -37.297  -1.247 -13.056  0.00  0.00     0.163 HD
BRANCH   3   6
HETATM    6  C           1     -36.666   0.710 -14.749  0.00  0.00     0.311 C 
HETATM    7  C           1     -37.832  -0.198 -15.100  0.00  0.00     0.047 C 
HETATM    8  C           1     -37.325  -1.075 -16.238  0.00  0.00     0.033 C 
HETATM    9  C           1     -35.898  -0.618 -16.486  0.00  0.00     0.271 C 
HETATM   10  N           1     -35.877   0.752 -15.977  0.00  0.00     0.097 N 
HETATM   11  H           1     -36.305   1.375 -16.662  0.00  0.00     0.317 HD
ENDBRANCH   3   6
ENDBRANCH   1   2
BRANCH   1  12
HETATM   12  C           1     -36.507  -1.650 -10.555  0.00  0.00     0.217 C 
BRANCH  12  13
HETATM   13  O           1     -37.287  -0.503 -10.347  0.00  0.00    -0.287 OA
BRANCH  13  14
HETATM   14  P           1     -37.135   0.205  -8.903  0.00  0.00     0.406 P 
HETATM   15  O           1     -35.745   0.047  -8.420  0.00  0.00    -0.624 OA
HETATM   16  O           1     -38.067  -0.429  -7.944  0.00  0.00    -0.624 OA
BRANCH  14  17
HETATM   17  O           1     -37.483   1.776  -9.036  0.00  0.00    -0.300 OA
HETATM   18  H           1     -36.687   2.178  -9.338  0.00  0.00     0.223 HD
ENDBRANCH  14  17
ENDBRANCH  13  14
ENDBRANCH  12  13
ENDBRANCH   1  12
BRANCH   1  19
HETATM   19  C           1     -35.006  -2.757 -12.182  0.00  0.00     0.198 C 
HETATM   20  O           1     -34.826  -3.659 -11.336  0.00  0.00    -0.646 OA
HETATM   21  O           1     -34.692  -2.948 -13.376  0.00  0.00    -0.646 OA
ENDBRANCH   1  19
TORSDOF 7
ENDMDL
MODEL 4
REMARK VINA RESULT:      -5.5     15.622     17.931
REMARK  7 active torsions:
REMARK  status: ('A' for Active; 'I' for Inactive)
REMARK    1  A    between atoms: P_1  and  O_2 
REMARK    2  A    between atoms: P_1  and  O_9 
REMARK    3  A    between atoms: O_2  and  C_7 
REMARK    4  A    between atoms: N_3  and  C_16 
REMARK       I    between atoms: N_3  and  C_5 
REMARK    5  A    between atoms: C_5  and  C_19 
REMARK    6  A    between atoms: C_7  and  C_16 
REMARK    7  A    between atoms: C_15  and  C_16 
ROOT
HETATM    1  C           1     -21.871  -6.958  -4.440  0.00  0.00     0.210 C 
ENDROOT
BRANCH   1   2
HETATM    2  N           1     -21.079  -5.966  -5.142  0.00  0.00    -0.343 N 
HETATM    3  C           1     -21.681  -5.108  -6.022  0.00  0.00     0.251 C 
HETATM    4  O           1     -22.871  -5.176  -6.214  0.00  0.00    -0.271 OA
HETATM    5  H           1     -20.082  -5.910  -4.981  0.00  0.00     0.163 HD
BRANCH   3   6
HETATM    6  C           1     -20.856  -4.077  -6.752  0.00  0.00     0.311 C 
HETATM    7  C           1     -21.595  -3.560  -7.975  0.00  0.00     0.047 C 
HETATM    8  C           1     -21.094  -4.414  -9.133  0.00  0.00     0.033 C 
HETATM    9  C           1     -20.087  -5.369  -8.515  0.00  0.00     0.271 C 
HETATM   10  N           1     -19.646  -4.677  -7.306  0.00  0.00     0.097 N 
HETATM   11  H           1     -18.966  -3.959  -7.555  0.00  0.00     0.317 HD
ENDBRANCH   3   6
ENDBRANCH   1   2
BRANCH   1  12
HETATM   12  C           1     -21.435  -8.352  -4.871  0.00  0.00     0.217 C 
BRANCH  12  13
HETATM   13  O           1     -20.222  -8.267  -5.570  0.00  0.00    -0.287 OA
BRANCH  13  14
HETATM   14  P           1     -19.103  -9.366  -5.184  0.00  0.00     0.406 P 
HETATM   15  O           1     -18.025  -9.349  -6.197  0.00  0.00    -0.624 OA
HETATM   16  O           1     -19.725 -10.709  -5.146  0.00  0.00    -0.624 OA
BRANCH  14  17
HETATM   17  O           1     -18.484  -9.016  -3.734  0.00  0.00    -0.300 OA
HETATM   18  H           1     -17.655  -8.607  -3.915  0.00  0.00     0.223 HD
ENDBRANCH  14  17
ENDBRANCH  13  14
ENDBRANCH  12  13
ENDBRANCH   1  12
BRANCH   1  19
HETATM   19  C           1     -21.668  -6.805  -2.953  0.00  0.00     0.198 C 
HETATM   20  O           1     -22.370  -5.997  -2.307  0.00  0.00    -0.646 OA
HETATM   21  O           1     -20.797  -7.484  -2.368  0.00  0.00    -0.646 OA
ENDBRANCH   1  19
TORSDOF 7
ENDMDL
MODEL 5
REMARK VINA RESULT:      -5.4     17.094     19.268
REMARK  7 active torsions:
REMARK  status: ('A' for Active; 'I' for Inactive)
REMARK    1  A    between atoms: P_1  and  O_2 
REMARK    2  A    between atoms: P_1  and  O_9 
REMARK    3  A    between atoms: O_2  and  C_7 
REMARK    4  A    between atoms: N_3  and  C_16 
REMARK       I    between atoms: N_3  and  C_5 
REMARK    5  A    between atoms: C_5  and  C_19 
REMARK    6  A    between atoms: C_7  and  C_16 
REMARK    7  A    between atoms: C_15  and  C_16 
ROOT
HETATM    1  C           1     -21.132  -7.712  -3.829  0.00  0.00     0.210 C 
ENDROOT
BRANCH   1   2
HETATM    2  N           1     -21.641  -8.556  -2.765  0.00  0.00    -0.343 N 
HETATM    3  C           1     -20.819  -8.934  -1.739  0.00  0.00     0.251 C 
HETATM    4  O           1     -19.670  -8.564  -1.718  0.00  0.00    -0.271 OA
HETATM    5  H           1     -22.604  -8.866  -2.784  0.00  0.00     0.163 HD
BRANCH   3   6
HETATM    6  C           1     -21.349  -9.813  -0.633  0.00  0.00     0.311 C 
HETATM    7  C           1     -22.867  -9.782  -0.597  0.00  0.00     0.047 C 
HETATM    8  C           1     -23.219  -8.711   0.428  0.00  0.00     0.033 C 
HETATM    9  C           1     -21.884  -8.191   0.934  0.00  0.00     0.271 C 
HETATM   10  N           1     -20.960  -9.293   0.675  0.00  0.00     0.097 N 
HETATM   11  H           1     -21.072 -10.006   1.396  0.00  0.00     0.317 HD
ENDBRANCH   3   6
ENDBRANCH   1   2
BRANCH   1  12
HETATM   12  C           1     -21.208  -8.463  -5.152  0.00  0.00     0.217 C 
BRANCH  12  13
HETATM   13  O           1     -19.920  -8.594  -5.690  0.00  0.00    -0.287 OA
BRANCH  13  14
HETATM   14  P           1     -19.069  -9.872  -5.189  0.00  0.00     0.406 P 
HETATM   15  O           1     -18.382 -10.491  -6.344  0.00  0.00    -0.624 OA
HETATM   16  O           1     -19.981 -10.859  -4.569  0.00  0.00    -0.624 OA
BRANCH  14  17
HETATM   17  O           1     -17.972  -9.395  -4.104  0.00  0.00    -0.300 OA
HETATM   18  H           1     -17.254  -9.060  -4.613  0.00  0.00     0.223 HD
ENDBRANCH  14  17
ENDBRANCH  13  14
ENDBRANCH  12  13
ENDBRANCH   1  12
BRANCH   1  19
HETATM   19  C           1     -21.962  -6.456  -3.916  0.00  0.00     0.198 C 
HETATM   20  O           1     -22.200  -5.940  -5.029  0.00  0.00    -0.646 OA
HETATM   21  O           1     -22.412  -5.929  -2.875  0.00  0.00    -0.646 OA
ENDBRANCH   1  19
TORSDOF 7
ENDMDL
MODEL 6
REMARK VINA RESULT:      -5.4     24.587     25.791
REMARK  7 active torsions:
REMARK  status: ('A' for Active; 'I' for Inactive)
REMARK    1  A    between atoms: P_1  and  O_2 
REMARK    2  A    between atoms: P_1  and  O_9 
REMARK    3  A    between atoms: O_2  and  C_7 
REMARK    4  A    between atoms: N_3  and  C_16 
REMARK       I    between atoms: N_3  and  C_5 
REMARK    5  A    between atoms: C_5  and  C_19 
REMARK    6  A    between atoms: C_7  and  C_16 
REMARK    7  A    between atoms: C_15  and  C_16 
ROOT
HETATM    1  C           1     -11.050   7.154 -21.150  0.00  0.00     0.210 C 
ENDROOT
BRANCH   1   2
HETATM    2  N           1     -12.102   6.254 -20.720  0.00  0.00    -0.343 N 
HETATM    3  C           1     -12.392   5.138 -21.458  0.00  0.00     0.251 C 
HETATM    4  O           1     -11.772   4.904 -22.468  0.00  0.00    -0.271 OA
HETATM    5  H           1     -12.622   6.451 -19.875  0.00  0.00     0.163 HD
BRANCH   3   6
HETATM    6  C           1     -13.488   4.202 -21.011  0.00  0.00     0.311 C 
HETATM    7  C           1     -13.772   3.154 -22.073  0.00  0.00     0.047 C 
HETATM    8  C           1     -14.931   3.717 -22.887  0.00  0.00     0.033 C 
HETATM    9  C           1     -15.256   5.053 -22.243  0.00  0.00     0.271 C 
HETATM   10  N           1     -14.756   4.914 -20.877  0.00  0.00     0.097 N 
HETATM   11  H           1     -15.421   4.370 -20.326  0.00  0.00     0.317 HD
ENDBRANCH   3   6
ENDBRANCH   1   2
BRANCH   1  12
HETATM   12  C           1     -11.551   8.590 -21.077  0.00  0.00     0.217 C 
BRANCH  12  13
HETATM   13  O           1     -12.814   8.615 -20.469  0.00  0.00    -0.287 OA
BRANCH  13  14
HETATM   14  P           1     -12.943   9.523 -19.139  0.00  0.00     0.406 P 
HETATM   15  O           1     -14.085   9.049 -18.326  0.00  0.00    -0.624 OA
HETATM   16  O           1     -13.164  10.934 -19.527  0.00  0.00    -0.624 OA
BRANCH  14  17
HETATM   17  O           1     -11.584   9.407 -18.276  0.00  0.00    -0.300 OA
HETATM   18  H           1     -11.539  10.208 -17.782  0.00  0.00     0.223 HD
ENDBRANCH  14  17
ENDBRANCH  13  14
ENDBRANCH  12  13
ENDBRANCH   1  12
BRANCH   1  19
HETATM   19  C           1      -9.851   6.994 -20.250  0.00  0.00     0.198 C 
HETATM   20  O           1      -8.753   6.635 -20.728  0.00  0.00    -0.646 OA
HETATM   21  O           1      -9.954   7.219 -19.024  0.00  0.00    -0.646 OA
ENDBRANCH   1  19
TORSDOF 7
ENDMDL
MODEL 7
REMARK VINA RESULT:      -5.4     25.598     26.818
REMARK  7 active torsions:
REMARK  status: ('A' for Active; 'I' for Inactive)
REMARK    1  A    between atoms: P_1  and  O_2 
REMARK    2  A    between atoms: P_1  and  O_9 
REMARK    3  A    between atoms: O_2  and  C_7 
REMARK    4  A    between atoms: N_3  and  C_16 
REMARK       I    between atoms: N_3  and  C_5 
REMARK    5  A    between atoms: C_5  and  C_19 
REMARK    6  A    between atoms: C_7  and  C_16 
REMARK    7  A    between atoms: C_15  and  C_16 
ROOT
HETATM    1  C           1     -10.752   8.140 -22.005  0.00  0.00     0.210 C 
ENDROOT
BRANCH   1   2
HETATM    2  N           1     -10.683   7.005 -21.105  0.00  0.00    -0.343 N 
HETATM    3  C           1     -10.937   5.745 -21.573  0.00  0.00     0.251 C 
HETATM    4  O           1     -11.220   5.577 -22.735  0.00  0.00    -0.271 OA
HETATM    5  H           1     -10.446   7.146 -20.131  0.00  0.00     0.163 HD
BRANCH   3   6
HETATM    6  C           1     -10.866   4.564 -20.636  0.00  0.00     0.311 C 
HETATM    7  C           1     -11.299   3.289 -21.338  0.00  0.00     0.047 C 
HETATM    8  C           1     -12.779   3.138 -21.011  0.00  0.00     0.033 C 
HETATM    9  C           1     -13.115   4.329 -20.131  0.00  0.00     0.271 C 
HETATM   10  N           1     -11.829   4.706 -19.548  0.00  0.00     0.097 N 
HETATM   11  H           1     -11.606   4.071 -18.781  0.00  0.00     0.317 HD
ENDBRANCH   3   6
ENDBRANCH   1   2
BRANCH   1  12
HETATM   12  C           1     -12.070   8.873 -21.794  0.00  0.00     0.217 C 
BRANCH  12  13
HETATM   13  O           1     -11.957   9.731 -20.691  0.00  0.00    -0.287 OA
BRANCH  13  14
HETATM   14  P           1     -12.327   9.091 -19.255  0.00  0.00     0.406 P 
HETATM   15  O           1     -13.005   7.791 -19.454  0.00  0.00    -0.624 OA
HETATM   16  O           1     -13.226  10.010 -18.522  0.00  0.00    -0.624 OA
BRANCH  14  17
HETATM   17  O           1     -10.974   8.866 -18.403  0.00  0.00    -0.300 OA
HETATM   18  H           1     -10.910   9.620 -17.842  0.00  0.00     0.223 HD
ENDBRANCH  14  17
ENDBRANCH  13  14
ENDBRANCH  12  13
ENDBRANCH   1  12
BRANCH   1  19
HETATM   19  C           1      -9.605   9.078 -21.723  0.00  0.00     0.198 C 
HETATM   20  O           1      -8.922   8.936 -20.685  0.00  0.00    -0.646 OA
HETATM   21  O           1      -9.336   9.998 -22.526  0.00  0.00    -0.646 OA
ENDBRANCH   1  19
TORSDOF 7
ENDMDL
MODEL 8
REMARK VINA RESULT:      -5.3     25.019     26.164
REMARK  7 active torsions:
REMARK  status: ('A' for Active; 'I' for Inactive)
REMARK    1  A    between atoms: P_1  and  O_2 
REMARK    2  A    between atoms: P_1  and  O_9 
REMARK    3  A    between atoms: O_2  and  C_7 
REMARK    4  A    between atoms: N_3  and  C_16 
REMARK       I    between atoms: N_3  and  C_5 
REMARK    5  A    between atoms: C_5  and  C_19 
REMARK    6  A    between atoms: C_7  and  C_16 
REMARK    7  A    between atoms: C_15  and  C_16 
ROOT
HETATM    1  C           1     -10.945   7.763 -21.057  0.00  0.00     0.210 C 
ENDROOT
BRANCH   1   2
HETATM    2  N           1     -11.682   6.694 -20.412  0.00  0.00    -0.343 N 
HETATM    3  C           1     -11.353   5.389 -20.660  0.00  0.00     0.251 C 
HETATM    4  O           1     -10.450   5.128 -21.417  0.00  0.00    -0.271 OA
HETATM    5  H           1     -12.440   6.914 -19.778  0.00  0.00     0.163 HD
BRANCH   3   6
HETATM    6  C           1     -12.122   4.277 -19.989  0.00  0.00     0.311 C 
HETATM    7  C           1     -11.965   2.974 -20.753  0.00  0.00     0.047 C 
HETATM    8  C           1     -13.173   2.908 -21.680  0.00  0.00     0.033 C 
HETATM    9  C           1     -13.963   4.173 -21.393  0.00  0.00     0.271 C 
HETATM   10  N           1     -13.558   4.537 -20.037  0.00  0.00     0.097 N 
HETATM   11  H           1     -14.055   3.951 -19.365  0.00  0.00     0.317 HD
ENDBRANCH   3   6
ENDBRANCH   1   2
BRANCH   1  12
HETATM   12  C           1     -11.888   8.565 -21.944  0.00  0.00     0.217 C 
BRANCH  12  13
HETATM   13  O           1     -12.952   9.054 -21.173  0.00  0.00    -0.287 OA
BRANCH  13  14
HETATM   14  P           1     -13.434  10.560 -21.504  0.00  0.00     0.406 P 
HETATM   15  O           1     -14.522  10.945 -20.578  0.00  0.00    -0.624 OA
HETATM   16  O           1     -13.927  10.624 -22.899  0.00  0.00    -0.624 OA
BRANCH  14  17
HETATM   17  O           1     -12.191  11.574 -21.325  0.00  0.00    -0.300 OA
HETATM   18  H           1     -11.903  11.765 -22.201  0.00  0.00     0.223 HD
ENDBRANCH  14  17
ENDBRANCH  13  14
ENDBRANCH  12  13
ENDBRANCH   1  12
BRANCH   1  19
HETATM   19  C           1     -10.349   8.669 -20.008  0.00  0.00     0.198 C 
HETATM   20  O           1     -10.385   8.338 -18.803  0.00  0.00    -0.646 OA
HETATM   21  O           1      -9.821   9.751 -20.343  0.00  0.00    -0.646 OA
ENDBRANCH   1  19
TORSDOF 7
ENDMDL
MODEL 9
REMARK VINA RESULT:      -5.2     16.561     18.382
REMARK  7 active torsions:
REMARK  status: ('A' for Active; 'I' for Inactive)
REMARK    1  A    between atoms: P_1  and  O_2 
REMARK    2  A    between atoms: P_1  and  O_9 
REMARK    3  A    between atoms: O_2  and  C_7 
REMARK    4  A    between atoms: N_3  and  C_16 
REMARK       I    between atoms: N_3  and  C_5 
REMARK    5  A    between atoms: C_5  and  C_19 
REMARK    6  A    between atoms: C_7  and  C_16 
REMARK    7  A    between atoms: C_15  and  C_16 
ROOT
HETATM    1  C           1     -21.013  -8.123  -3.997  0.00  0.00     0.210 C 
ENDROOT
BRANCH   1   2
HETATM    2  N           1     -21.044  -8.509  -2.600  0.00  0.00    -0.343 N 
HETATM    3  C           1     -21.784  -9.589  -2.204  0.00  0.00     0.251 C 
HETATM    4  O           1     -22.413 -10.222  -3.019  0.00  0.00    -0.271 OA
HETATM    5  H           1     -20.517  -7.978  -1.918  0.00  0.00     0.163 HD
BRANCH   3   6
HETATM    6  C           1     -21.816  -9.989  -0.749  0.00  0.00     0.311 C 
HETATM    7  C           1     -23.224  -9.884  -0.190  0.00  0.00     0.047 C 
HETATM    8  C           1     -23.296  -8.503   0.449  0.00  0.00     0.033 C 
HETATM    9  C           1     -21.923  -7.892   0.230  0.00  0.00     0.271 C 
HETATM   10  N           1     -21.048  -9.051   0.064  0.00  0.00     0.097 N 
HETATM   11  H           1     -20.838  -9.451   0.979  0.00  0.00     0.317 HD
ENDBRANCH   3   6
ENDBRANCH   1   2
BRANCH   1  12
HETATM   12  C           1     -21.170  -6.612  -4.109  0.00  0.00     0.217 C 
BRANCH  12  13
HETATM   13  O           1     -21.985  -6.306  -5.209  0.00  0.00    -0.287 OA
BRANCH  13  14
HETATM   14  P           1     -21.320  -5.370  -6.345  0.00  0.00     0.406 P 
HETATM   15  O           1     -20.366  -4.431  -5.714  0.00  0.00    -0.624 OA
HETATM   16  O           1     -22.383  -4.605  -7.036  0.00  0.00    -0.624 OA
BRANCH  14  17
HETATM   17  O           1     -20.538  -6.294  -7.413  0.00  0.00    -0.300 OA
HETATM   18  H           1     -19.886  -6.751  -6.910  0.00  0.00     0.223 HD
ENDBRANCH  14  17
ENDBRANCH  13  14
ENDBRANCH  12  13
ENDBRANCH   1  12
BRANCH   1  19
HETATM   19  C           1     -19.697  -8.537  -4.606  0.00  0.00     0.198 C 
HETATM   20  O           1     -19.550  -8.524  -5.847  0.00  0.00    -0.646 OA
HETATM   21  O           1     -18.752  -8.896  -3.870  0.00  0.00    -0.646 OA
ENDBRANCH   1  19
TORSDOF 7
ENDMDL
