MODEL 1
REMARK VINA RESULT:      -8.5      0.000      0.000
REMARK  11 active torsions:
REMARK  status: ('A' for Active; 'I' for Inactive)
REMARK    1  A    between atoms: C_4  and  O_5 
REMARK    2  A    between atoms: O_5  and  P_24 
REMARK    3  A    between atoms: C_6  and  C_22 
REMARK    4  A    between atoms: C_6  and  C_9 
REMARK    5  A    between atoms: C_6  and  N_28 
REMARK    6  A    between atoms: C_9  and  C_25 
REMARK    7  A    between atoms: N_12  and  C_18 
REMARK    8  A    between atoms: C_15  and  C_17 
REMARK    9  A    between atoms: C_17  and  C_18 
REMARK   10  A    between atoms: C_18  and  C_27 
REMARK   11  A    between atoms: P_24  and  O_30 
REMARK       I    between atoms: C_27  and  N_28 
ROOT
HETATM    1  C           1     -32.414  -4.361 -16.394  0.00  0.00     0.189 C 
ENDROOT
BRANCH   1   2
HETATM    2  C           1     -32.494  -3.300 -17.464  0.00  0.00     0.197 C 
HETATM    3  O           1     -31.480  -3.009 -18.134  0.00  0.00    -0.646 OA
HETATM    4  O           1     -33.576  -2.712 -17.680  0.00  0.00    -0.646 OA
ENDBRANCH   1   2
BRANCH   1   5
HETATM    5  C           1     -31.882  -5.654 -16.999  0.00  0.00     0.074 C 
BRANCH   5   6
HETATM    6  C           1     -30.386  -5.648 -16.953  0.00  0.00    -0.056 A 
HETATM    7  C           1     -29.652  -6.062 -18.065  0.00  0.00     0.010 A 
HETATM    8  C           1     -28.258  -6.055 -18.022  0.00  0.00     0.038 A 
HETATM    9  C           1     -27.598  -5.635 -16.867  0.00  0.00     0.081 A 
HETATM   10  C           1     -28.331  -5.221 -15.756  0.00  0.00     0.038 A 
HETATM   11  C           1     -29.726  -5.227 -15.799  0.00  0.00     0.010 A 
BRANCH   9  12
HETATM   12  O           1     -26.243  -5.629 -16.826  0.00  0.00    -0.247 OA
BRANCH  12  13
HETATM   13  P           1     -25.509  -6.722 -15.891  0.00  0.00     0.411 P 
HETATM   14  O           1     -26.511  -7.682 -15.374  0.00  0.00    -0.624 OA
HETATM   15  O           1     -24.494  -7.451 -16.685  0.00  0.00    -0.624 OA
BRANCH  13  16
HETATM   16  O           1     -24.789  -5.975 -14.654  0.00  0.00    -0.300 OA
HETATM   17  H           1     -24.738  -5.070 -14.912  0.00  0.00     0.223 HD
ENDBRANCH  13  16
ENDBRANCH  12  13
ENDBRANCH   9  12
ENDBRANCH   5   6
ENDBRANCH   1   5
BRANCH   1  18
HETATM   18  N           1     -33.735  -4.593 -15.844  0.00  0.00    -0.344 N 
HETATM   19  H           1     -34.347  -5.278 -16.269  0.00  0.00     0.163 HD
HETATM   20  C           1     -34.156  -3.885 -14.751  0.00  0.00     0.249 C 
HETATM   21  O           1     -34.731  -2.834 -14.896  0.00  0.00    -0.271 OA
BRANCH  20  22
HETATM   22  C           1     -33.899  -4.419 -13.363  0.00  0.00     0.275 C 
BRANCH  22  23
HETATM   23  N           1     -32.420  -4.517 -13.130  0.00  0.00    -0.066 N 
HETATM   24  H           1     -32.240  -4.991 -12.217  0.00  0.00     0.275 HD
HETATM   25  H           1     -31.982  -5.071 -13.902  0.00  0.00     0.275 HD
HETATM   26  H           1     -32.006  -3.557 -13.112  0.00  0.00     0.275 HD
ENDBRANCH  22  23
BRANCH  22  27
HETATM   27  C           1     -34.512  -3.478 -12.334  0.00  0.00     0.046 C 
BRANCH  27  28
HETATM   28  C           1     -33.691  -3.520 -11.053  0.00  0.00    -0.020 C 
HETATM   29  C           1     -34.161  -4.681 -10.187  0.00  0.00     0.009 C 
HETATM   30  C           1     -33.869  -2.214 -10.291  0.00  0.00     0.009 C 
ENDBRANCH  27  28
ENDBRANCH  22  27
ENDBRANCH  20  22
ENDBRANCH   1  18
TORSDOF 11
ENDMDL
MODEL 2
REMARK VINA RESULT:      -7.9     12.203     14.598
REMARK  11 active torsions:
REMARK  status: ('A' for Active; 'I' for Inactive)
REMARK    1  A    between atoms: C_4  and  O_5 
REMARK    2  A    between atoms: O_5  and  P_24 
REMARK    3  A    between atoms: C_6  and  C_22 
REMARK    4  A    between atoms: C_6  and  C_9 
REMARK    5  A    between atoms: C_6  and  N_28 
REMARK    6  A    between atoms: C_9  and  C_25 
REMARK    7  A    between atoms: N_12  and  C_18 
REMARK    8  A    between atoms: C_15  and  C_17 
REMARK    9  A    between atoms: C_17  and  C_18 
REMARK   10  A    between atoms: C_18  and  C_27 
REMARK   11  A    between atoms: P_24  and  O_30 
REMARK       I    between atoms: C_27  and  N_28 
ROOT
HETATM    1  C           1     -21.205  -7.793  -5.407  0.00  0.00     0.189 C 
ENDROOT
BRANCH   1   2
HETATM    2  C           1     -20.292  -8.919  -4.988  0.00  0.00     0.197 C 
HETATM    3  O           1     -20.733 -10.086  -4.911  0.00  0.00    -0.646 OA
HETATM    4  O           1     -19.094  -8.684  -4.717  0.00  0.00    -0.646 OA
ENDBRANCH   1   2
BRANCH   1   5
HETATM    5  C           1     -20.396  -6.510  -5.553  0.00  0.00     0.074 C 
BRANCH   5   6
HETATM    6  C           1     -20.944  -5.702  -6.687  0.00  0.00    -0.056 A 
HETATM    7  C           1     -22.167  -5.045  -6.551  0.00  0.00     0.010 A 
HETATM    8  C           1     -22.677  -4.291  -7.607  0.00  0.00     0.038 A 
HETATM    9  C           1     -21.963  -4.194  -8.801  0.00  0.00     0.081 A 
HETATM   10  C           1     -20.740  -4.849  -8.939  0.00  0.00     0.038 A 
HETATM   11  C           1     -20.230  -5.603  -7.882  0.00  0.00     0.010 A 
BRANCH   9  12
HETATM   12  O           1     -22.458  -3.461  -9.828  0.00  0.00    -0.247 OA
BRANCH  12  13
HETATM   13  P           1     -23.547  -4.155 -10.798  0.00  0.00     0.411 P 
HETATM   14  O           1     -23.950  -5.462 -10.232  0.00  0.00    -0.624 OA
HETATM   15  O           1     -24.736  -3.281 -10.913  0.00  0.00    -0.624 OA
BRANCH  13  16
HETATM   16  O           1     -22.900  -4.378 -12.261  0.00  0.00    -0.300 OA
HETATM   17  H           1     -22.380  -5.160 -12.181  0.00  0.00     0.223 HD
ENDBRANCH  13  16
ENDBRANCH  12  13
ENDBRANCH   9  12
ENDBRANCH   5   6
ENDBRANCH   1   5
BRANCH   1  18
HETATM   18  N           1     -22.231  -7.603  -4.400  0.00  0.00    -0.344 N 
HETATM   19  H           1     -23.181  -7.900  -4.582  0.00  0.00     0.163 HD
HETATM   20  C           1     -21.914  -7.021  -3.202  0.00  0.00     0.249 C 
HETATM   21  O           1     -21.991  -5.822  -3.073  0.00  0.00    -0.271 OA
BRANCH  20  22
HETATM   22  C           1     -21.468  -7.877  -2.042  0.00  0.00     0.275 C 
BRANCH  22  23
HETATM   23  N           1     -19.970  -7.858  -1.955  0.00  0.00    -0.066 N 
HETATM   24  H           1     -19.627  -8.793  -1.639  0.00  0.00     0.275 HD
HETATM   25  H           1     -19.569  -7.639  -2.895  0.00  0.00     0.275 HD
HETATM   26  H           1     -19.671  -7.128  -1.270  0.00  0.00     0.275 HD
ENDBRANCH  22  23
BRANCH  22  27
HETATM   27  C           1     -22.058  -7.330  -0.749  0.00  0.00     0.046 C 
BRANCH  27  28
HETATM   28  C           1     -22.427  -8.486   0.170  0.00  0.00    -0.020 C 
HETATM   29  C           1     -21.271  -8.767   1.121  0.00  0.00     0.009 C 
HETATM   30  C           1     -22.712  -9.727  -0.664  0.00  0.00     0.009 C 
ENDBRANCH  27  28
ENDBRANCH  22  27
ENDBRANCH  20  22
ENDBRANCH   1  18
TORSDOF 11
ENDMDL
MODEL 3
REMARK VINA RESULT:      -7.7     12.300     14.691
REMARK  11 active torsions:
REMARK  status: ('A' for Active; 'I' for Inactive)
REMARK    1  A    between atoms: C_4  and  O_5 
REMARK    2  A    between atoms: O_5  and  P_24 
REMARK    3  A    between atoms: C_6  and  C_22 
REMARK    4  A    between atoms: C_6  and  C_9 
REMARK    5  A    between atoms: C_6  and  N_28 
REMARK    6  A    between atoms: C_9  and  C_25 
REMARK    7  A    between atoms: N_12  and  C_18 
REMARK    8  A    between atoms: C_15  and  C_17 
REMARK    9  A    between atoms: C_17  and  C_18 
REMARK   10  A    between atoms: C_18  and  C_27 
REMARK   11  A    between atoms: P_24  and  O_30 
REMARK       I    between atoms: C_27  and  N_28 
ROOT
HETATM    1  C           1     -21.229  -8.001  -5.382  0.00  0.00     0.189 C 
ENDROOT
BRANCH   1   2
HETATM    2  C           1     -20.353  -9.227  -5.291  0.00  0.00     0.197 C 
HETATM    3  O           1     -19.128  -9.139  -5.525  0.00  0.00    -0.646 OA
HETATM    4  O           1     -20.853 -10.330  -4.983  0.00  0.00    -0.646 OA
ENDBRANCH   1   2
BRANCH   1   5
HETATM    5  C           1     -20.357  -6.767  -5.575  0.00  0.00     0.074 C 
BRANCH   5   6
HETATM    6  C           1     -20.988  -5.865  -6.589  0.00  0.00    -0.056 A 
HETATM    7  C           1     -20.335  -5.606  -7.795  0.00  0.00     0.010 A 
HETATM    8  C           1     -20.923  -4.766  -8.740  0.00  0.00     0.038 A 
HETATM    9  C           1     -22.164  -4.184  -8.480  0.00  0.00     0.081 A 
HETATM   10  C           1     -22.817  -4.443  -7.275  0.00  0.00     0.038 A 
HETATM   11  C           1     -22.229  -5.284  -6.329  0.00  0.00     0.010 A 
BRANCH   9  12
HETATM   12  O           1     -22.735  -3.368  -9.398  0.00  0.00    -0.247 OA
BRANCH  12  13
HETATM   13  P           1     -23.579  -4.048 -10.596  0.00  0.00     0.411 P 
HETATM   14  O           1     -22.747  -4.098 -11.819  0.00  0.00    -0.624 OA
HETATM   15  O           1     -23.967  -5.423 -10.208  0.00  0.00    -0.624 OA
BRANCH  13  16
HETATM   16  O           1     -24.907  -3.174 -10.881  0.00  0.00    -0.300 OA
HETATM   17  H           1     -24.592  -2.305 -11.065  0.00  0.00     0.223 HD
ENDBRANCH  13  16
ENDBRANCH  12  13
ENDBRANCH   9  12
ENDBRANCH   5   6
ENDBRANCH   1   5
BRANCH   1  18
HETATM   18  N           1     -21.995  -7.864  -4.158  0.00  0.00    -0.344 N 
HETATM   19  H           1     -22.994  -8.025  -4.165  0.00  0.00     0.163 HD
HETATM   20  C           1     -21.367  -7.515  -2.993  0.00  0.00     0.249 C 
HETATM   21  O           1     -21.250  -6.350  -2.695  0.00  0.00    -0.271 OA
BRANCH  20  22
HETATM   22  C           1     -20.818  -8.585  -2.083  0.00  0.00     0.275 C 
BRANCH  22  23
HETATM   23  N           1     -19.375  -8.830  -2.411  0.00  0.00    -0.066 N 
HETATM   24  H           1     -19.307  -9.474  -3.231  0.00  0.00     0.275 HD
HETATM   25  H           1     -18.912  -7.921  -2.644  0.00  0.00     0.275 HD
HETATM   26  H           1     -18.899  -9.263  -1.587  0.00  0.00     0.275 HD
ENDBRANCH  22  23
BRANCH  22  27
HETATM   27  C           1     -20.938  -8.131  -0.634  0.00  0.00     0.046 C 
BRANCH  27  28
HETATM   28  C           1     -22.014  -8.950   0.068  0.00  0.00    -0.020 C 
HETATM   29  C           1     -22.475 -10.074  -0.850  0.00  0.00     0.009 C 
HETATM   30  C           1     -23.196  -8.052   0.405  0.00  0.00     0.009 C 
ENDBRANCH  27  28
ENDBRANCH  22  27
ENDBRANCH  20  22
ENDBRANCH   1  18
TORSDOF 11
ENDMDL
MODEL 4
REMARK VINA RESULT:      -7.1     13.768     16.173
REMARK  11 active torsions:
REMARK  status: ('A' for Active; 'I' for Inactive)
REMARK    1  A    between atoms: C_4  and  O_5 
REMARK    2  A    between atoms: O_5  and  P_24 
REMARK    3  A    between atoms: C_6  and  C_22 
REMARK    4  A    between atoms: C_6  and  C_9 
REMARK    5  A    between atoms: C_6  and  N_28 
REMARK    6  A    between atoms: C_9  and  C_25 
REMARK    7  A    between atoms: N_12  and  C_18 
REMARK    8  A    between atoms: C_15  and  C_17 
REMARK    9  A    between atoms: C_17  and  C_18 
REMARK   10  A    between atoms: C_18  and  C_27 
REMARK   11  A    between atoms: P_24  and  O_30 
REMARK       I    between atoms: C_27  and  N_28 
ROOT
HETATM    1  C           1     -21.462  -7.783  -2.308  0.00  0.00     0.189 C 
ENDROOT
BRANCH   1   2
HETATM    2  C           1     -22.175  -7.747  -0.978  0.00  0.00     0.197 C 
HETATM    3  O           1     -22.176  -8.758  -0.242  0.00  0.00    -0.646 OA
HETATM    4  O           1     -22.764  -6.707  -0.613  0.00  0.00    -0.646 OA
ENDBRANCH   1   2
BRANCH   1   5
HETATM    5  C           1     -20.025  -8.245  -2.102  0.00  0.00     0.074 C 
BRANCH   5   6
HETATM    6  C           1     -19.719  -9.362  -3.050  0.00  0.00    -0.056 A 
HETATM    7  C           1     -18.763  -9.187  -4.050  0.00  0.00     0.010 A 
HETATM    8  C           1     -18.478 -10.229  -4.933  0.00  0.00     0.038 A 
HETATM    9  C           1     -19.150 -11.446  -4.815  0.00  0.00     0.081 A 
HETATM   10  C           1     -20.105 -11.622  -3.816  0.00  0.00     0.038 A 
HETATM   11  C           1     -20.390 -10.579  -2.932  0.00  0.00     0.010 A 
BRANCH   9  12
HETATM   12  O           1     -18.872 -12.457  -5.673  0.00  0.00    -0.247 OA
BRANCH  12  13
HETATM   13  P           1     -19.624 -12.466  -7.103  0.00  0.00     0.411 P 
HETATM   14  O           1     -18.755 -11.834  -8.121  0.00  0.00    -0.624 OA
HETATM   15  O           1     -19.914 -13.862  -7.501  0.00  0.00    -0.624 OA
BRANCH  13  16
HETATM   16  O           1     -21.008 -11.642  -6.988  0.00  0.00    -0.300 OA
HETATM   17  H           1     -21.054 -11.368  -6.087  0.00  0.00     0.223 HD
ENDBRANCH  13  16
ENDBRANCH  12  13
ENDBRANCH   9  12
ENDBRANCH   5   6
ENDBRANCH   1   5
BRANCH   1  18
HETATM   18  N           1     -21.462  -6.455  -2.891  0.00  0.00    -0.344 N 
HETATM   19  H           1     -21.290  -5.646  -2.308  0.00  0.00     0.163 HD
HETATM   20  C           1     -21.696  -6.296  -4.230  0.00  0.00     0.249 C 
HETATM   21  O           1     -22.825  -6.145  -4.633  0.00  0.00    -0.271 OA
BRANCH  20  22
HETATM   22  C           1     -20.544  -6.312  -5.204  0.00  0.00     0.275 C 
BRANCH  22  23
HETATM   23  N           1     -20.908  -7.145  -6.397  0.00  0.00    -0.066 N 
HETATM   24  H           1     -21.167  -6.521  -7.194  0.00  0.00     0.275 HD
HETATM   25  H           1     -20.091  -7.738  -6.670  0.00  0.00     0.275 HD
HETATM   26  H           1     -21.720  -7.759  -6.158  0.00  0.00     0.275 HD
ENDBRANCH  22  23
BRANCH  22  27
HETATM   27  C           1     -20.240  -4.889  -5.654  0.00  0.00     0.046 C 
BRANCH  27  28
HETATM   28  C           1     -20.539  -4.751  -7.141  0.00  0.00    -0.020 C 
HETATM   29  C           1     -19.276  -4.325  -7.876  0.00  0.00     0.009 C 
HETATM   30  C           1     -21.623  -3.702  -7.346  0.00  0.00     0.009 C 
ENDBRANCH  27  28
ENDBRANCH  22  27
ENDBRANCH  20  22
ENDBRANCH   1  18
TORSDOF 11
ENDMDL
MODEL 5
REMARK VINA RESULT:      -7.0     12.957     15.494
REMARK  11 active torsions:
REMARK  status: ('A' for Active; 'I' for Inactive)
REMARK    1  A    between atoms: C_4  and  O_5 
REMARK    2  A    between atoms: O_5  and  P_24 
REMARK    3  A    between atoms: C_6  and  C_22 
REMARK    4  A    between atoms: C_6  and  C_9 
REMARK    5  A    between atoms: C_6  and  N_28 
REMARK    6  A    between atoms: C_9  and  C_25 
REMARK    7  A    between atoms: N_12  and  C_18 
REMARK    8  A    between atoms: C_15  and  C_17 
REMARK    9  A    between atoms: C_17  and  C_18 
REMARK   10  A    between atoms: C_18  and  C_27 
REMARK   11  A    between atoms: P_24  and  O_30 
REMARK       I    between atoms: C_27  and  N_28 
ROOT
HETATM    1  C           1     -21.139  -7.017  -5.983  0.00  0.00     0.189 C 
ENDROOT
BRANCH   1   2
HETATM    2  C           1     -21.835  -6.182  -4.936  0.00  0.00     0.197 C 
HETATM    3  O           1     -21.164  -5.573  -4.074  0.00  0.00    -0.646 OA
HETATM    4  O           1     -23.082  -6.099  -4.931  0.00  0.00    -0.646 OA
ENDBRANCH   1   2
BRANCH   1   5
HETATM    5  C           1     -19.928  -7.702  -5.363  0.00  0.00     0.074 C 
BRANCH   5   6
HETATM    6  C           1     -20.386  -8.707  -4.352  0.00  0.00    -0.056 A 
HETATM    7  C           1     -19.708  -8.837  -3.140  0.00  0.00     0.010 A 
HETATM    8  C           1     -20.136  -9.773  -2.198  0.00  0.00     0.038 A 
HETATM    9  C           1     -21.242 -10.579  -2.470  0.00  0.00     0.081 A 
HETATM   10  C           1     -21.920 -10.449  -3.681  0.00  0.00     0.038 A 
HETATM   11  C           1     -21.492  -9.512  -4.623  0.00  0.00     0.010 A 
BRANCH   9  12
HETATM   12  O           1     -21.657 -11.488  -1.555  0.00  0.00    -0.247 OA
BRANCH  12  13
HETATM   13  P           1     -22.340 -10.940  -0.197  0.00  0.00     0.411 P 
HETATM   14  O           1     -23.360 -11.906   0.267  0.00  0.00    -0.624 OA
HETATM   15  O           1     -21.303 -10.779   0.847  0.00  0.00    -0.624 OA
BRANCH  13  16
HETATM   16  O           1     -23.039  -9.513  -0.485  0.00  0.00    -0.300 OA
HETATM   17  H           1     -22.658  -9.214  -1.294  0.00  0.00     0.223 HD
ENDBRANCH  13  16
ENDBRANCH  12  13
ENDBRANCH   9  12
ENDBRANCH   5   6
ENDBRANCH   1   5
BRANCH   1  18
HETATM   18  N           1     -20.705  -6.163  -7.071  0.00  0.00    -0.344 N 
HETATM   19  H           1     -19.981  -6.479  -7.704  0.00  0.00     0.163 HD
HETATM   20  C           1     -21.274  -4.930  -7.242  0.00  0.00     0.249 C 
HETATM   21  O           1     -20.797  -3.964  -6.695  0.00  0.00    -0.271 OA
BRANCH  20  22
HETATM   22  C           1     -22.496  -4.777  -8.112  0.00  0.00     0.275 C 
BRANCH  22  23
HETATM   23  N           1     -23.662  -4.353  -7.268  0.00  0.00    -0.066 N 
HETATM   24  H           1     -23.693  -3.310  -7.213  0.00  0.00     0.275 HD
HETATM   25  H           1     -24.548  -4.705  -7.696  0.00  0.00     0.275 HD
HETATM   26  H           1     -23.557  -4.749  -6.307  0.00  0.00     0.275 HD
ENDBRANCH  22  23
BRANCH  22  27
HETATM   27  C           1     -22.233  -3.722  -9.179  0.00  0.00     0.046 C 
BRANCH  27  28
HETATM   28  C           1     -21.941  -4.405 -10.508  0.00  0.00    -0.020 C 
HETATM   29  C           1     -21.105  -3.478 -11.381  0.00  0.00     0.009 C 
HETATM   30  C           1     -23.251  -4.723 -11.215  0.00  0.00     0.009 C 
ENDBRANCH  27  28
ENDBRANCH  22  27
ENDBRANCH  20  22
ENDBRANCH   1  18
TORSDOF 11
ENDMDL
MODEL 6
REMARK VINA RESULT:      -6.9     13.031     15.408
REMARK  11 active torsions:
REMARK  status: ('A' for Active; 'I' for Inactive)
REMARK    1  A    between atoms: C_4  and  O_5 
REMARK    2  A    between atoms: O_5  and  P_24 
REMARK    3  A    between atoms: C_6  and  C_22 
REMARK    4  A    between atoms: C_6  and  C_9 
REMARK    5  A    between atoms: C_6  and  N_28 
REMARK    6  A    between atoms: C_9  and  C_25 
REMARK    7  A    between atoms: N_12  and  C_18 
REMARK    8  A    between atoms: C_15  and  C_17 
REMARK    9  A    between atoms: C_17  and  C_18 
REMARK   10  A    between atoms: C_18  and  C_27 
REMARK   11  A    between atoms: P_24  and  O_30 
REMARK       I    between atoms: C_27  and  N_28 
ROOT
HETATM    1  C           1     -21.064  -9.959  -4.610  0.00  0.00     0.189 C 
ENDROOT
BRANCH   1   2
HETATM    2  C           1     -20.739 -10.863  -5.773  0.00  0.00     0.197 C 
HETATM    3  O           1     -21.625 -11.601  -6.258  0.00  0.00    -0.646 OA
HETATM    4  O           1     -19.585 -10.875  -6.252  0.00  0.00    -0.646 OA
ENDBRANCH   1   2
BRANCH   1   5
HETATM    5  C           1     -20.026  -8.846  -4.527  0.00  0.00     0.074 C 
BRANCH   5   6
HETATM    6  C           1     -20.576  -7.604  -5.158  0.00  0.00    -0.056 A 
HETATM    7  C           1     -21.889  -7.211  -4.898  0.00  0.00     0.010 A 
HETATM    8  C           1     -22.401  -6.054  -5.484  0.00  0.00     0.038 A 
HETATM    9  C           1     -21.598  -5.289  -6.331  0.00  0.00     0.081 A 
HETATM   10  C           1     -20.286  -5.680  -6.591  0.00  0.00     0.038 A 
HETATM   11  C           1     -19.774  -6.839  -6.004  0.00  0.00     0.010 A 
BRANCH   9  12
HETATM   12  O           1     -22.096  -4.165  -6.901  0.00  0.00    -0.247 OA
BRANCH  12  13
HETATM   13  P           1     -22.314  -4.159  -8.501  0.00  0.00     0.411 P 
HETATM   14  O           1     -21.083  -3.675  -9.165  0.00  0.00    -0.624 OA
HETATM   15  O           1     -22.615  -5.532  -8.964  0.00  0.00    -0.624 OA
BRANCH  13  16
HETATM   16  O           1     -23.547  -3.184  -8.873  0.00  0.00    -0.300 OA
HETATM   17  H           1     -24.034  -3.092  -8.071  0.00  0.00     0.223 HD
ENDBRANCH  13  16
ENDBRANCH  12  13
ENDBRANCH   9  12
ENDBRANCH   5   6
ENDBRANCH   1   5
BRANCH   1  18
HETATM   18  N           1     -21.044 -10.728  -3.381  0.00  0.00    -0.344 N 
HETATM   19  H           1     -20.161 -10.992  -2.963  0.00  0.00     0.163 HD
HETATM   20  C           1     -22.220 -11.097  -2.785  0.00  0.00     0.249 C 
HETATM   21  O           1     -22.743 -12.145  -3.078  0.00  0.00    -0.271 OA
BRANCH  20  22
HETATM   22  C           1     -22.864 -10.192  -1.764  0.00  0.00     0.275 C 
BRANCH  22  23
HETATM   23  N           1     -23.573 -11.024  -0.736  0.00  0.00    -0.066 N 
HETATM   24  H           1     -23.150 -11.980  -0.708  0.00  0.00     0.275 HD
HETATM   25  H           1     -23.476 -10.574   0.203  0.00  0.00     0.275 HD
HETATM   26  H           1     -24.585 -11.097  -0.985  0.00  0.00     0.275 HD
ENDBRANCH  22  23
BRANCH  22  27
HETATM   27  C           1     -21.794  -9.349  -1.084  0.00  0.00     0.046 C 
BRANCH  27  28
HETATM   28  C           1     -22.455  -8.218  -0.307  0.00  0.00    -0.020 C 
HETATM   29  C           1     -22.267  -6.908  -1.060  0.00  0.00     0.009 C 
HETATM   30  C           1     -21.818  -8.108   1.070  0.00  0.00     0.009 C 
ENDBRANCH  27  28
ENDBRANCH  22  27
ENDBRANCH  20  22
ENDBRANCH   1  18
TORSDOF 11
ENDMDL
MODEL 7
REMARK VINA RESULT:      -6.9     15.356     17.348
REMARK  11 active torsions:
REMARK  status: ('A' for Active; 'I' for Inactive)
REMARK    1  A    between atoms: C_4  and  O_5 
REMARK    2  A    between atoms: O_5  and  P_24 
REMARK    3  A    between atoms: C_6  and  C_22 
REMARK    4  A    between atoms: C_6  and  C_9 
REMARK    5  A    between atoms: C_6  and  N_28 
REMARK    6  A    between atoms: C_9  and  C_25 
REMARK    7  A    between atoms: N_12  and  C_18 
REMARK    8  A    between atoms: C_15  and  C_17 
REMARK    9  A    between atoms: C_17  and  C_18 
REMARK   10  A    between atoms: C_18  and  C_27 
REMARK   11  A    between atoms: P_24  and  O_30 
REMARK       I    between atoms: C_27  and  N_28 
ROOT
HETATM    1  C           1     -20.590  -7.398  -4.446  0.00  0.00     0.189 C 
ENDROOT
BRANCH   1   2
HETATM    2  C           1     -20.724  -6.359  -5.533  0.00  0.00     0.197 C 
HETATM    3  O           1     -20.700  -5.144  -5.242  0.00  0.00    -0.646 OA
HETATM    4  O           1     -20.859  -6.715  -6.723  0.00  0.00    -0.646 OA
ENDBRANCH   1   2
BRANCH   1   5
HETATM    5  C           1     -20.333  -8.761  -5.076  0.00  0.00     0.074 C 
BRANCH   5   6
HETATM    6  C           1     -18.994  -9.268  -4.639  0.00  0.00    -0.056 A 
HETATM    7  C           1     -18.039  -9.626  -5.591  0.00  0.00     0.010 A 
HETATM    8  C           1     -16.791 -10.097  -5.184  0.00  0.00     0.038 A 
HETATM    9  C           1     -16.498 -10.210  -3.825  0.00  0.00     0.081 A 
HETATM   10  C           1     -17.452  -9.853  -2.873  0.00  0.00     0.038 A 
HETATM   11  C           1     -18.701  -9.381  -3.280  0.00  0.00     0.010 A 
BRANCH   9  12
HETATM   12  O           1     -15.285 -10.668  -3.430  0.00  0.00    -0.247 OA
BRANCH  12  13
HETATM   13  P           1     -15.155 -12.230  -3.040  0.00  0.00     0.411 P 
HETATM   14  O           1     -13.801 -12.715  -3.389  0.00  0.00    -0.624 OA
HETATM   15  O           1     -15.378 -12.397  -1.586  0.00  0.00    -0.624 OA
BRANCH  13  16
HETATM   16  O           1     -16.260 -13.082  -3.855  0.00  0.00    -0.300 OA
HETATM   17  H           1     -15.925 -13.135  -4.734  0.00  0.00     0.223 HD
ENDBRANCH  13  16
ENDBRANCH  12  13
ENDBRANCH   9  12
ENDBRANCH   5   6
ENDBRANCH   1   5
BRANCH   1  18
HETATM   18  N           1     -21.815  -7.447  -3.672  0.00  0.00    -0.344 N 
HETATM   19  H           1     -22.647  -7.867  -4.067  0.00  0.00     0.163 HD
HETATM   20  C           1     -21.847  -6.925  -2.407  0.00  0.00     0.249 C 
HETATM   21  O           1     -22.144  -5.766  -2.239  0.00  0.00    -0.271 OA
BRANCH  20  22
HETATM   22  C           1     -21.510  -7.796  -1.223  0.00  0.00     0.275 C 
BRANCH  22  23
HETATM   23  N           1     -22.213  -7.276  -0.003  0.00  0.00    -0.066 N 
HETATM   24  H           1     -22.495  -6.282  -0.160  0.00  0.00     0.275 HD
HETATM   25  H           1     -23.065  -7.854   0.180  0.00  0.00     0.275 HD
HETATM   26  H           1     -21.571  -7.331   0.819  0.00  0.00     0.275 HD
ENDBRANCH  22  23
BRANCH  22  27
HETATM   27  C           1     -21.961  -9.224  -1.497  0.00  0.00     0.046 C 
BRANCH  27  28
HETATM   28  C           1     -22.417  -9.873  -0.197  0.00  0.00    -0.020 C 
HETATM   29  C           1     -21.329 -10.811   0.310  0.00  0.00     0.009 C 
HETATM   30  C           1     -23.694 -10.663  -0.443  0.00  0.00     0.009 C 
ENDBRANCH  27  28
ENDBRANCH  22  27
ENDBRANCH  20  22
ENDBRANCH   1  18
TORSDOF 11
ENDMDL
MODEL 8
REMARK VINA RESULT:      -6.9     14.404     16.745
REMARK  11 active torsions:
REMARK  status: ('A' for Active; 'I' for Inactive)
REMARK    1  A    between atoms: C_4  and  O_5 
REMARK    2  A    between atoms: O_5  and  P_24 
REMARK    3  A    between atoms: C_6  and  C_22 
REMARK    4  A    between atoms: C_6  and  C_9 
REMARK    5  A    between atoms: C_6  and  N_28 
REMARK    6  A    between atoms: C_9  and  C_25 
REMARK    7  A    between atoms: N_12  and  C_18 
REMARK    8  A    between atoms: C_15  and  C_17 
REMARK    9  A    between atoms: C_17  and  C_18 
REMARK   10  A    between atoms: C_18  and  C_27 
REMARK   11  A    between atoms: P_24  and  O_30 
REMARK       I    between atoms: C_27  and  N_28 
ROOT
HETATM    1  C           1     -20.670  -8.590  -3.116  0.00  0.00     0.189 C 
ENDROOT
BRANCH   1   2
HETATM    2  C           1     -21.820  -9.229  -2.376  0.00  0.00     0.197 C 
HETATM    3  O           1     -22.214  -8.744  -1.293  0.00  0.00    -0.646 OA
HETATM    4  O           1     -22.378 -10.244  -2.846  0.00  0.00    -0.646 OA
ENDBRANCH   1   2
BRANCH   1   5
HETATM    5  C           1     -19.371  -8.864  -2.369  0.00  0.00     0.074 C 
BRANCH   5   6
HETATM    6  C           1     -18.322  -9.310  -3.340  0.00  0.00    -0.056 A 
HETATM    7  C           1     -18.669  -9.594  -4.661  0.00  0.00     0.010 A 
HETATM    8  C           1     -17.692 -10.009  -5.565  0.00  0.00     0.038 A 
HETATM    9  C           1     -16.367 -10.139  -5.149  0.00  0.00     0.081 A 
HETATM   10  C           1     -16.019  -9.854  -3.829  0.00  0.00     0.038 A 
HETATM   11  C           1     -16.997  -9.439  -2.924  0.00  0.00     0.010 A 
BRANCH   9  12
HETATM   12  O           1     -15.417 -10.541  -6.028  0.00  0.00    -0.247 OA
BRANCH  12  13
HETATM   13  P           1     -15.252 -12.126  -6.292  0.00  0.00     0.411 P 
HETATM   14  O           1     -16.229 -12.560  -7.315  0.00  0.00    -0.624 OA
HETATM   15  O           1     -13.880 -12.407  -6.771  0.00  0.00    -0.624 OA
BRANCH  13  16
HETATM   16  O           1     -15.517 -12.931  -4.916  0.00  0.00    -0.300 OA
HETATM   17  H           1     -14.808 -12.680  -4.347  0.00  0.00     0.223 HD
ENDBRANCH  13  16
ENDBRANCH  12  13
ENDBRANCH   9  12
ENDBRANCH   5   6
ENDBRANCH   1   5
BRANCH   1  18
HETATM   18  N           1     -20.885  -7.158  -3.198  0.00  0.00    -0.344 N 
HETATM   19  H           1     -20.713  -6.573  -2.391  0.00  0.00     0.163 HD
HETATM   20  C           1     -21.323  -6.599  -4.368  0.00  0.00     0.249 C 
HETATM   21  O           1     -22.507  -6.484  -4.578  0.00  0.00    -0.271 OA
BRANCH  20  22
HETATM   22  C           1     -20.326  -6.126  -5.397  0.00  0.00     0.275 C 
BRANCH  22  23
HETATM   23  N           1     -20.346  -7.052  -6.576  0.00  0.00    -0.066 N 
HETATM   24  H           1     -19.848  -7.938  -6.333  0.00  0.00     0.275 HD
HETATM   25  H           1     -21.337  -7.270  -6.831  0.00  0.00     0.275 HD
HETATM   26  H           1     -19.870  -6.596  -7.386  0.00  0.00     0.275 HD
ENDBRANCH  22  23
BRANCH  22  27
HETATM   27  C           1     -20.693  -4.719  -5.851  0.00  0.00     0.046 C 
BRANCH  27  28
HETATM   28  C           1     -20.986  -4.728  -7.346  0.00  0.00    -0.020 C 
HETATM   29  C           1     -19.951  -3.879  -8.071  0.00  0.00     0.009 C 
HETATM   30  C           1     -22.375  -4.156  -7.594  0.00  0.00     0.009 C 
ENDBRANCH  27  28
ENDBRANCH  22  27
ENDBRANCH  20  22
ENDBRANCH   1  18
TORSDOF 11
ENDMDL
MODEL 9
REMARK VINA RESULT:      -6.7     16.572     19.016
REMARK  11 active torsions:
REMARK  status: ('A' for Active; 'I' for Inactive)
REMARK    1  A    between atoms: C_4  and  O_5 
REMARK    2  A    between atoms: O_5  and  P_24 
REMARK    3  A    between atoms: C_6  and  C_22 
REMARK    4  A    between atoms: C_6  and  C_9 
REMARK    5  A    between atoms: C_6  and  N_28 
REMARK    6  A    between atoms: C_9  and  C_25 
REMARK    7  A    between atoms: N_12  and  C_18 
REMARK    8  A    between atoms: C_15  and  C_17 
REMARK    9  A    between atoms: C_17  and  C_18 
REMARK   10  A    between atoms: C_18  and  C_27 
REMARK   11  A    between atoms: P_24  and  O_30 
REMARK       I    between atoms: C_27  and  N_28 
ROOT
HETATM    1  C           1     -21.475  -8.067  -1.663  0.00  0.00     0.189 C 
ENDROOT
BRANCH   1   2
HETATM    2  C           1     -22.004  -6.691  -1.989  0.00  0.00     0.197 C 
HETATM    3  O           1     -22.020  -6.292  -3.174  0.00  0.00    -0.646 OA
HETATM    4  O           1     -22.424  -5.951  -1.075  0.00  0.00    -0.646 OA
ENDBRANCH   1   2
BRANCH   1   5
HETATM    5  C           1     -21.646  -8.336  -0.173  0.00  0.00     0.074 C 
BRANCH   5   6
HETATM    6  C           1     -22.148  -9.732   0.026  0.00  0.00    -0.056 A 
HETATM    7  C           1     -23.473 -10.047  -0.275  0.00  0.00     0.010 A 
HETATM    8  C           1     -23.941 -11.348  -0.090  0.00  0.00     0.038 A 
HETATM    9  C           1     -23.083 -12.334   0.398  0.00  0.00     0.081 A 
HETATM   10  C           1     -21.759 -12.020   0.699  0.00  0.00     0.038 A 
HETATM   11  C           1     -21.291 -10.718   0.513  0.00  0.00     0.010 A 
BRANCH   9  12
HETATM   12  O           1     -23.538 -13.598   0.578  0.00  0.00    -0.247 OA
BRANCH  12  13
HETATM   13  P           1     -23.594 -14.573  -0.708  0.00  0.00     0.411 P 
HETATM   14  O           1     -22.928 -15.855  -0.384  0.00  0.00    -0.624 OA
HETATM   15  O           1     -25.005 -14.831  -1.073  0.00  0.00    -0.624 OA
BRANCH  13  16
HETATM   16  O           1     -22.836 -13.871  -1.950  0.00  0.00    -0.300 OA
HETATM   17  H           1     -22.004 -14.309  -2.006  0.00  0.00     0.223 HD
ENDBRANCH  13  16
ENDBRANCH  12  13
ENDBRANCH   9  12
ENDBRANCH   5   6
ENDBRANCH   1   5
BRANCH   1  18
HETATM   18  N           1     -20.068  -8.137  -2.007  0.00  0.00    -0.344 N 
HETATM   19  H           1     -19.404  -7.525  -1.550  0.00  0.00     0.163 HD
HETATM   20  C           1     -19.638  -9.030  -2.951  0.00  0.00     0.249 C 
HETATM   21  O           1     -19.597  -8.707  -4.115  0.00  0.00    -0.271 OA
BRANCH  20  22
HETATM   22  C           1     -19.218 -10.419  -2.540  0.00  0.00     0.275 C 
BRANCH  22  23
HETATM   23  N           1     -20.311 -11.392  -2.873  0.00  0.00    -0.066 N 
HETATM   24  H           1     -20.126 -11.817  -3.809  0.00  0.00     0.275 HD
HETATM   25  H           1     -20.339 -12.145  -2.148  0.00  0.00     0.275 HD
HETATM   26  H           1     -21.228 -10.891  -2.892  0.00  0.00     0.275 HD
ENDBRANCH  22  23
BRANCH  22  27
HETATM   27  C           1     -17.948 -10.808  -3.285  0.00  0.00     0.046 C 
BRANCH  27  28
HETATM   28  C           1     -16.755 -10.093  -2.665  0.00  0.00    -0.020 C 
HETATM   29  C           1     -15.842  -9.579  -3.770  0.00  0.00     0.009 C 
HETATM   30  C           1     -15.985 -11.063  -1.781  0.00  0.00     0.009 C 
ENDBRANCH  27  28
ENDBRANCH  22  27
ENDBRANCH  20  22
ENDBRANCH   1  18
TORSDOF 11
ENDMDL
