MODEL 1
REMARK VINA RESULT:      -5.8      0.000      0.000
REMARK  6 active torsions:
REMARK  status: ('A' for Active; 'I' for Inactive)
REMARK    1  A    between atoms: C_1  and  C_15 
REMARK    2  A    between atoms: C_1  and  C_11 
REMARK    3  A    between atoms: C_1  and  N_3 
REMARK       I    between atoms: N_3  and  C_12 
REMARK    4  A    between atoms: C_5  and  C_15 
REMARK    5  A    between atoms: N_8  and  C_9 
REMARK    6  A    between atoms: C_9  and  C_12 
ROOT
HETATM    1  N           1     -35.036  -0.655 -12.100  0.00  0.00    -0.345 N 
HETATM    2  O           1     -36.425  -0.705 -13.847  0.00  0.00    -0.272 OA
HETATM    3  C           1     -35.437  -0.231 -13.338  0.00  0.00     0.243 C 
HETATM    4  H           1     -34.208  -0.258 -11.673  0.00  0.00     0.163 HD
ENDROOT
BRANCH   1   5
HETATM    5  C           1     -35.794  -1.673 -11.400  0.00  0.00     0.189 C 
BRANCH   5   6
HETATM    6  C           1     -34.839  -2.587 -10.644  0.00  0.00     0.014 C 
HETATM    7  C           1     -35.225  -4.039 -10.894  0.00  0.00     0.012 C 
BRANCH   6   8
HETATM    8  C           1     -33.417  -2.348 -11.131  0.00  0.00     0.002 C 
HETATM    9  C           1     -32.822  -3.660 -11.627  0.00  0.00     0.005 C 
ENDBRANCH   6   8
ENDBRANCH   5   6
BRANCH   5  10
HETATM   10  C           1     -36.738  -1.013 -10.424  0.00  0.00     0.197 C 
HETATM   11  O           1     -36.299  -0.535  -9.356  0.00  0.00    -0.646 OA
HETATM   12  O           1     -37.959  -0.944 -10.684  0.00  0.00    -0.646 OA
ENDBRANCH   5  10
ENDBRANCH   1   5
BRANCH   3  13
HETATM   13  C           1     -34.647   0.828 -14.066  0.00  0.00     0.332 C 
BRANCH  13  14
HETATM   14  N           1     -35.555   1.580 -14.995  0.00  0.00    -0.071 N 
HETATM   15  H           1     -35.713   2.544 -14.623  0.00  0.00     0.274 HD
HETATM   16  H           1     -35.115   1.639 -15.940  0.00  0.00     0.274 HD
HETATM   17  H           1     -36.471   1.081 -15.066  0.00  0.00     0.274 HD
ENDBRANCH  13  14
ENDBRANCH   3  13
TORSDOF 6
ENDMDL
MODEL 2
REMARK VINA RESULT:      -5.6     10.511     12.058
REMARK  6 active torsions:
REMARK  status: ('A' for Active; 'I' for Inactive)
REMARK    1  A    between atoms: C_1  and  C_15 
REMARK    2  A    between atoms: C_1  and  C_11 
REMARK    3  A    between atoms: C_1  and  N_3 
REMARK       I    between atoms: N_3  and  C_12 
REMARK    4  A    between atoms: C_5  and  C_15 
REMARK    5  A    between atoms: N_8  and  C_9 
REMARK    6  A    between atoms: C_9  and  C_12 
ROOT
HETATM    1  N           1     -26.589  -6.628 -18.177  0.00  0.00    -0.345 N 
HETATM    2  O           1     -24.379  -6.391 -17.973  0.00  0.00    -0.272 OA
HETATM    3  C           1     -25.309  -6.778 -18.639  0.00  0.00     0.243 C 
HETATM    4  H           1     -27.370  -6.952 -18.735  0.00  0.00     0.163 HD
ENDROOT
BRANCH   1   5
HETATM    5  C           1     -26.828  -6.003 -16.891  0.00  0.00     0.189 C 
BRANCH   5   6
HETATM    6  C           1     -28.223  -5.391 -16.875  0.00  0.00     0.014 C 
HETATM    7  C           1     -28.109  -3.875 -16.798  0.00  0.00     0.012 C 
BRANCH   6   8
HETATM    8  C           1     -28.961  -5.781 -18.148  0.00  0.00     0.002 C 
HETATM    9  C           1     -30.193  -6.603 -17.791  0.00  0.00     0.005 C 
ENDBRANCH   6   8
ENDBRANCH   5   6
BRANCH   5  10
HETATM   10  C           1     -26.723  -7.043 -15.801  0.00  0.00     0.197 C 
HETATM   11  O           1     -27.758  -7.502 -15.272  0.00  0.00    -0.646 OA
HETATM   12  O           1     -25.599  -7.445 -15.428  0.00  0.00    -0.646 OA
ENDBRANCH   5  10
ENDBRANCH   1   5
BRANCH   3  13
HETATM   13  C           1     -25.061  -7.427 -19.978  0.00  0.00     0.332 C 
BRANCH  13  14
HETATM   14  N           1     -26.372  -7.804 -20.602  0.00  0.00    -0.071 N 
HETATM   15  H           1     -27.151  -7.327 -20.093  0.00  0.00     0.274 HD
HETATM   16  H           1     -26.379  -7.510 -21.604  0.00  0.00     0.274 HD
HETATM   17  H           1     -26.502  -8.840 -20.540  0.00  0.00     0.274 HD
ENDBRANCH  13  14
ENDBRANCH   3  13
TORSDOF 6
ENDMDL
MODEL 3
REMARK VINA RESULT:      -5.6      1.203      1.673
REMARK  6 active torsions:
REMARK  status: ('A' for Active; 'I' for Inactive)
REMARK    1  A    between atoms: C_1  and  C_15 
REMARK    2  A    between atoms: C_1  and  C_11 
REMARK    3  A    between atoms: C_1  and  N_3 
REMARK       I    between atoms: N_3  and  C_12 
REMARK    4  A    between atoms: C_5  and  C_15 
REMARK    5  A    between atoms: N_8  and  C_9 
REMARK    6  A    between atoms: C_9  and  C_12 
ROOT
HETATM    1  N           1     -34.853  -0.797 -13.188  0.00  0.00    -0.345 N 
HETATM    2  O           1     -36.751  -0.803 -14.363  0.00  0.00    -0.272 OA
HETATM    3  C           1     -35.686  -0.278 -14.143  0.00  0.00     0.243 C 
HETATM    4  H           1     -33.960  -0.358 -13.004  0.00  0.00     0.163 HD
ENDROOT
BRANCH   1   5
HETATM    5  C           1     -35.249  -1.975 -12.442  0.00  0.00     0.189 C 
BRANCH   5   6
HETATM    6  C           1     -34.017  -2.811 -12.121  0.00  0.00     0.014 C 
HETATM    7  C           1     -33.381  -2.302 -10.834  0.00  0.00     0.012 C 
BRANCH   6   8
HETATM    8  C           1     -34.425  -4.267 -11.945  0.00  0.00     0.002 C 
HETATM    9  C           1     -33.987  -4.756 -10.571  0.00  0.00     0.005 C 
ENDBRANCH   6   8
ENDBRANCH   5   6
BRANCH   5  10
HETATM   10  C           1     -35.919  -1.553 -11.157  0.00  0.00     0.197 C 
HETATM   11  O           1     -36.672  -2.347 -10.553  0.00  0.00    -0.646 OA
HETATM   12  O           1     -35.720  -0.407 -10.695  0.00  0.00    -0.646 OA
ENDBRANCH   5  10
ENDBRANCH   1   5
BRANCH   3  13
HETATM   13  C           1     -35.273   0.947 -14.920  0.00  0.00     0.332 C 
BRANCH  13  14
HETATM   14  N           1     -36.389   1.361 -15.832  0.00  0.00    -0.071 N 
HETATM   15  H           1     -37.107   0.602 -15.874  0.00  0.00     0.274 HD
HETATM   16  H           1     -36.829   2.236 -15.470  0.00  0.00     0.274 HD
HETATM   17  H           1     -36.009   1.533 -16.791  0.00  0.00     0.274 HD
ENDBRANCH  13  14
ENDBRANCH   3  13
TORSDOF 6
ENDMDL
MODEL 4
REMARK VINA RESULT:      -5.4      2.048      4.334
REMARK  6 active torsions:
REMARK  status: ('A' for Active; 'I' for Inactive)
REMARK    1  A    between atoms: C_1  and  C_15 
REMARK    2  A    between atoms: C_1  and  C_11 
REMARK    3  A    between atoms: C_1  and  N_3 
REMARK       I    between atoms: N_3  and  C_12 
REMARK    4  A    between atoms: C_5  and  C_15 
REMARK    5  A    between atoms: N_8  and  C_9 
REMARK    6  A    between atoms: C_9  and  C_12 
ROOT
HETATM    1  N           1     -36.012  -0.106 -11.224  0.00  0.00    -0.345 N 
HETATM    2  O           1     -38.063  -0.832 -10.725  0.00  0.00    -0.272 OA
HETATM    3  C           1     -37.186  -0.027 -10.524  0.00  0.00     0.243 C 
HETATM    4  H           1     -35.276   0.568 -11.057  0.00  0.00     0.163 HD
ENDROOT
BRANCH   1   5
HETATM    5  C           1     -35.823  -1.155 -12.207  0.00  0.00     0.189 C 
BRANCH   5   6
HETATM    6  C           1     -35.759  -0.540 -13.599  0.00  0.00     0.014 C 
HETATM    7  C           1     -37.163  -0.157 -14.047  0.00  0.00     0.012 C 
BRANCH   6   8
HETATM    8  C           1     -34.880   0.702 -13.565  0.00  0.00     0.002 C 
HETATM    9  C           1     -35.094   1.513 -14.836  0.00  0.00     0.005 C 
ENDBRANCH   6   8
ENDBRANCH   5   6
BRANCH   5  10
HETATM   10  C           1     -34.533  -1.885 -11.920  0.00  0.00     0.197 C 
HETATM   11  O           1     -34.105  -2.738 -12.726  0.00  0.00    -0.646 OA
HETATM   12  O           1     -33.893  -1.635 -10.876  0.00  0.00    -0.646 OA
ENDBRANCH   5  10
ENDBRANCH   1   5
BRANCH   3  13
HETATM   13  C           1     -37.382   1.065  -9.502  0.00  0.00     0.332 C 
BRANCH  13  14
HETATM   14  N           1     -36.178   1.139  -8.610  0.00  0.00    -0.071 N 
HETATM   15  H           1     -36.360   1.815  -7.833  0.00  0.00     0.274 HD
HETATM   16  H           1     -35.983   0.194  -8.211  0.00  0.00     0.274 HD
HETATM   17  H           1     -35.353   1.461  -9.165  0.00  0.00     0.274 HD
ENDBRANCH  13  14
ENDBRANCH   3  13
TORSDOF 6
ENDMDL
MODEL 5
REMARK VINA RESULT:      -5.3      2.025      3.717
REMARK  6 active torsions:
REMARK  status: ('A' for Active; 'I' for Inactive)
REMARK    1  A    between atoms: C_1  and  C_15 
REMARK    2  A    between atoms: C_1  and  C_11 
REMARK    3  A    between atoms: C_1  and  N_3 
REMARK       I    between atoms: N_3  and  C_12 
REMARK    4  A    between atoms: C_5  and  C_15 
REMARK    5  A    between atoms: N_8  and  C_9 
REMARK    6  A    between atoms: C_9  and  C_12 
ROOT
HETATM    1  N           1     -36.379  -1.284 -10.900  0.00  0.00    -0.345 N 
HETATM    2  O           1     -36.139   0.870 -10.366  0.00  0.00    -0.272 OA
HETATM    3  C           1     -36.738  -0.165 -10.198  0.00  0.00     0.243 C 
HETATM    4  H           1     -36.881  -2.153 -10.760  0.00  0.00     0.163 HD
ENDROOT
BRANCH   1   5
HETATM    5  C           1     -35.279  -1.227 -11.843  0.00  0.00     0.189 C 
BRANCH   5   6
HETATM    6  C           1     -34.405  -2.463 -11.678  0.00  0.00     0.014 C 
HETATM    7  C           1     -33.303  -2.173 -10.668  0.00  0.00     0.012 C 
BRANCH   6   8
HETATM    8  C           1     -35.257  -3.624 -11.182  0.00  0.00     0.002 C 
HETATM    9  C           1     -34.354  -4.716 -10.625  0.00  0.00     0.005 C 
ENDBRANCH   6   8
ENDBRANCH   5   6
BRANCH   5  10
HETATM   10  C           1     -35.826  -1.182 -13.249  0.00  0.00     0.197 C 
HETATM   11  O           1     -37.016  -0.856 -13.448  0.00  0.00    -0.646 OA
HETATM   12  O           1     -35.088  -1.471 -14.217  0.00  0.00    -0.646 OA
ENDBRANCH   5  10
ENDBRANCH   1   5
BRANCH   3  13
HETATM   13  C           1     -37.882  -0.226  -9.216  0.00  0.00     0.332 C 
BRANCH  13  14
HETATM   14  N           1     -37.961   1.068  -8.460  0.00  0.00    -0.071 N 
HETATM   15  H           1     -37.005   1.340  -8.133  0.00  0.00     0.274 HD
HETATM   16  H           1     -38.341   1.814  -9.083  0.00  0.00     0.274 HD
HETATM   17  H           1     -38.589   0.949  -7.632  0.00  0.00     0.274 HD
ENDBRANCH  13  14
ENDBRANCH   3  13
TORSDOF 6
ENDMDL
MODEL 6
REMARK VINA RESULT:      -5.1      2.512      3.859
REMARK  6 active torsions:
REMARK  status: ('A' for Active; 'I' for Inactive)
REMARK    1  A    between atoms: C_1  and  C_15 
REMARK    2  A    between atoms: C_1  and  C_11 
REMARK    3  A    between atoms: C_1  and  N_3 
REMARK       I    between atoms: N_3  and  C_12 
REMARK    4  A    between atoms: C_5  and  C_15 
REMARK    5  A    between atoms: N_8  and  C_9 
REMARK    6  A    between atoms: C_9  and  C_12 
ROOT
HETATM    1  N           1     -35.361  -2.643 -11.592  0.00  0.00    -0.345 N 
HETATM    2  O           1     -34.716  -0.509 -11.477  0.00  0.00    -0.272 OA
HETATM    3  C           1     -35.533  -1.348 -11.183  0.00  0.00     0.243 C 
HETATM    4  H           1     -36.046  -3.347 -11.346  0.00  0.00     0.163 HD
ENDROOT
BRANCH   1   5
HETATM    5  C           1     -34.198  -3.008 -12.376  0.00  0.00     0.189 C 
BRANCH   5   6
HETATM    6  C           1     -33.735  -4.404 -11.979  0.00  0.00     0.014 C 
HETATM    7  C           1     -32.214  -4.462 -12.013  0.00  0.00     0.012 C 
BRANCH   6   8
HETATM    8  C           1     -34.224  -4.718 -10.571  0.00  0.00     0.002 C 
HETATM    9  C           1     -34.397  -6.223 -10.416  0.00  0.00     0.005 C 
ENDBRANCH   6   8
ENDBRANCH   5   6
BRANCH   5  10
HETATM   10  C           1     -34.557  -2.996 -13.842  0.00  0.00     0.197 C 
HETATM   11  O           1     -35.047  -1.968 -14.358  0.00  0.00    -0.646 OA
HETATM   12  O           1     -34.364  -4.015 -14.542  0.00  0.00    -0.646 OA
ENDBRANCH   5  10
ENDBRANCH   1   5
BRANCH   3  13
HETATM   13  C           1     -36.744  -0.969 -10.366  0.00  0.00     0.332 C 
BRANCH  13  14
HETATM   14  N           1     -36.626   0.462  -9.931  0.00  0.00    -0.071 N 
HETATM   15  H           1     -37.156   1.073 -10.595  0.00  0.00     0.274 HD
HETATM   16  H           1     -37.021   0.567  -8.970  0.00  0.00     0.274 HD
HETATM   17  H           1     -35.619   0.743  -9.929  0.00  0.00     0.274 HD
ENDBRANCH  13  14
ENDBRANCH   3  13
TORSDOF 6
ENDMDL
MODEL 7
REMARK VINA RESULT:      -5.1      2.475      4.390
REMARK  6 active torsions:
REMARK  status: ('A' for Active; 'I' for Inactive)
REMARK    1  A    between atoms: C_1  and  C_15 
REMARK    2  A    between atoms: C_1  and  C_11 
REMARK    3  A    between atoms: C_1  and  N_3 
REMARK       I    between atoms: N_3  and  C_12 
REMARK    4  A    between atoms: C_5  and  C_15 
REMARK    5  A    between atoms: N_8  and  C_9 
REMARK    6  A    between atoms: C_9  and  C_12 
ROOT
HETATM    1  N           1     -34.495  -1.774 -11.805  0.00  0.00    -0.345 N 
HETATM    2  O           1     -34.710  -3.614 -13.052  0.00  0.00    -0.272 OA
HETATM    3  C           1     -34.111  -3.035 -12.177  0.00  0.00     0.243 C 
HETATM    4  H           1     -33.993  -1.289 -11.071  0.00  0.00     0.163 HD
ENDROOT
BRANCH   1   5
HETATM    5  C           1     -35.620  -1.135 -12.459  0.00  0.00     0.189 C 
BRANCH   5   6
HETATM    6  C           1     -36.409  -0.328 -11.436  0.00  0.00     0.014 C 
HETATM    7  C           1     -37.849  -0.181 -11.910  0.00  0.00     0.012 C 
BRANCH   6   8
HETATM    8  C           1     -36.386  -1.048 -10.095  0.00  0.00     0.002 C 
HETATM    9  C           1     -37.230  -0.277  -9.089  0.00  0.00     0.005 C 
ENDBRANCH   6   8
ENDBRANCH   5   6
BRANCH   5  10
HETATM   10  C           1     -35.114  -0.216 -13.544  0.00  0.00     0.197 C 
HETATM   11  O           1     -34.754   0.947 -13.261  0.00  0.00    -0.646 OA
HETATM   12  O           1     -35.054  -0.619 -14.726  0.00  0.00    -0.646 OA
ENDBRANCH   5  10
ENDBRANCH   1   5
BRANCH   3  13
HETATM   13  C           1     -32.941  -3.699 -11.496  0.00  0.00     0.332 C 
BRANCH  13  14
HETATM   14  N           1     -32.355  -4.737 -12.407  0.00  0.00    -0.071 N 
HETATM   15  H           1     -31.896  -5.484 -11.836  0.00  0.00     0.274 HD
HETATM   16  H           1     -33.113  -5.160 -12.987  0.00  0.00     0.274 HD
HETATM   17  H           1     -31.644  -4.291 -13.031  0.00  0.00     0.274 HD
ENDBRANCH  13  14
ENDBRANCH   3  13
TORSDOF 6
ENDMDL
MODEL 8
REMARK VINA RESULT:      -4.9     10.382     11.818
REMARK  6 active torsions:
REMARK  status: ('A' for Active; 'I' for Inactive)
REMARK    1  A    between atoms: C_1  and  C_15 
REMARK    2  A    between atoms: C_1  and  C_11 
REMARK    3  A    between atoms: C_1  and  N_3 
REMARK       I    between atoms: N_3  and  C_12 
REMARK    4  A    between atoms: C_5  and  C_15 
REMARK    5  A    between atoms: N_8  and  C_9 
REMARK    6  A    between atoms: C_9  and  C_12 
ROOT
HETATM    1  N           1     -27.721  -7.008 -19.163  0.00  0.00    -0.345 N 
HETATM    2  O           1     -26.496  -5.844 -20.623  0.00  0.00    -0.272 OA
HETATM    3  C           1     -26.917  -6.919 -20.268  0.00  0.00     0.243 C 
HETATM    4  H           1     -28.074  -7.908 -18.866  0.00  0.00     0.163 HD
ENDROOT
BRANCH   1   5
HETATM    5  C           1     -28.068  -5.812 -18.421  0.00  0.00     0.189 C 
BRANCH   5   6
HETATM    6  C           1     -29.582  -5.728 -18.274  0.00  0.00     0.014 C 
HETATM    7  C           1     -30.148  -7.125 -18.060  0.00  0.00     0.012 C 
BRANCH   6   8
HETATM    8  C           1     -29.926  -4.852 -17.077  0.00  0.00     0.002 C 
HETATM    9  C           1     -30.350  -3.471 -17.561  0.00  0.00     0.005 C 
ENDBRANCH   6   8
ENDBRANCH   5   6
BRANCH   5  10
HETATM   10  C           1     -27.432  -5.868 -17.053  0.00  0.00     0.197 C 
HETATM   11  O           1     -26.815  -4.877 -16.609  0.00  0.00    -0.646 OA
HETATM   12  O           1     -27.524  -6.908 -16.364  0.00  0.00    -0.646 OA
ENDBRANCH   5  10
ENDBRANCH   1   5
BRANCH   3  13
HETATM   13  C           1     -26.557  -8.163 -21.041  0.00  0.00     0.332 C 
BRANCH  13  14
HETATM   14  N           1     -25.068  -8.232 -21.212  0.00  0.00    -0.071 N 
HETATM   15  H           1     -24.829  -8.999 -21.881  0.00  0.00     0.274 HD
HETATM   16  H           1     -24.717  -7.322 -21.586  0.00  0.00     0.274 HD
HETATM   17  H           1     -24.620  -8.426 -20.288  0.00  0.00     0.274 HD
ENDBRANCH  13  14
ENDBRANCH   3  13
TORSDOF 6
ENDMDL
MODEL 9
REMARK VINA RESULT:      -4.8      4.106      6.156
REMARK  6 active torsions:
REMARK  status: ('A' for Active; 'I' for Inactive)
REMARK    1  A    between atoms: C_1  and  C_15 
REMARK    2  A    between atoms: C_1  and  C_11 
REMARK    3  A    between atoms: C_1  and  N_3 
REMARK       I    between atoms: N_3  and  C_12 
REMARK    4  A    between atoms: C_5  and  C_15 
REMARK    5  A    between atoms: N_8  and  C_9 
REMARK    6  A    between atoms: C_9  and  C_12 
ROOT
HETATM    1  N           1     -34.222  -5.353 -10.447  0.00  0.00    -0.345 N 
HETATM    2  O           1     -35.218  -6.882 -11.733  0.00  0.00    -0.272 OA
HETATM    3  C           1     -34.621  -6.636 -10.713  0.00  0.00     0.243 C 
HETATM    4  H           1     -33.721  -5.146  -9.592  0.00  0.00     0.163 HD
ENDROOT
BRANCH   1   5
HETATM    5  C           1     -34.517  -4.291 -11.389  0.00  0.00     0.189 C 
BRANCH   5   6
HETATM    6  C           1     -34.653  -2.972 -10.640  0.00  0.00     0.014 C 
HETATM    7  C           1     -33.332  -2.217 -10.702  0.00  0.00     0.012 C 
BRANCH   6   8
HETATM    8  C           1     -35.748  -2.134 -11.285  0.00  0.00     0.002 C 
HETATM    9  C           1     -36.359  -1.206 -10.243  0.00  0.00     0.005 C 
ENDBRANCH   6   8
ENDBRANCH   5   6
BRANCH   5  10
HETATM   10  C           1     -33.397  -4.186 -12.395  0.00  0.00     0.197 C 
HETATM   11  O           1     -33.632  -3.778 -13.552  0.00  0.00    -0.646 OA
HETATM   12  O           1     -32.233  -4.508 -12.069  0.00  0.00    -0.646 OA
ENDBRANCH   5  10
ENDBRANCH   1   5
BRANCH   3  13
HETATM   13  C           1     -34.313  -7.740  -9.733  0.00  0.00     0.332 C 
BRANCH  13  14
HETATM   14  N           1     -33.475  -8.787 -10.404  0.00  0.00    -0.071 N 
HETATM   15  H           1     -32.469  -8.639 -10.159  0.00  0.00     0.274 HD
HETATM   16  H           1     -33.777  -9.734 -10.083  0.00  0.00     0.274 HD
HETATM   17  H           1     -33.593  -8.715 -11.441  0.00  0.00     0.274 HD
ENDBRANCH  13  14
ENDBRANCH   3  13
TORSDOF 6
ENDMDL
