MODEL 1
REMARK VINA RESULT:      -7.8      0.000      0.000
REMARK  13 active torsions:
REMARK  status: ('A' for Active; 'I' for Inactive)
REMARK    1  A    between atoms: P_1  and  O_28 
REMARK    2  A    between atoms: P_1  and  O_2 
REMARK    3  A    between atoms: C_4  and  C_15 
REMARK    4  A    between atoms: C_7  and  C_24 
REMARK    5  A    between atoms: C_7  and  C_9 
REMARK    6  A    between atoms: N_8  and  C_24 
REMARK    7  A    between atoms: C_9  and  C_16 
REMARK    8  A    between atoms: C_15  and  C_20 
REMARK    9  A    between atoms: C_16  and  N_17 
REMARK   10  A    between atoms: C_20  and  C_29 
REMARK   11  A    between atoms: C_20  and  N_26 
REMARK       I    between atoms: C_23  and  N_26 
REMARK   12  A    between atoms: C_23  and  C_24 
REMARK   13  A    between atoms: C_25  and  O_28 
ROOT
HETATM    1  C           1     -32.491  -4.327 -16.219  0.00  0.00     0.189 C 
ENDROOT
BRANCH   1   2
HETATM    2  C           1     -31.970  -5.636 -16.797  0.00  0.00     0.074 C 
BRANCH   2   3
HETATM    3  C           1     -30.473  -5.620 -16.801  0.00  0.00    -0.056 A 
HETATM    4  C           1     -29.774  -6.037 -17.933  0.00  0.00     0.010 A 
HETATM    5  C           1     -28.379  -6.022 -17.935  0.00  0.00     0.038 A 
HETATM    6  C           1     -27.684  -5.591 -16.805  0.00  0.00     0.081 A 
HETATM    7  C           1     -28.384  -5.174 -15.673  0.00  0.00     0.038 A 
HETATM    8  C           1     -29.779  -5.189 -15.670  0.00  0.00     0.010 A 
BRANCH   6   9
HETATM    9  O           1     -26.329  -5.576 -16.807  0.00  0.00    -0.247 OA
BRANCH   9  10
HETATM   10  P           1     -25.557  -6.683 -15.920  0.00  0.00     0.411 P 
HETATM   11  O           1     -24.565  -7.387 -16.762  0.00  0.00    -0.624 OA
HETATM   12  O           1     -26.535  -7.659 -15.390  0.00  0.00    -0.624 OA
BRANCH  10  13
HETATM   13  O           1     -24.801  -5.955 -14.692  0.00  0.00    -0.300 OA
HETATM   14  H           1     -24.221  -5.333 -15.097  0.00  0.00     0.223 HD
ENDBRANCH  10  13
ENDBRANCH   9  10
ENDBRANCH   6   9
ENDBRANCH   2   3
ENDBRANCH   1   2
BRANCH   1  15
HETATM   15  C           1     -32.586  -3.294 -17.315  0.00  0.00     0.197 C 
HETATM   16  O           1     -31.570  -2.986 -17.974  0.00  0.00    -0.646 OA
HETATM   17  O           1     -33.683  -2.748 -17.565  0.00  0.00    -0.646 OA
ENDBRANCH   1  15
BRANCH   1  18
HETATM   18  N           1     -33.804  -4.542 -15.642  0.00  0.00    -0.344 N 
HETATM   19  H           1     -34.469  -5.144 -16.109  0.00  0.00     0.163 HD
HETATM   20  C           1     -34.142  -3.930 -14.465  0.00  0.00     0.249 C 
HETATM   21  O           1     -34.661  -2.839 -14.479  0.00  0.00    -0.271 OA
BRANCH  20  22
HETATM   22  C           1     -33.868  -4.619 -13.151  0.00  0.00     0.274 C 
BRANCH  22  23
HETATM   23  C           1     -34.661  -3.936 -12.044  0.00  0.00     0.044 C 
BRANCH  23  24
HETATM   24  C           1     -33.754  -3.691 -10.846  0.00  0.00     0.030 C 
BRANCH  24  25
HETATM   25  C           1     -33.800  -2.217 -10.466  0.00  0.00     0.230 C 
BRANCH  25  26
HETATM   26  N           1     -34.358  -1.423 -11.609  0.00  0.00    -0.079 N 
HETATM   27  H           1     -34.387  -0.411 -11.348  0.00  0.00     0.274 HD
HETATM   28  H           1     -33.753  -1.549 -12.452  0.00  0.00     0.274 HD
HETATM   29  H           1     -35.326  -1.755 -11.823  0.00  0.00     0.274 HD
ENDBRANCH  25  26
ENDBRANCH  24  25
ENDBRANCH  23  24
ENDBRANCH  22  23
BRANCH  22  30
HETATM   30  N           1     -32.404  -4.536 -12.840  0.00  0.00    -0.067 N 
HETATM   31  H           1     -32.261  -4.629 -11.809  0.00  0.00     0.275 HD
HETATM   32  H           1     -32.030  -3.615 -13.162  0.00  0.00     0.275 HD
HETATM   33  H           1     -31.898  -5.307 -13.333  0.00  0.00     0.275 HD
ENDBRANCH  22  30
ENDBRANCH  20  22
ENDBRANCH   1  18
TORSDOF 13
ENDMDL
MODEL 2
REMARK VINA RESULT:      -6.8     12.306     14.652
REMARK  13 active torsions:
REMARK  status: ('A' for Active; 'I' for Inactive)
REMARK    1  A    between atoms: P_1  and  O_28 
REMARK    2  A    between atoms: P_1  and  O_2 
REMARK    3  A    between atoms: C_4  and  C_15 
REMARK    4  A    between atoms: C_7  and  C_24 
REMARK    5  A    between atoms: C_7  and  C_9 
REMARK    6  A    between atoms: N_8  and  C_24 
REMARK    7  A    between atoms: C_9  and  C_16 
REMARK    8  A    between atoms: C_15  and  C_20 
REMARK    9  A    between atoms: C_16  and  N_17 
REMARK   10  A    between atoms: C_20  and  C_29 
REMARK   11  A    between atoms: C_20  and  N_26 
REMARK       I    between atoms: C_23  and  N_26 
REMARK   12  A    between atoms: C_23  and  C_24 
REMARK   13  A    between atoms: C_25  and  O_28 
ROOT
HETATM    1  C           1     -21.184  -7.820  -5.327  0.00  0.00     0.189 C 
ENDROOT
BRANCH   1   2
HETATM    2  C           1     -20.326  -6.578  -5.534  0.00  0.00     0.074 C 
BRANCH   2   3
HETATM    3  C           1     -20.912  -5.742  -6.628  0.00  0.00    -0.056 A 
HETATM    4  C           1     -20.212  -5.563  -7.820  0.00  0.00     0.010 A 
HETATM    5  C           1     -20.759  -4.783  -8.839  0.00  0.00     0.038 A 
HETATM    6  C           1     -22.006  -4.183  -8.666  0.00  0.00     0.081 A 
HETATM    7  C           1     -22.706  -4.363  -7.473  0.00  0.00     0.038 A 
HETATM    8  C           1     -22.160  -5.142  -6.454  0.00  0.00     0.010 A 
BRANCH   6   9
HETATM    9  O           1     -22.537  -3.425  -9.656  0.00  0.00    -0.247 OA
BRANCH   9  10
HETATM   10  P           1     -23.553  -4.135 -10.692  0.00  0.00     0.411 P 
HETATM   11  O           1     -23.951  -5.459 -10.164  0.00  0.00    -0.624 OA
HETATM   12  O           1     -22.882  -4.308 -12.000  0.00  0.00    -0.624 OA
BRANCH  10  13
HETATM   13  O           1     -24.866  -3.213 -10.876  0.00  0.00    -0.300 OA
HETATM   14  H           1     -24.538  -2.375 -11.153  0.00  0.00     0.223 HD
ENDBRANCH  10  13
ENDBRANCH   9  10
ENDBRANCH   6   9
ENDBRANCH   2   3
ENDBRANCH   1   2
BRANCH   1  15
HETATM   15  C           1     -20.320  -8.954  -4.836  0.00  0.00     0.197 C 
HETATM   16  O           1     -20.804 -10.099  -4.706  0.00  0.00    -0.646 OA
HETATM   17  O           1     -19.118  -8.749  -4.558  0.00  0.00    -0.646 OA
ENDBRANCH   1  15
BRANCH   1  18
HETATM   18  N           1     -22.214  -7.537  -4.346  0.00  0.00    -0.344 N 
HETATM   19  H           1     -23.182  -7.740  -4.556  0.00  0.00     0.163 HD
HETATM   20  C           1     -21.875  -6.998  -3.134  0.00  0.00     0.249 C 
HETATM   21  O           1     -21.840  -5.799  -2.996  0.00  0.00    -0.271 OA
BRANCH  20  22
HETATM   22  C           1     -21.545  -7.902  -1.972  0.00  0.00     0.274 C 
BRANCH  22  23
HETATM   23  C           1     -22.267  -7.410  -0.724  0.00  0.00     0.044 C 
BRANCH  23  24
HETATM   24  C           1     -22.374  -8.546   0.284  0.00  0.00     0.030 C 
BRANCH  24  25
HETATM   25  C           1     -22.981  -9.769  -0.391  0.00  0.00     0.230 C 
BRANCH  25  26
HETATM   26  N           1     -22.187 -10.988  -0.029  0.00  0.00    -0.079 N 
HETATM   27  H           1     -21.507 -11.200  -0.793  0.00  0.00     0.274 HD
HETATM   28  H           1     -21.667 -10.815   0.862  0.00  0.00     0.274 HD
HETATM   29  H           1     -22.834 -11.799   0.099  0.00  0.00     0.274 HD
ENDBRANCH  25  26
ENDBRANCH  24  25
ENDBRANCH  23  24
ENDBRANCH  22  23
BRANCH  22  30
HETATM   30  N           1     -20.065  -7.887  -1.731  0.00  0.00    -0.067 N 
HETATM   31  H           1     -19.663  -8.818  -1.980  0.00  0.00     0.275 HD
HETATM   32  H           1     -19.877  -7.684  -0.724  0.00  0.00     0.275 HD
HETATM   33  H           1     -19.624  -7.146  -2.322  0.00  0.00     0.275 HD
ENDBRANCH  22  30
ENDBRANCH  20  22
ENDBRANCH   1  18
TORSDOF 13
ENDMDL
MODEL 3
REMARK VINA RESULT:      -6.7      1.661      2.321
REMARK  13 active torsions:
REMARK  status: ('A' for Active; 'I' for Inactive)
REMARK    1  A    between atoms: P_1  and  O_28 
REMARK    2  A    between atoms: P_1  and  O_2 
REMARK    3  A    between atoms: C_4  and  C_15 
REMARK    4  A    between atoms: C_7  and  C_24 
REMARK    5  A    between atoms: C_7  and  C_9 
REMARK    6  A    between atoms: N_8  and  C_24 
REMARK    7  A    between atoms: C_9  and  C_16 
REMARK    8  A    between atoms: C_15  and  C_20 
REMARK    9  A    between atoms: C_16  and  N_17 
REMARK   10  A    between atoms: C_20  and  C_29 
REMARK   11  A    between atoms: C_20  and  N_26 
REMARK       I    between atoms: C_23  and  N_26 
REMARK   12  A    between atoms: C_23  and  C_24 
REMARK   13  A    between atoms: C_25  and  O_28 
ROOT
HETATM    1  C           1     -33.163  -3.911 -15.667  0.00  0.00     0.189 C 
ENDROOT
BRANCH   1   2
HETATM    2  C           1     -32.608  -5.074 -16.480  0.00  0.00     0.074 C 
BRANCH   2   3
HETATM    3  C           1     -31.114  -4.993 -16.512  0.00  0.00    -0.056 A 
HETATM    4  C           1     -30.464  -4.544 -17.661  0.00  0.00     0.010 A 
HETATM    5  C           1     -29.071  -4.470 -17.689  0.00  0.00     0.038 A 
HETATM    6  C           1     -28.329  -4.844 -16.569  0.00  0.00     0.081 A 
HETATM    7  C           1     -28.980  -5.293 -15.420  0.00  0.00     0.038 A 
HETATM    8  C           1     -30.372  -5.368 -15.391  0.00  0.00     0.010 A 
BRANCH   6   9
HETATM    9  O           1     -26.976  -4.772 -16.598  0.00  0.00    -0.247 OA
BRANCH   9  10
HETATM   10  P           1     -26.142  -6.154 -16.586  0.00  0.00     0.411 P 
HETATM   11  O           1     -24.962  -6.012 -15.705  0.00  0.00    -0.624 OA
HETATM   12  O           1     -25.695  -6.472 -17.961  0.00  0.00    -0.624 OA
BRANCH  10  13
HETATM   13  O           1     -27.084  -7.346 -16.036  0.00  0.00    -0.300 OA
HETATM   14  H           1     -27.880  -6.922 -15.766  0.00  0.00     0.223 HD
ENDBRANCH  10  13
ENDBRANCH   9  10
ENDBRANCH   6   9
ENDBRANCH   2   3
ENDBRANCH   1   2
BRANCH   1  15
HETATM   15  C           1     -34.052  -3.063 -16.542  0.00  0.00     0.197 C 
HETATM   16  O           1     -35.251  -2.891 -16.235  0.00  0.00    -0.646 OA
HETATM   17  O           1     -33.589  -2.531 -17.573  0.00  0.00    -0.646 OA
ENDBRANCH   1  15
BRANCH   1  18
HETATM   18  N           1     -33.933  -4.426 -14.551  0.00  0.00    -0.344 N 
HETATM   19  H           1     -34.443  -5.294 -14.646  0.00  0.00     0.163 HD
HETATM   20  C           1     -33.968  -3.737 -13.368  0.00  0.00     0.249 C 
HETATM   21  O           1     -34.822  -2.904 -13.181  0.00  0.00    -0.271 OA
BRANCH  20  22
HETATM   22  C           1     -32.941  -4.019 -12.300  0.00  0.00     0.274 C 
BRANCH  22  23
HETATM   23  C           1     -33.196  -5.395 -11.700  0.00  0.00     0.044 C 
BRANCH  23  24
HETATM   24  C           1     -34.562  -5.411 -11.027  0.00  0.00     0.030 C 
BRANCH  24  25
HETATM   25  C           1     -34.654  -6.608 -10.090  0.00  0.00     0.230 C 
BRANCH  25  26
HETATM   26  N           1     -34.825  -7.862 -10.895  0.00  0.00    -0.079 N 
HETATM   27  H           1     -35.841  -8.016 -11.088  0.00  0.00     0.274 HD
HETATM   28  H           1     -34.308  -7.770 -11.799  0.00  0.00     0.274 HD
HETATM   29  H           1     -34.444  -8.674 -10.358  0.00  0.00     0.274 HD
ENDBRANCH  25  26
ENDBRANCH  24  25
ENDBRANCH  23  24
ENDBRANCH  22  23
BRANCH  22  30
HETATM   30  N           1     -33.040  -2.979 -11.224  0.00  0.00    -0.067 N 
HETATM   31  H           1     -32.331  -2.232 -11.396  0.00  0.00     0.275 HD
HETATM   32  H           1     -32.862  -3.421 -10.294  0.00  0.00     0.275 HD
HETATM   33  H           1     -33.997  -2.560 -11.231  0.00  0.00     0.275 HD
ENDBRANCH  22  30
ENDBRANCH  20  22
ENDBRANCH   1  18
TORSDOF 13
ENDMDL
MODEL 4
REMARK VINA RESULT:      -6.6     12.113     14.534
REMARK  13 active torsions:
REMARK  status: ('A' for Active; 'I' for Inactive)
REMARK    1  A    between atoms: P_1  and  O_28 
REMARK    2  A    between atoms: P_1  and  O_2 
REMARK    3  A    between atoms: C_4  and  C_15 
REMARK    4  A    between atoms: C_7  and  C_24 
REMARK    5  A    between atoms: C_7  and  C_9 
REMARK    6  A    between atoms: N_8  and  C_24 
REMARK    7  A    between atoms: C_9  and  C_16 
REMARK    8  A    between atoms: C_15  and  C_20 
REMARK    9  A    between atoms: C_16  and  N_17 
REMARK   10  A    between atoms: C_20  and  C_29 
REMARK   11  A    between atoms: C_20  and  N_26 
REMARK       I    between atoms: C_23  and  N_26 
REMARK   12  A    between atoms: C_23  and  C_24 
REMARK   13  A    between atoms: C_25  and  O_28 
ROOT
HETATM    1  C           1     -20.676  -7.584  -5.639  0.00  0.00     0.189 C 
ENDROOT
BRANCH   1   2
HETATM    2  C           1     -20.362  -6.096  -5.553  0.00  0.00     0.074 C 
BRANCH   2   3
HETATM    3  C           1     -20.901  -5.401  -6.765  0.00  0.00    -0.056 A 
HETATM    4  C           1     -22.134  -4.754  -6.706  0.00  0.00     0.010 A 
HETATM    5  C           1     -22.635  -4.107  -7.836  0.00  0.00     0.038 A 
HETATM    6  C           1     -21.904  -4.108  -9.024  0.00  0.00     0.081 A 
HETATM    7  C           1     -20.670  -4.756  -9.081  0.00  0.00     0.038 A 
HETATM    8  C           1     -20.168  -5.403  -7.952  0.00  0.00     0.010 A 
BRANCH   6   9
HETATM    9  O           1     -22.392  -3.479 -10.121  0.00  0.00    -0.247 OA
BRANCH   9  10
HETATM   10  P           1     -23.606  -4.182 -10.920  0.00  0.00     0.411 P 
HETATM   11  O           1     -23.963  -5.455 -10.256  0.00  0.00    -0.624 OA
HETATM   12  O           1     -23.186  -4.454 -12.313  0.00  0.00    -0.624 OA
BRANCH  10  13
HETATM   13  O           1     -24.887  -3.199 -10.925  0.00  0.00    -0.300 OA
HETATM   14  H           1     -25.583  -3.703 -10.539  0.00  0.00     0.223 HD
ENDBRANCH  10  13
ENDBRANCH   9  10
ENDBRANCH   6   9
ENDBRANCH   2   3
ENDBRANCH   1   2
BRANCH   1  15
HETATM   15  C           1     -19.437  -8.380  -5.312  0.00  0.00     0.197 C 
HETATM   16  O           1     -18.635  -8.689  -6.219  0.00  0.00    -0.646 OA
HETATM   17  O           1     -19.212  -8.732  -4.134  0.00  0.00    -0.646 OA
ENDBRANCH   1  15
BRANCH   1  18
HETATM   18  N           1     -21.724  -7.912  -4.691  0.00  0.00    -0.344 N 
HETATM   19  H           1     -22.109  -8.846  -4.666  0.00  0.00     0.163 HD
HETATM   20  C           1     -22.191  -6.955  -3.830  0.00  0.00     0.249 C 
HETATM   21  O           1     -23.120  -6.255  -4.153  0.00  0.00    -0.271 OA
BRANCH  20  22
HETATM   22  C           1     -21.546  -6.778  -2.478  0.00  0.00     0.274 C 
BRANCH  22  23
HETATM   23  C           1     -21.810  -8.010  -1.623  0.00  0.00     0.044 C 
BRANCH  23  24
HETATM   24  C           1     -20.496  -8.517  -1.042  0.00  0.00     0.030 C 
BRANCH  24  25
HETATM   25  C           1     -20.576 -10.024  -0.845  0.00  0.00     0.230 C 
BRANCH  25  26
HETATM   26  N           1     -20.188 -10.717  -2.117  0.00  0.00    -0.079 N 
HETATM   27  H           1     -19.450 -10.160  -2.606  0.00  0.00     0.274 HD
HETATM   28  H           1     -19.817 -11.670  -1.898  0.00  0.00     0.274 HD
HETATM   29  H           1     -21.026 -10.804  -2.735  0.00  0.00     0.274 HD
ENDBRANCH  25  26
ENDBRANCH  24  25
ENDBRANCH  23  24
ENDBRANCH  22  23
BRANCH  22  30
HETATM   30  N           1     -22.122  -5.569  -1.804  0.00  0.00    -0.067 N 
HETATM   31  H           1     -21.586  -4.721  -2.092  0.00  0.00     0.275 HD
HETATM   32  H           1     -22.061  -5.684  -0.767  0.00  0.00     0.275 HD
HETATM   33  H           1     -23.124  -5.460  -2.081  0.00  0.00     0.275 HD
ENDBRANCH  22  30
ENDBRANCH  20  22
ENDBRANCH   1  18
TORSDOF 13
ENDMDL
MODEL 5
REMARK VINA RESULT:      -6.3     14.015     16.295
REMARK  13 active torsions:
REMARK  status: ('A' for Active; 'I' for Inactive)
REMARK    1  A    between atoms: P_1  and  O_28 
REMARK    2  A    between atoms: P_1  and  O_2 
REMARK    3  A    between atoms: C_4  and  C_15 
REMARK    4  A    between atoms: C_7  and  C_24 
REMARK    5  A    between atoms: C_7  and  C_9 
REMARK    6  A    between atoms: N_8  and  C_24 
REMARK    7  A    between atoms: C_9  and  C_16 
REMARK    8  A    between atoms: C_15  and  C_20 
REMARK    9  A    between atoms: C_16  and  N_17 
REMARK   10  A    between atoms: C_20  and  C_29 
REMARK   11  A    between atoms: C_20  and  N_26 
REMARK       I    between atoms: C_23  and  N_26 
REMARK   12  A    between atoms: C_23  and  C_24 
REMARK   13  A    between atoms: C_25  and  O_28 
ROOT
HETATM    1  C           1     -21.345  -7.754  -2.351  0.00  0.00     0.189 C 
ENDROOT
BRANCH   1   2
HETATM    2  C           1     -19.926  -8.127  -1.941  0.00  0.00     0.074 C 
BRANCH   2   3
HETATM    3  C           1     -19.457  -9.287  -2.763  0.00  0.00    -0.056 A 
HETATM    4  C           1     -20.371 -10.240  -3.209  0.00  0.00     0.010 A 
HETATM    5  C           1     -19.932 -11.320  -3.975  0.00  0.00     0.038 A 
HETATM    6  C           1     -18.580 -11.448  -4.293  0.00  0.00     0.081 A 
HETATM    7  C           1     -17.667 -10.493  -3.845  0.00  0.00     0.038 A 
HETATM    8  C           1     -18.104  -9.413  -3.080  0.00  0.00     0.010 A 
BRANCH   6   9
HETATM    9  O           1     -18.155 -12.498  -5.037  0.00  0.00    -0.247 OA
BRANCH   9  10
HETATM   10  P           1     -17.780 -12.228  -6.584  0.00  0.00     0.411 P 
HETATM   11  O           1     -18.621 -11.132  -7.113  0.00  0.00    -0.624 OA
HETATM   12  O           1     -18.022 -13.458  -7.371  0.00  0.00    -0.624 OA
BRANCH  10  13
HETATM   13  O           1     -16.223 -11.813  -6.696  0.00  0.00    -0.300 OA
HETATM   14  H           1     -16.076 -11.661  -7.614  0.00  0.00     0.223 HD
ENDBRANCH  10  13
ENDBRANCH   9  10
ENDBRANCH   6   9
ENDBRANCH   2   3
ENDBRANCH   1   2
BRANCH   1  15
HETATM   15  C           1     -22.231  -7.723  -1.130  0.00  0.00     0.197 C 
HETATM   16  O           1     -22.728  -6.643  -0.746  0.00  0.00    -0.646 OA
HETATM   17  O           1     -22.469  -8.778  -0.504  0.00  0.00    -0.646 OA
ENDBRANCH   1  15
BRANCH   1  18
HETATM   18  N           1     -21.339  -6.446  -2.977  0.00  0.00    -0.344 N 
HETATM   19  H           1     -21.100  -5.627  -2.435  0.00  0.00     0.163 HD
HETATM   20  C           1     -21.656  -6.321  -4.303  0.00  0.00     0.249 C 
HETATM   21  O           1     -22.803  -6.140  -4.635  0.00  0.00    -0.271 OA
BRANCH  20  22
HETATM   22  C           1     -20.572  -6.409  -5.349  0.00  0.00     0.274 C 
BRANCH  22  23
HETATM   23  C           1     -20.387  -5.047  -6.005  0.00  0.00     0.044 C 
BRANCH  23  24
HETATM   24  C           1     -20.984  -5.071  -7.406  0.00  0.00     0.030 C 
BRANCH  24  25
HETATM   25  C           1     -21.975  -3.926  -7.557  0.00  0.00     0.230 C 
BRANCH  25  26
HETATM   26  N           1     -23.353  -4.407  -7.214  0.00  0.00    -0.079 N 
HETATM   27  H           1     -23.502  -4.331  -6.183  0.00  0.00     0.274 HD
HETATM   28  H           1     -24.062  -3.823  -7.713  0.00  0.00     0.274 HD
HETATM   29  H           1     -23.456  -5.405  -7.509  0.00  0.00     0.274 HD
ENDBRANCH  25  26
ENDBRANCH  24  25
ENDBRANCH  23  24
ENDBRANCH  22  23
BRANCH  22  30
HETATM   30  N           1     -20.963  -7.415  -6.390  0.00  0.00    -0.067 N 
HETATM   31  H           1     -20.102  -7.813  -6.829  0.00  0.00     0.275 HD
HETATM   32  H           1     -21.545  -6.951  -7.123  0.00  0.00     0.275 HD
HETATM   33  H           1     -21.514  -8.182  -5.944  0.00  0.00     0.275 HD
ENDBRANCH  22  30
ENDBRANCH  20  22
ENDBRANCH   1  18
TORSDOF 13
ENDMDL
MODEL 6
REMARK VINA RESULT:      -6.3     12.632     15.193
REMARK  13 active torsions:
REMARK  status: ('A' for Active; 'I' for Inactive)
REMARK    1  A    between atoms: P_1  and  O_28 
REMARK    2  A    between atoms: P_1  and  O_2 
REMARK    3  A    between atoms: C_4  and  C_15 
REMARK    4  A    between atoms: C_7  and  C_24 
REMARK    5  A    between atoms: C_7  and  C_9 
REMARK    6  A    between atoms: N_8  and  C_24 
REMARK    7  A    between atoms: C_9  and  C_16 
REMARK    8  A    between atoms: C_15  and  C_20 
REMARK    9  A    between atoms: C_16  and  N_17 
REMARK   10  A    between atoms: C_20  and  C_29 
REMARK   11  A    between atoms: C_20  and  N_26 
REMARK       I    between atoms: C_23  and  N_26 
REMARK   12  A    between atoms: C_23  and  C_24 
REMARK   13  A    between atoms: C_25  and  O_28 
ROOT
HETATM    1  C           1     -21.375  -8.147  -5.219  0.00  0.00     0.189 C 
ENDROOT
BRANCH   1   2
HETATM    2  C           1     -20.334  -7.057  -5.440  0.00  0.00     0.074 C 
BRANCH   2   3
HETATM    3  C           1     -20.847  -6.073  -6.445  0.00  0.00    -0.056 A 
HETATM    4  C           1     -20.079  -5.754  -7.564  0.00  0.00     0.010 A 
HETATM    5  C           1     -20.558  -4.837  -8.499  0.00  0.00     0.038 A 
HETATM    6  C           1     -21.804  -4.238  -8.315  0.00  0.00     0.081 A 
HETATM    7  C           1     -22.571  -4.557  -7.195  0.00  0.00     0.038 A 
HETATM    8  C           1     -22.093  -5.474  -6.259  0.00  0.00     0.010 A 
BRANCH   6   9
HETATM    9  O           1     -22.269  -3.346  -9.224  0.00  0.00    -0.247 OA
BRANCH   9  10
HETATM   10  P           1     -23.163  -3.907 -10.446  0.00  0.00     0.411 P 
HETATM   11  O           1     -23.569  -5.301 -10.163  0.00  0.00    -0.624 OA
HETATM   12  O           1     -22.369  -3.869 -11.695  0.00  0.00    -0.624 OA
BRANCH  10  13
HETATM   13  O           1     -24.480  -2.986 -10.615  0.00  0.00    -0.300 OA
HETATM   14  H           1     -24.820  -2.886  -9.743  0.00  0.00     0.223 HD
ENDBRANCH  10  13
ENDBRANCH   9  10
ENDBRANCH   6   9
ENDBRANCH   2   3
ENDBRANCH   1   2
BRANCH   1  15
HETATM   15  C           1     -20.714  -9.500  -5.307  0.00  0.00     0.197 C 
HETATM   16  O           1     -19.570  -9.607  -5.800  0.00  0.00    -0.646 OA
HETATM   17  O           1     -21.310 -10.515  -4.886  0.00  0.00    -0.646 OA
ENDBRANCH   1  15
BRANCH   1  18
HETATM   18  N           1     -21.973  -7.986  -3.908  0.00  0.00    -0.344 N 
HETATM   19  H           1     -22.945  -8.222  -3.763  0.00  0.00     0.163 HD
HETATM   20  C           1     -21.220  -7.514  -2.866  0.00  0.00     0.249 C 
HETATM   21  O           1     -21.162  -6.327  -2.652  0.00  0.00    -0.271 OA
BRANCH  20  22
HETATM   22  C           1     -20.462  -8.478  -1.986  0.00  0.00     0.274 C 
BRANCH  22  23
HETATM   23  C           1     -19.059  -8.679  -2.542  0.00  0.00     0.044 C 
BRANCH  23  24
HETATM   24  C           1     -18.640 -10.131  -2.355  0.00  0.00     0.030 C 
BRANCH  24  25
HETATM   25  C           1     -17.191 -10.303  -2.789  0.00  0.00     0.230 C 
BRANCH  25  26
HETATM   26  N           1     -17.024  -9.794  -4.189  0.00  0.00    -0.079 N 
HETATM   27  H           1     -16.720 -10.577  -4.811  0.00  0.00     0.274 HD
HETATM   28  H           1     -17.933  -9.409  -4.533  0.00  0.00     0.274 HD
HETATM   29  H           1     -16.301  -9.039  -4.201  0.00  0.00     0.274 HD
ENDBRANCH  25  26
ENDBRANCH  24  25
ENDBRANCH  23  24
ENDBRANCH  22  23
BRANCH  22  30
HETATM   30  N           1     -21.180  -9.795  -1.955  0.00  0.00    -0.067 N 
HETATM   31  H           1     -20.943 -10.340  -2.813  0.00  0.00     0.275 HD
HETATM   32  H           1     -22.211  -9.630  -1.921  0.00  0.00     0.275 HD
HETATM   33  H           1     -20.887 -10.331  -1.107  0.00  0.00     0.275 HD
ENDBRANCH  22  30
ENDBRANCH  20  22
ENDBRANCH   1  18
TORSDOF 13
ENDMDL
MODEL 7
REMARK VINA RESULT:      -6.2     14.472     16.740
REMARK  13 active torsions:
REMARK  status: ('A' for Active; 'I' for Inactive)
REMARK    1  A    between atoms: P_1  and  O_28 
REMARK    2  A    between atoms: P_1  and  O_2 
REMARK    3  A    between atoms: C_4  and  C_15 
REMARK    4  A    between atoms: C_7  and  C_24 
REMARK    5  A    between atoms: C_7  and  C_9 
REMARK    6  A    between atoms: N_8  and  C_24 
REMARK    7  A    between atoms: C_9  and  C_16 
REMARK    8  A    between atoms: C_15  and  C_20 
REMARK    9  A    between atoms: C_16  and  N_17 
REMARK   10  A    between atoms: C_20  and  C_29 
REMARK   11  A    between atoms: C_20  and  N_26 
REMARK       I    between atoms: C_23  and  N_26 
REMARK   12  A    between atoms: C_23  and  C_24 
REMARK   13  A    between atoms: C_25  and  O_28 
ROOT
HETATM    1  C           1     -20.694  -8.767  -3.332  0.00  0.00     0.189 C 
ENDROOT
BRANCH   1   2
HETATM    2  C           1     -19.445  -8.903  -2.471  0.00  0.00     0.074 C 
BRANCH   2   3
HETATM    3  C           1     -18.295  -9.339  -3.324  0.00  0.00    -0.056 A 
HETATM    4  C           1     -18.489  -9.586  -4.682  0.00  0.00     0.010 A 
HETATM    5  C           1     -17.416  -9.993  -5.476  0.00  0.00     0.038 A 
HETATM    6  C           1     -16.151 -10.154  -4.911  0.00  0.00     0.081 A 
HETATM    7  C           1     -15.959  -9.907  -3.552  0.00  0.00     0.038 A 
HETATM    8  C           1     -17.030  -9.500  -2.758  0.00  0.00     0.010 A 
BRANCH   6   9
HETATM    9  O           1     -15.110 -10.550  -5.683  0.00  0.00    -0.247 OA
BRANCH   9  10
HETATM   10  P           1     -14.980 -12.121  -6.034  0.00  0.00     0.411 P 
HETATM   11  O           1     -13.557 -12.462  -6.254  0.00  0.00    -0.624 OA
HETATM   12  O           1     -15.754 -12.417  -7.261  0.00  0.00    -0.624 OA
BRANCH  10  13
HETATM   13  O           1     -15.560 -12.996  -4.806  0.00  0.00    -0.300 OA
HETATM   14  H           1     -16.300 -13.456  -5.163  0.00  0.00     0.223 HD
ENDBRANCH  10  13
ENDBRANCH   9  10
ENDBRANCH   6   9
ENDBRANCH   2   3
ENDBRANCH   1   2
BRANCH   1  15
HETATM   15  C           1     -21.822  -9.553  -2.712  0.00  0.00     0.197 C 
HETATM   16  O           1     -22.441 -10.401  -3.391  0.00  0.00    -0.646 OA
HETATM   17  O           1     -22.138  -9.358  -1.519  0.00  0.00    -0.646 OA
ENDBRANCH   1  15
BRANCH   1  18
HETATM   18  N           1     -21.071  -7.369  -3.420  0.00  0.00    -0.344 N 
HETATM   19  H           1     -21.143  -6.811  -2.580  0.00  0.00     0.163 HD
HETATM   20  C           1     -21.328  -6.806  -4.641  0.00  0.00     0.249 C 
HETATM   21  O           1     -22.449  -6.823  -5.090  0.00  0.00    -0.271 OA
BRANCH  20  22
HETATM   22  C           1     -20.210  -6.163  -5.425  0.00  0.00     0.274 C 
BRANCH  22  23
HETATM   23  C           1     -20.552  -4.703  -5.693  0.00  0.00     0.044 C 
BRANCH  23  24
HETATM   24  C           1     -20.541  -4.445  -7.194  0.00  0.00     0.030 C 
BRANCH  24  25
HETATM   25  C           1     -21.842  -3.766  -7.602  0.00  0.00     0.230 C 
BRANCH  25  26
HETATM   26  N           1     -22.992  -4.424  -6.900  0.00  0.00    -0.079 N 
HETATM   27  H           1     -23.133  -5.385  -7.287  0.00  0.00     0.274 HD
HETATM   28  H           1     -22.788  -4.486  -5.877  0.00  0.00     0.274 HD
HETATM   29  H           1     -23.858  -3.858  -7.047  0.00  0.00     0.274 HD
ENDBRANCH  25  26
ENDBRANCH  24  25
ENDBRANCH  23  24
ENDBRANCH  22  23
BRANCH  22  30
HETATM   30  N           1     -20.037  -6.882  -6.730  0.00  0.00    -0.067 N 
HETATM   31  H           1     -19.230  -7.542  -6.658  0.00  0.00     0.275 HD
HETATM   32  H           1     -19.854  -6.189  -7.489  0.00  0.00     0.275 HD
HETATM   33  H           1     -20.907  -7.417  -6.951  0.00  0.00     0.275 HD
ENDBRANCH  22  30
ENDBRANCH  20  22
ENDBRANCH   1  18
TORSDOF 13
ENDMDL
MODEL 8
REMARK VINA RESULT:      -6.1     14.711     17.099
REMARK  13 active torsions:
REMARK  status: ('A' for Active; 'I' for Inactive)
REMARK    1  A    between atoms: P_1  and  O_28 
REMARK    2  A    between atoms: P_1  and  O_2 
REMARK    3  A    between atoms: C_4  and  C_15 
REMARK    4  A    between atoms: C_7  and  C_24 
REMARK    5  A    between atoms: C_7  and  C_9 
REMARK    6  A    between atoms: N_8  and  C_24 
REMARK    7  A    between atoms: C_9  and  C_16 
REMARK    8  A    between atoms: C_15  and  C_20 
REMARK    9  A    between atoms: C_16  and  N_17 
REMARK   10  A    between atoms: C_20  and  C_29 
REMARK   11  A    between atoms: C_20  and  N_26 
REMARK       I    between atoms: C_23  and  N_26 
REMARK   12  A    between atoms: C_23  and  C_24 
REMARK   13  A    between atoms: C_25  and  O_28 
ROOT
HETATM    1  C           1     -19.761 -10.449  -2.456  0.00  0.00     0.189 C 
ENDROOT
BRANCH   1   2
HETATM    2  C           1     -19.786  -9.007  -1.964  0.00  0.00     0.074 C 
BRANCH   2   3
HETATM    3  C           1     -20.419  -8.136  -3.004  0.00  0.00    -0.056 A 
HETATM    4  C           1     -21.187  -7.037  -2.619  0.00  0.00     0.010 A 
HETATM    5  C           1     -21.777  -6.226  -3.589  0.00  0.00     0.038 A 
HETATM    6  C           1     -21.600  -6.514  -4.942  0.00  0.00     0.081 A 
HETATM    7  C           1     -20.832  -7.613  -5.326  0.00  0.00     0.038 A 
HETATM    8  C           1     -20.242  -8.425  -4.357  0.00  0.00     0.010 A 
BRANCH   6   9
HETATM    9  O           1     -22.174  -5.726  -5.883  0.00  0.00    -0.247 OA
BRANCH   9  10
HETATM   10  P           1     -21.207  -4.816  -6.802  0.00  0.00     0.411 P 
HETATM   11  O           1     -20.863  -5.552  -8.039  0.00  0.00    -0.624 OA
HETATM   12  O           1     -19.968  -4.504  -6.055  0.00  0.00    -0.624 OA
BRANCH  10  13
HETATM   13  O           1     -21.966  -3.443  -7.187  0.00  0.00    -0.300 OA
HETATM   14  H           1     -21.507  -2.770  -6.714  0.00  0.00     0.223 HD
ENDBRANCH  10  13
ENDBRANCH   9  10
ENDBRANCH   6   9
ENDBRANCH   2   3
ENDBRANCH   1   2
BRANCH   1  15
HETATM   15  C           1     -18.335 -10.939  -2.506  0.00  0.00     0.197 C 
HETATM   16  O           1     -17.394 -10.120  -2.587  0.00  0.00    -0.646 OA
HETATM   17  O           1     -18.094 -12.165  -2.467  0.00  0.00    -0.646 OA
ENDBRANCH   1  15
BRANCH   1  18
HETATM   18  N           1     -20.526 -11.282  -1.549  0.00  0.00    -0.344 N 
HETATM   19  H           1     -20.101 -11.628  -0.699  0.00  0.00     0.163 HD
HETATM   20  C           1     -21.825 -11.599  -1.844  0.00  0.00     0.249 C 
HETATM   21  O           1     -22.073 -12.593  -2.483  0.00  0.00    -0.271 OA
BRANCH  20  22
HETATM   22  C           1     -22.946 -10.707  -1.368  0.00  0.00     0.274 C 
BRANCH  22  23
HETATM   23  C           1     -22.635 -10.205   0.035  0.00  0.00     0.044 C 
BRANCH  23  24
HETATM   24  C           1     -23.040  -8.742   0.154  0.00  0.00     0.030 C 
BRANCH  24  25
HETATM   25  C           1     -21.957  -7.973   0.897  0.00  0.00     0.230 C 
BRANCH  25  26
HETATM   26  N           1     -20.971  -8.937   1.484  0.00  0.00    -0.079 N 
HETATM   27  H           1     -21.472  -9.615   2.103  0.00  0.00     0.274 HD
HETATM   28  H           1     -20.489  -9.457   0.716  0.00  0.00     0.274 HD
HETATM   29  H           1     -20.262  -8.412   2.045  0.00  0.00     0.274 HD
ENDBRANCH  25  26
ENDBRANCH  24  25
ENDBRANCH  23  24
ENDBRANCH  22  23
BRANCH  22  30
HETATM   30  N           1     -24.228 -11.484  -1.348  0.00  0.00    -0.067 N 
HETATM   31  H           1     -24.027 -12.493  -1.531  0.00  0.00     0.275 HD
HETATM   32  H           1     -24.870 -11.118  -2.087  0.00  0.00     0.275 HD
HETATM   33  H           1     -24.683 -11.383  -0.413  0.00  0.00     0.275 HD
ENDBRANCH  22  30
ENDBRANCH  20  22
ENDBRANCH   1  18
TORSDOF 13
ENDMDL
MODEL 9
REMARK VINA RESULT:      -5.9     15.470     17.409
REMARK  13 active torsions:
REMARK  status: ('A' for Active; 'I' for Inactive)
REMARK    1  A    between atoms: P_1  and  O_28 
REMARK    2  A    between atoms: P_1  and  O_2 
REMARK    3  A    between atoms: C_4  and  C_15 
REMARK    4  A    between atoms: C_7  and  C_24 
REMARK    5  A    between atoms: C_7  and  C_9 
REMARK    6  A    between atoms: N_8  and  C_24 
REMARK    7  A    between atoms: C_9  and  C_16 
REMARK    8  A    between atoms: C_15  and  C_20 
REMARK    9  A    between atoms: C_16  and  N_17 
REMARK   10  A    between atoms: C_20  and  C_29 
REMARK   11  A    between atoms: C_20  and  N_26 
REMARK       I    between atoms: C_23  and  N_26 
REMARK   12  A    between atoms: C_23  and  C_24 
REMARK   13  A    between atoms: C_25  and  O_28 
ROOT
HETATM    1  C           1     -20.549  -7.349  -4.531  0.00  0.00     0.189 C 
ENDROOT
BRANCH   1   2
HETATM    2  C           1     -20.300  -8.707  -5.174  0.00  0.00     0.074 C 
BRANCH   2   3
HETATM    3  C           1     -18.961  -9.223  -4.748  0.00  0.00    -0.056 A 
HETATM    4  C           1     -18.021  -9.599  -5.707  0.00  0.00     0.010 A 
HETATM    5  C           1     -16.774 -10.080  -5.309  0.00  0.00     0.038 A 
HETATM    6  C           1     -16.467 -10.186  -3.953  0.00  0.00     0.081 A 
HETATM    7  C           1     -17.408  -9.810  -2.994  0.00  0.00     0.038 A 
HETATM    8  C           1     -18.655  -9.329  -3.392  0.00  0.00     0.010 A 
BRANCH   6   9
HETATM    9  O           1     -15.255 -10.654  -3.567  0.00  0.00    -0.247 OA
BRANCH   9  10
HETATM   10  P           1     -15.143 -12.206  -3.136  0.00  0.00     0.411 P 
HETATM   11  O           1     -15.376 -12.332  -1.680  0.00  0.00    -0.624 OA
HETATM   12  O           1     -13.792 -12.712  -3.464  0.00  0.00    -0.624 OA
BRANCH  10  13
HETATM   13  O           1     -16.252 -13.067  -3.934  0.00  0.00    -0.300 OA
HETATM   14  H           1     -16.947 -12.459  -4.118  0.00  0.00     0.223 HD
ENDBRANCH  10  13
ENDBRANCH   9  10
ENDBRANCH   6   9
ENDBRANCH   2   3
ENDBRANCH   1   2
BRANCH   1  15
HETATM   15  C           1     -20.669  -6.297  -5.606  0.00  0.00     0.197 C 
HETATM   16  O           1     -20.569  -5.086  -5.311  0.00  0.00    -0.646 OA
HETATM   17  O           1     -20.868  -6.636  -6.793  0.00  0.00    -0.646 OA
ENDBRANCH   1  15
BRANCH   1  18
HETATM   18  N           1     -21.778  -7.395  -3.762  0.00  0.00    -0.344 N 
HETATM   19  H           1     -22.612  -7.799  -4.166  0.00  0.00     0.163 HD
HETATM   20  C           1     -21.807  -6.893  -2.489  0.00  0.00     0.249 C 
HETATM   21  O           1     -22.092  -5.735  -2.304  0.00  0.00    -0.271 OA
BRANCH  20  22
HETATM   22  C           1     -21.484  -7.789  -1.318  0.00  0.00     0.274 C 
BRANCH  22  23
HETATM   23  C           1     -21.889  -9.220  -1.646  0.00  0.00     0.044 C 
BRANCH  23  24
HETATM   24  C           1     -22.765  -9.769  -0.527  0.00  0.00     0.030 C 
BRANCH  24  25
HETATM   25  C           1     -22.120 -11.019   0.056  0.00  0.00     0.230 C 
BRANCH  25  26
HETATM   26  N           1     -20.924 -10.631   0.873  0.00  0.00    -0.079 N 
HETATM   27  H           1     -21.108  -9.718   1.348  0.00  0.00     0.274 HD
HETATM   28  H           1     -20.737 -11.366   1.592  0.00  0.00     0.274 HD
HETATM   29  H           1     -20.092 -10.537   0.248  0.00  0.00     0.274 HD
ENDBRANCH  25  26
ENDBRANCH  24  25
ENDBRANCH  23  24
ENDBRANCH  22  23
BRANCH  22  30
HETATM   30  N           1     -22.238  -7.321  -0.109  0.00  0.00    -0.067 N 
HETATM   31  H           1     -23.011  -7.991   0.099  0.00  0.00     0.275 HD
HETATM   32  H           1     -22.637  -6.373  -0.292  0.00  0.00     0.275 HD
HETATM   33  H           1     -21.589  -7.272   0.709  0.00  0.00     0.275 HD
ENDBRANCH  22  30
ENDBRANCH  20  22
ENDBRANCH   1  18
TORSDOF 13
ENDMDL
