MODEL 1
REMARK VINA RESULT:      -7.8      0.000      0.000
REMARK  6 active torsions:
REMARK  status: ('A' for Active; 'I' for Inactive)
REMARK    1  A    between atoms: C_2  and  C_3 
REMARK    2  A    between atoms: C_3  and  C_4 
REMARK    3  A    between atoms: C_4  and  C_18 
REMARK    4  A    between atoms: C_4  and  N_12 
REMARK       I    between atoms: N_12  and  C_13 
REMARK    5  A    between atoms: C_13  and  C_14 
REMARK    6  A    between atoms: C_14  and  N_16 
ROOT
HETATM    1  C           1     -35.474  -1.426 -12.445  0.00  0.00     0.189 C 
ENDROOT
BRANCH   1   2
HETATM    2  C           1     -34.354  -1.655 -11.439  0.00  0.00     0.074 C 
BRANCH   2   3
HETATM    3  C           1     -34.079  -3.121 -11.322  0.00  0.00    -0.056 A 
HETATM    4  C           1     -32.866  -3.643 -11.770  0.00  0.00     0.007 A 
HETATM    5  C           1     -32.610  -5.009 -11.662  0.00  0.00     0.001 A 
HETATM    6  C           1     -33.568  -5.855 -11.103  0.00  0.00     0.000 A 
HETATM    7  C           1     -34.782  -5.335 -10.654  0.00  0.00     0.001 A 
HETATM    8  C           1     -35.037  -3.968 -10.764  0.00  0.00     0.007 A 
ENDBRANCH   2   3
ENDBRANCH   1   2
BRANCH   1   9
HETATM    9  C           1     -36.442  -0.406 -11.897  0.00  0.00     0.197 C 
HETATM   10  O           1     -36.030   0.505 -11.147  0.00  0.00    -0.646 OA
HETATM   11  O           1     -37.654  -0.471 -12.195  0.00  0.00    -0.646 OA
ENDBRANCH   1   9
BRANCH   1  12
HETATM   12  N           1     -34.913  -0.941 -13.690  0.00  0.00    -0.344 N 
HETATM   13  H           1     -34.067  -1.356 -14.060  0.00  0.00     0.163 HD
HETATM   14  C           1     -35.527   0.078 -14.367  0.00  0.00     0.248 C 
HETATM   15  O           1     -35.226   1.225 -14.136  0.00  0.00    -0.271 OA
BRANCH  14  16
HETATM   16  C           1     -36.581  -0.230 -15.402  0.00  0.00     0.270 C 
HETATM   17  C           1     -35.934  -0.913 -16.599  0.00  0.00     0.050 C 
BRANCH  16  18
HETATM   18  N           1     -37.231   1.048 -15.848  0.00  0.00    -0.067 N 
HETATM   19  H           1     -37.326   1.045 -16.888  0.00  0.00     0.275 HD
HETATM   20  H           1     -36.642   1.859 -15.552  0.00  0.00     0.275 HD
HETATM   21  H           1     -38.178   1.127 -15.411  0.00  0.00     0.275 HD
ENDBRANCH  16  18
ENDBRANCH  14  16
ENDBRANCH   1  12
TORSDOF 6
ENDMDL
MODEL 2
REMARK VINA RESULT:      -7.7      1.554      1.792
REMARK  6 active torsions:
REMARK  status: ('A' for Active; 'I' for Inactive)
REMARK    1  A    between atoms: C_2  and  C_3 
REMARK    2  A    between atoms: C_3  and  C_4 
REMARK    3  A    between atoms: C_4  and  C_18 
REMARK    4  A    between atoms: C_4  and  N_12 
REMARK       I    between atoms: N_12  and  C_13 
REMARK    5  A    between atoms: C_13  and  C_14 
REMARK    6  A    between atoms: C_14  and  N_16 
ROOT
HETATM    1  C           1     -36.254  -1.005 -11.248  0.00  0.00     0.189 C 
ENDROOT
BRANCH   1   2
HETATM    2  C           1     -34.744  -1.203 -11.206  0.00  0.00     0.074 C 
BRANCH   2   3
HETATM    3  C           1     -34.432  -2.666 -11.206  0.00  0.00    -0.056 A 
HETATM    4  C           1     -33.144  -3.105 -11.514  0.00  0.00     0.007 A 
HETATM    5  C           1     -32.854  -4.469 -11.515  0.00  0.00     0.001 A 
HETATM    6  C           1     -33.851  -5.394 -11.206  0.00  0.00     0.000 A 
HETATM    7  C           1     -35.138  -4.956 -10.898  0.00  0.00     0.001 A 
HETATM    8  C           1     -35.429  -3.592 -10.898  0.00  0.00     0.007 A 
ENDBRANCH   2   3
ENDBRANCH   1   2
BRANCH   1   9
HETATM    9  C           1     -36.737  -0.528  -9.899  0.00  0.00     0.197 C 
HETATM   10  O           1     -35.918  -0.338  -8.974  0.00  0.00    -0.646 OA
HETATM   11  O           1     -37.955  -0.322  -9.708  0.00  0.00    -0.646 OA
ENDBRANCH   1   9
BRANCH   1  12
HETATM   12  N           1     -36.583  -0.016 -12.256  0.00  0.00    -0.344 N 
HETATM   13  H           1     -36.684   0.958 -11.996  0.00  0.00     0.163 HD
HETATM   14  C           1     -36.758  -0.398 -13.558  0.00  0.00     0.248 C 
HETATM   15  O           1     -37.853  -0.721 -13.952  0.00  0.00    -0.271 OA
BRANCH  14  16
HETATM   16  C           1     -35.581  -0.416 -14.504  0.00  0.00     0.270 C 
HETATM   17  C           1     -34.759   0.852 -14.318  0.00  0.00     0.050 C 
BRANCH  16  18
HETATM   18  N           1     -36.079  -0.485 -15.918  0.00  0.00    -0.067 N 
HETATM   19  H           1     -36.639   0.371 -16.132  0.00  0.00     0.275 HD
HETATM   20  H           1     -36.679  -1.333 -16.034  0.00  0.00     0.275 HD
HETATM   21  H           1     -35.265  -0.542 -16.572  0.00  0.00     0.275 HD
ENDBRANCH  16  18
ENDBRANCH  14  16
ENDBRANCH   1  12
TORSDOF 6
ENDMDL
MODEL 3
REMARK VINA RESULT:      -7.0      3.000      4.559
REMARK  6 active torsions:
REMARK  status: ('A' for Active; 'I' for Inactive)
REMARK    1  A    between atoms: C_2  and  C_3 
REMARK    2  A    between atoms: C_3  and  C_4 
REMARK    3  A    between atoms: C_4  and  C_18 
REMARK    4  A    between atoms: C_4  and  N_12 
REMARK       I    between atoms: N_12  and  C_13 
REMARK    5  A    between atoms: C_13  and  C_14 
REMARK    6  A    between atoms: C_14  and  N_16 
ROOT
HETATM    1  C           1     -36.332  -1.151 -10.541  0.00  0.00     0.189 C 
ENDROOT
BRANCH   1   2
HETATM    2  C           1     -36.482  -2.664 -10.632  0.00  0.00     0.074 C 
BRANCH   2   3
HETATM    3  C           1     -35.168  -3.275 -11.006  0.00  0.00    -0.056 A 
HETATM    4  C           1     -33.996  -2.525 -10.904  0.00  0.00     0.007 A 
HETATM    5  C           1     -32.771  -3.094 -11.253  0.00  0.00     0.001 A 
HETATM    6  C           1     -32.719  -4.414 -11.702  0.00  0.00     0.000 A 
HETATM    7  C           1     -33.890  -5.164 -11.805  0.00  0.00     0.001 A 
HETATM    8  C           1     -35.115  -4.594 -11.456  0.00  0.00     0.007 A 
ENDBRANCH   2   3
ENDBRANCH   1   2
BRANCH   1   9
HETATM    9  C           1     -36.220  -0.571 -11.930  0.00  0.00     0.197 C 
HETATM   10  O           1     -36.923  -1.030 -12.856  0.00  0.00    -0.646 OA
HETATM   11  O           1     -35.426   0.368 -12.153  0.00  0.00    -0.646 OA
ENDBRANCH   1   9
BRANCH   1  12
HETATM   12  N           1     -37.492  -0.591  -9.875  0.00  0.00    -0.344 N 
HETATM   13  H           1     -38.399  -1.027  -9.986  0.00  0.00     0.163 HD
HETATM   14  C           1     -37.361   0.527  -9.097  0.00  0.00     0.248 C 
HETATM   15  O           1     -37.491   1.624  -9.588  0.00  0.00    -0.271 OA
BRANCH  14  16
HETATM   16  C           1     -37.055   0.392  -7.626  0.00  0.00     0.270 C 
HETATM   17  C           1     -38.075  -0.533  -6.976  0.00  0.00     0.050 C 
BRANCH  16  18
HETATM   18  N           1     -37.121   1.744  -6.976  0.00  0.00    -0.067 N 
HETATM   19  H           1     -37.761   2.362  -7.523  0.00  0.00     0.275 HD
HETATM   20  H           1     -36.165   2.165  -6.951  0.00  0.00     0.275 HD
HETATM   21  H           1     -37.483   1.644  -6.000  0.00  0.00     0.275 HD
ENDBRANCH  16  18
ENDBRANCH  14  16
ENDBRANCH   1  12
TORSDOF 6
ENDMDL
MODEL 4
REMARK VINA RESULT:      -6.8     14.366     16.439
REMARK  6 active torsions:
REMARK  status: ('A' for Active; 'I' for Inactive)
REMARK    1  A    between atoms: C_2  and  C_3 
REMARK    2  A    between atoms: C_3  and  C_4 
REMARK    3  A    between atoms: C_4  and  C_18 
REMARK    4  A    between atoms: C_4  and  N_12 
REMARK       I    between atoms: N_12  and  C_13 
REMARK    5  A    between atoms: C_13  and  C_14 
REMARK    6  A    between atoms: C_14  and  N_16 
ROOT
HETATM    1  C           1     -21.555  -5.498  -6.952  0.00  0.00     0.189 C 
ENDROOT
BRANCH   1   2
HETATM    2  C           1     -21.926  -4.139  -7.532  0.00  0.00     0.074 C 
BRANCH   2   3
HETATM    3  C           1     -21.882  -4.206  -9.027  0.00  0.00    -0.056 A 
HETATM    4  C           1     -23.032  -4.531  -9.746  0.00  0.00     0.007 A 
HETATM    5  C           1     -22.990  -4.594 -11.138  0.00  0.00     0.001 A 
HETATM    6  C           1     -21.798  -4.329 -11.812  0.00  0.00     0.000 A 
HETATM    7  C           1     -20.647  -4.004 -11.094  0.00  0.00     0.001 A 
HETATM    8  C           1     -20.690  -3.943  -9.701  0.00  0.00     0.007 A 
ENDBRANCH   2   3
ENDBRANCH   1   2
BRANCH   1   9
HETATM    9  C           1     -20.061  -5.568  -6.750  0.00  0.00     0.197 C 
HETATM   10  O           1     -19.448  -6.632  -6.988  0.00  0.00    -0.646 OA
HETATM   11  O           1     -19.436  -4.563  -6.347  0.00  0.00    -0.646 OA
ENDBRANCH   1   9
BRANCH   1  12
HETATM   12  N           1     -22.223  -5.676  -5.677  0.00  0.00    -0.344 N 
HETATM   13  H           1     -23.129  -5.253  -5.517  0.00  0.00     0.163 HD
HETATM   14  C           1     -21.631  -6.418  -4.692  0.00  0.00     0.248 C 
HETATM   15  O           1     -20.901  -5.885  -3.890  0.00  0.00    -0.271 OA
BRANCH  14  16
HETATM   16  C           1     -21.889  -7.902  -4.605  0.00  0.00     0.270 C 
HETATM   17  C           1     -21.494  -8.407  -3.224  0.00  0.00     0.050 C 
BRANCH  16  18
HETATM   18  N           1     -21.075  -8.612  -5.647  0.00  0.00    -0.067 N 
HETATM   19  H           1     -20.140  -8.152  -5.732  0.00  0.00     0.275 HD
HETATM   20  H           1     -21.571  -8.567  -6.566  0.00  0.00     0.275 HD
HETATM   21  H           1     -20.947  -9.612  -5.369  0.00  0.00     0.275 HD
ENDBRANCH  16  18
ENDBRANCH  14  16
ENDBRANCH   1  12
TORSDOF 6
ENDMDL
MODEL 5
REMARK VINA RESULT:      -6.6     16.758     18.977
REMARK  6 active torsions:
REMARK  status: ('A' for Active; 'I' for Inactive)
REMARK    1  A    between atoms: C_2  and  C_3 
REMARK    2  A    between atoms: C_3  and  C_4 
REMARK    3  A    between atoms: C_4  and  C_18 
REMARK    4  A    between atoms: C_4  and  N_12 
REMARK       I    between atoms: N_12  and  C_13 
REMARK    5  A    between atoms: C_13  and  C_14 
REMARK    6  A    between atoms: C_14  and  N_16 
ROOT
HETATM    1  C           1     -21.043  -7.880  -4.182  0.00  0.00     0.189 C 
ENDROOT
BRANCH   1   2
HETATM    2  C           1     -20.942  -7.098  -2.879  0.00  0.00     0.074 C 
BRANCH   2   3
HETATM    3  C           1     -21.694  -7.818  -1.804  0.00  0.00    -0.056 A 
HETATM    4  C           1     -22.293  -7.100  -0.769  0.00  0.00     0.007 A 
HETATM    5  C           1     -22.993  -7.772   0.232  0.00  0.00     0.001 A 
HETATM    6  C           1     -23.095  -9.162   0.199  0.00  0.00     0.000 A 
HETATM    7  C           1     -22.497  -9.882  -0.835  0.00  0.00     0.001 A 
HETATM    8  C           1     -21.796  -9.209  -1.837  0.00  0.00     0.007 A 
ENDBRANCH   2   3
ENDBRANCH   1   2
BRANCH   1   9
HETATM    9  C           1     -21.711  -7.026  -5.232  0.00  0.00     0.197 C 
HETATM   10  O           1     -21.299  -7.051  -6.412  0.00  0.00    -0.646 OA
HETATM   11  O           1     -22.676  -6.295  -4.922  0.00  0.00    -0.646 OA
ENDBRANCH   1   9
BRANCH   1  12
HETATM   12  N           1     -19.713  -8.244  -4.630  0.00  0.00    -0.344 N 
HETATM   13  H           1     -19.022  -7.524  -4.803  0.00  0.00     0.163 HD
HETATM   14  C           1     -19.389  -9.560  -4.818  0.00  0.00     0.248 C 
HETATM   15  O           1     -19.564 -10.078  -5.895  0.00  0.00    -0.271 OA
BRANCH  14  16
HETATM   16  C           1     -18.815 -10.367  -3.679  0.00  0.00     0.270 C 
HETATM   17  C           1     -17.892  -9.487  -2.847  0.00  0.00     0.050 C 
BRANCH  16  18
HETATM   18  N           1     -18.036 -11.525  -4.231  0.00  0.00    -0.067 N 
HETATM   19  H           1     -18.362 -12.410  -3.782  0.00  0.00     0.275 HD
HETATM   20  H           1     -17.019 -11.386  -4.034  0.00  0.00     0.275 HD
HETATM   21  H           1     -18.184 -11.584  -5.265  0.00  0.00     0.275 HD
ENDBRANCH  16  18
ENDBRANCH  14  16
ENDBRANCH   1  12
TORSDOF 6
ENDMDL
MODEL 6
REMARK VINA RESULT:      -6.5     17.386     18.701
REMARK  6 active torsions:
REMARK  status: ('A' for Active; 'I' for Inactive)
REMARK    1  A    between atoms: C_2  and  C_3 
REMARK    2  A    between atoms: C_3  and  C_4 
REMARK    3  A    between atoms: C_4  and  C_18 
REMARK    4  A    between atoms: C_4  and  N_12 
REMARK       I    between atoms: N_12  and  C_13 
REMARK    5  A    between atoms: C_13  and  C_14 
REMARK    6  A    between atoms: C_14  and  N_16 
ROOT
HETATM    1  C           1     -21.324  -7.898  -3.120  0.00  0.00     0.189 C 
ENDROOT
BRANCH   1   2
HETATM    2  C           1     -21.226  -8.313  -1.658  0.00  0.00     0.074 C 
BRANCH   2   3
HETATM    3  C           1     -22.191  -9.424  -1.388  0.00  0.00    -0.056 A 
HETATM    4  C           1     -22.954  -9.419  -0.220  0.00  0.00     0.007 A 
HETATM    5  C           1     -23.852 -10.455   0.031  0.00  0.00     0.001 A 
HETATM    6  C           1     -23.989 -11.497  -0.886  0.00  0.00     0.000 A 
HETATM    7  C           1     -23.226 -11.504  -2.053  0.00  0.00     0.001 A 
HETATM    8  C           1     -22.327 -10.467  -2.304  0.00  0.00     0.007 A 
ENDBRANCH   2   3
ENDBRANCH   1   2
BRANCH   1   9
HETATM    9  C           1     -21.901  -6.506  -3.211  0.00  0.00     0.197 C 
HETATM   10  O           1     -22.234  -5.899  -2.171  0.00  0.00    -0.646 OA
HETATM   11  O           1     -22.046  -5.961  -4.327  0.00  0.00    -0.646 OA
ENDBRANCH   1   9
BRANCH   1  12
HETATM   12  N           1     -20.002  -7.912  -3.716  0.00  0.00    -0.344 N 
HETATM   13  H           1     -19.233  -7.444  -3.252  0.00  0.00     0.163 HD
HETATM   14  C           1     -19.792  -8.559  -4.903  0.00  0.00     0.248 C 
HETATM   15  O           1     -19.924  -7.965  -5.947  0.00  0.00    -0.271 OA
BRANCH  14  16
HETATM   16  C           1     -19.397 -10.015  -4.910  0.00  0.00     0.270 C 
HETATM   17  C           1     -18.525 -10.312  -3.698  0.00  0.00     0.050 C 
BRANCH  16  18
HETATM   18  N           1     -18.628 -10.317  -6.164  0.00  0.00    -0.067 N 
HETATM   19  H           1     -18.452  -9.430  -6.686  0.00  0.00     0.275 HD
HETATM   20  H           1     -19.182 -10.971  -6.762  0.00  0.00     0.275 HD
HETATM   21  H           1     -17.716 -10.762  -5.914  0.00  0.00     0.275 HD
ENDBRANCH  16  18
ENDBRANCH  14  16
ENDBRANCH   1  12
TORSDOF 6
ENDMDL
MODEL 7
REMARK VINA RESULT:      -6.5     15.972     18.148
REMARK  6 active torsions:
REMARK  status: ('A' for Active; 'I' for Inactive)
REMARK    1  A    between atoms: C_2  and  C_3 
REMARK    2  A    between atoms: C_3  and  C_4 
REMARK    3  A    between atoms: C_4  and  C_18 
REMARK    4  A    between atoms: C_4  and  N_12 
REMARK       I    between atoms: N_12  and  C_13 
REMARK    5  A    between atoms: C_13  and  C_14 
REMARK    6  A    between atoms: C_14  and  N_16 
ROOT
HETATM    1  C           1     -20.163  -8.373  -4.650  0.00  0.00     0.189 C 
ENDROOT
BRANCH   1   2
HETATM    2  C           1     -21.133  -9.231  -3.848  0.00  0.00     0.074 C 
BRANCH   2   3
HETATM    3  C           1     -21.579  -8.479  -2.634  0.00  0.00    -0.056 A 
HETATM    4  C           1     -21.830  -9.161  -1.443  0.00  0.00     0.007 A 
HETATM    5  C           1     -22.247  -8.460  -0.312  0.00  0.00     0.001 A 
HETATM    6  C           1     -22.411  -7.076  -0.370  0.00  0.00     0.000 A 
HETATM    7  C           1     -22.160  -6.393  -1.560  0.00  0.00     0.001 A 
HETATM    8  C           1     -21.745  -7.095  -2.692  0.00  0.00     0.007 A 
ENDBRANCH   2   3
ENDBRANCH   1   2
BRANCH   1   9
HETATM    9  C           1     -18.953  -9.195  -5.022  0.00  0.00     0.197 C 
HETATM   10  O           1     -18.883  -9.728  -6.151  0.00  0.00    -0.646 OA
HETATM   11  O           1     -18.021  -9.344  -4.202  0.00  0.00    -0.646 OA
ENDBRANCH   1   9
BRANCH   1  12
HETATM   12  N           1     -20.817  -7.903  -5.855  0.00  0.00    -0.344 N 
HETATM   13  H           1     -21.516  -8.479  -6.309  0.00  0.00     0.163 HD
HETATM   14  C           1     -20.491  -6.682  -6.380  0.00  0.00     0.248 C 
HETATM   15  O           1     -19.601  -6.590  -7.191  0.00  0.00    -0.271 OA
BRANCH  14  16
HETATM   16  C           1     -21.244  -5.448  -5.945  0.00  0.00     0.270 C 
HETATM   17  C           1     -21.878  -4.785  -7.159  0.00  0.00     0.050 C 
BRANCH  16  18
HETATM   18  N           1     -20.293  -4.488  -5.291  0.00  0.00    -0.067 N 
HETATM   19  H           1     -19.462  -4.346  -5.909  0.00  0.00     0.275 HD
HETATM   20  H           1     -19.983  -4.878  -4.373  0.00  0.00     0.275 HD
HETATM   21  H           1     -20.773  -3.573  -5.137  0.00  0.00     0.275 HD
ENDBRANCH  16  18
ENDBRANCH  14  16
ENDBRANCH   1  12
TORSDOF 6
ENDMDL
MODEL 8
REMARK VINA RESULT:      -6.4     10.281     12.172
REMARK  6 active torsions:
REMARK  status: ('A' for Active; 'I' for Inactive)
REMARK    1  A    between atoms: C_2  and  C_3 
REMARK    2  A    between atoms: C_3  and  C_4 
REMARK    3  A    between atoms: C_4  and  C_18 
REMARK    4  A    between atoms: C_4  and  N_12 
REMARK       I    between atoms: N_12  and  C_13 
REMARK    5  A    between atoms: C_13  and  C_14 
REMARK    6  A    between atoms: C_14  and  N_16 
ROOT
HETATM    1  C           1     -26.593  -7.062 -19.490  0.00  0.00     0.189 C 
ENDROOT
BRANCH   1   2
HETATM    2  C           1     -27.691  -6.135 -19.996  0.00  0.00     0.074 C 
BRANCH   2   3
HETATM    3  C           1     -28.750  -5.997 -18.948  0.00  0.00    -0.056 A 
HETATM    4  C           1     -29.181  -4.730 -18.553  0.00  0.00     0.007 A 
HETATM    5  C           1     -30.167  -4.601 -17.576  0.00  0.00     0.001 A 
HETATM    6  C           1     -30.724  -5.740 -16.993  0.00  0.00     0.000 A 
HETATM    7  C           1     -30.294  -7.007 -17.386  0.00  0.00     0.001 A 
HETATM    8  C           1     -29.307  -7.135 -18.364  0.00  0.00     0.007 A 
ENDBRANCH   2   3
ENDBRANCH   1   2
BRANCH   1   9
HETATM    9  C           1     -25.819  -7.612 -20.663  0.00  0.00     0.197 C 
HETATM   10  O           1     -26.309  -8.525 -21.362  0.00  0.00    -0.646 OA
HETATM   11  O           1     -24.688  -7.154 -20.936  0.00  0.00    -0.646 OA
ENDBRANCH   1   9
BRANCH   1  12
HETATM   12  N           1     -25.697  -6.320 -18.625  0.00  0.00    -0.344 N 
HETATM   13  H           1     -25.488  -5.350 -18.825  0.00  0.00     0.163 HD
HETATM   14  C           1     -25.133  -6.930 -17.538  0.00  0.00     0.248 C 
HETATM   15  O           1     -24.072  -7.497 -17.644  0.00  0.00    -0.271 OA
BRANCH  14  16
HETATM   16  C           1     -25.838  -6.897 -16.203  0.00  0.00     0.270 C 
HETATM   17  C           1     -26.788  -5.708 -16.160  0.00  0.00     0.050 C 
BRANCH  16  18
HETATM   18  N           1     -24.822  -6.765 -15.106  0.00  0.00    -0.067 N 
HETATM   19  H           1     -23.945  -7.260 -15.383  0.00  0.00     0.275 HD
HETATM   20  H           1     -25.201  -7.188 -14.229  0.00  0.00     0.275 HD
HETATM   21  H           1     -24.616  -5.753 -14.943  0.00  0.00     0.275 HD
ENDBRANCH  16  18
ENDBRANCH  14  16
ENDBRANCH   1  12
TORSDOF 6
ENDMDL
MODEL 9
REMARK VINA RESULT:      -6.3      9.623     11.146
REMARK  6 active torsions:
REMARK  status: ('A' for Active; 'I' for Inactive)
REMARK    1  A    between atoms: C_2  and  C_3 
REMARK    2  A    between atoms: C_3  and  C_4 
REMARK    3  A    between atoms: C_4  and  C_18 
REMARK    4  A    between atoms: C_4  and  N_12 
REMARK       I    between atoms: N_12  and  C_13 
REMARK    5  A    between atoms: C_13  and  C_14 
REMARK    6  A    between atoms: C_14  and  N_16 
ROOT
HETATM    1  C           1     -27.129  -6.422 -16.864  0.00  0.00     0.189 C 
ENDROOT
BRANCH   1   2
HETATM    2  C           1     -25.828  -6.011 -17.542  0.00  0.00     0.074 C 
BRANCH   2   3
HETATM    3  C           1     -25.712  -6.704 -18.862  0.00  0.00    -0.056 A 
HETATM    4  C           1     -26.842  -6.879 -19.661  0.00  0.00     0.007 A 
HETATM    5  C           1     -26.734  -7.526 -20.891  0.00  0.00     0.001 A 
HETATM    6  C           1     -25.495  -7.998 -21.324  0.00  0.00     0.000 A 
HETATM    7  C           1     -24.364  -7.825 -20.526  0.00  0.00     0.001 A 
HETATM    8  C           1     -24.473  -7.178 -19.295  0.00  0.00     0.007 A 
ENDBRANCH   2   3
ENDBRANCH   1   2
BRANCH   1   9
HETATM    9  C           1     -26.818  -7.195 -15.605  0.00  0.00     0.197 C 
HETATM   10  O           1     -25.644  -7.253 -15.181  0.00  0.00    -0.646 OA
HETATM   11  O           1     -27.735  -7.778 -14.987  0.00  0.00    -0.646 OA
ENDBRANCH   1   9
BRANCH   1  12
HETATM   12  N           1     -27.893  -5.237 -16.526  0.00  0.00    -0.344 N 
HETATM   13  H           1     -27.433  -4.336 -16.478  0.00  0.00     0.163 HD
HETATM   14  C           1     -29.234  -5.335 -16.273  0.00  0.00     0.248 C 
HETATM   15  O           1     -29.624  -5.537 -15.148  0.00  0.00    -0.271 OA
BRANCH  14  16
HETATM   16  C           1     -30.227  -5.192 -17.400  0.00  0.00     0.270 C 
HETATM   17  C           1     -30.582  -3.723 -17.583  0.00  0.00     0.050 C 
BRANCH  16  18
HETATM   18  N           1     -31.469  -5.968 -17.072  0.00  0.00    -0.067 N 
HETATM   19  H           1     -32.301  -5.479 -17.471  0.00  0.00     0.275 HD
HETATM   20  H           1     -31.570  -6.040 -16.035  0.00  0.00     0.275 HD
HETATM   21  H           1     -31.399  -6.928 -17.482  0.00  0.00     0.275 HD
ENDBRANCH  16  18
ENDBRANCH  14  16
ENDBRANCH   1  12
TORSDOF 6
ENDMDL
