MODEL 1
REMARK VINA RESULT:      -5.7      0.000      0.000
REMARK  10 active torsions:
REMARK  status: ('A' for Active; 'I' for Inactive)
REMARK    1  A    between atoms: N_1  and  C_11 
REMARK       I    between atoms: N_1  and  C_4 
REMARK    2  A    between atoms: C_4  and  C_8 
REMARK    3  A    between atoms: C_5  and  S_13 
REMARK    4  A    between atoms: C_5  and  C_6 
REMARK    5  A    between atoms: C_6  and  C_11 
REMARK    6  A    between atoms: C_8  and  C_19 
REMARK    7  A    between atoms: C_8  and  N_21 
REMARK    8  A    between atoms: C_11  and  C_12 
REMARK    9  A    between atoms: S_16  and  C_17 
REMARK   10  A    between atoms: C_17  and  C_19 
ROOT
HETATM    1  N           1     -26.484  -6.674 -18.249  0.00  0.00    -0.345 N 
HETATM    2  C           1     -25.351  -6.908 -18.980  0.00  0.00     0.249 C 
HETATM    3  H           1     -27.383  -6.979 -18.598  0.00  0.00     0.163 HD
HETATM    4  O           1     -24.277  -6.545 -18.563  0.00  0.00    -0.271 OA
ENDROOT
BRANCH   2   5
HETATM    5  C           1     -25.444  -7.618 -20.308  0.00  0.00     0.275 C 
BRANCH   5   6
HETATM    6  C           1     -24.792  -6.764 -21.388  0.00  0.00     0.053 C 
BRANCH   6   7
HETATM    7  C           1     -24.010  -7.659 -22.341  0.00  0.00     0.076 C 
BRANCH   7   8
HETATM    8  S           1     -22.664  -8.476 -21.440  0.00  0.00    -0.173 SA
HETATM    9  C           1     -21.842  -9.174 -22.899  0.00  0.00     0.089 C 
ENDBRANCH   7   8
ENDBRANCH   6   7
ENDBRANCH   5   6
BRANCH   5  10
HETATM   10  N           1     -26.886  -7.845 -20.654  0.00  0.00    -0.066 N 
HETATM   11  H           1     -27.178  -8.791 -20.318  0.00  0.00     0.275 HD
HETATM   12  H           1     -27.473  -7.115 -20.194  0.00  0.00     0.275 HD
HETATM   13  H           1     -27.009  -7.790 -21.691  0.00  0.00     0.275 HD
ENDBRANCH   5  10
ENDBRANCH   2   5
BRANCH   1  14
HETATM   14  C           1     -26.396  -5.992 -16.972  0.00  0.00     0.186 C 
BRANCH  14  15
HETATM   15  C           1     -27.602  -5.079 -16.801  0.00  0.00     0.046 C 
BRANCH  15  16
HETATM   16  C           1     -28.574  -5.299 -17.953  0.00  0.00     0.076 C 
BRANCH  16  17
HETATM   17  S           1     -30.153  -5.914 -17.305  0.00  0.00    -0.173 SA
HETATM   18  C           1     -30.132  -7.495 -18.197  0.00  0.00     0.089 C 
ENDBRANCH  16  17
ENDBRANCH  15  16
ENDBRANCH  14  15
BRANCH  14  19
HETATM   19  C           1     -26.372  -7.011 -15.859  0.00  0.00     0.196 C 
HETATM   20  O           1     -25.280  -7.415 -15.405  0.00  0.00    -0.646 OA
HETATM   21  O           1     -27.445  -7.452 -15.393  0.00  0.00    -0.646 OA
ENDBRANCH  14  19
ENDBRANCH   1  14
TORSDOF 10
ENDMDL
MODEL 2
REMARK VINA RESULT:      -5.1      2.165      3.223
REMARK  10 active torsions:
REMARK  status: ('A' for Active; 'I' for Inactive)
REMARK    1  A    between atoms: N_1  and  C_11 
REMARK       I    between atoms: N_1  and  C_4 
REMARK    2  A    between atoms: C_4  and  C_8 
REMARK    3  A    between atoms: C_5  and  S_13 
REMARK    4  A    between atoms: C_5  and  C_6 
REMARK    5  A    between atoms: C_6  and  C_11 
REMARK    6  A    between atoms: C_8  and  C_19 
REMARK    7  A    between atoms: C_8  and  N_21 
REMARK    8  A    between atoms: C_11  and  C_12 
REMARK    9  A    between atoms: S_16  and  C_17 
REMARK   10  A    between atoms: C_17  and  C_19 
ROOT
HETATM    1  N           1     -27.580  -6.677 -17.079  0.00  0.00    -0.345 N 
HETATM    2  C           1     -26.411  -6.963 -16.427  0.00  0.00     0.249 C 
HETATM    3  H           1     -27.556  -6.323 -18.026  0.00  0.00     0.163 HD
HETATM    4  O           1     -26.439  -7.387 -15.296  0.00  0.00    -0.271 OA
ENDROOT
BRANCH   2   5
HETATM    5  C           1     -25.088  -6.750 -17.120  0.00  0.00     0.275 C 
BRANCH   5   6
HETATM    6  C           1     -25.299  -6.742 -18.628  0.00  0.00     0.053 C 
BRANCH   6   7
HETATM    7  C           1     -24.094  -7.374 -19.313  0.00  0.00     0.076 C 
BRANCH   7   8
HETATM    8  S           1     -24.542  -7.860 -21.003  0.00  0.00    -0.173 SA
HETATM    9  C           1     -22.898  -8.463 -21.479  0.00  0.00     0.089 C 
ENDBRANCH   7   8
ENDBRANCH   6   7
ENDBRANCH   5   6
BRANCH   5  10
HETATM   10  N           1     -24.148  -7.859 -16.753  0.00  0.00    -0.066 N 
HETATM   11  H           1     -23.471  -8.014 -17.535  0.00  0.00     0.275 HD
HETATM   12  H           1     -23.626  -7.602 -15.887  0.00  0.00     0.275 HD
HETATM   13  H           1     -24.691  -8.736 -16.585  0.00  0.00     0.275 HD
ENDBRANCH   5  10
ENDBRANCH   2   5
BRANCH   1  14
HETATM   14  C           1     -28.851  -6.883 -16.414  0.00  0.00     0.186 C 
BRANCH  14  15
HETATM   15  C           1     -29.385  -5.546 -15.915  0.00  0.00     0.046 C 
BRANCH  15  16
HETATM   16  C           1     -28.682  -4.412 -16.651  0.00  0.00     0.076 C 
BRANCH  16  17
HETATM   17  S           1     -29.619  -3.987 -18.146  0.00  0.00    -0.173 SA
HETATM   18  C           1     -31.224  -3.784 -17.324  0.00  0.00     0.089 C 
ENDBRANCH  16  17
ENDBRANCH  15  16
ENDBRANCH  14  15
BRANCH  14  19
HETATM   19  C           1     -29.835  -7.487 -17.386  0.00  0.00     0.196 C 
HETATM   20  O           1     -29.437  -8.289 -18.259  0.00  0.00    -0.646 OA
HETATM   21  O           1     -31.046  -7.185 -17.318  0.00  0.00    -0.646 OA
ENDBRANCH  14  19
ENDBRANCH   1  14
TORSDOF 10
ENDMDL
MODEL 3
REMARK VINA RESULT:      -5.0      2.156      2.780
REMARK  10 active torsions:
REMARK  status: ('A' for Active; 'I' for Inactive)
REMARK    1  A    between atoms: N_1  and  C_11 
REMARK       I    between atoms: N_1  and  C_4 
REMARK    2  A    between atoms: C_4  and  C_8 
REMARK    3  A    between atoms: C_5  and  S_13 
REMARK    4  A    between atoms: C_5  and  C_6 
REMARK    5  A    between atoms: C_6  and  C_11 
REMARK    6  A    between atoms: C_8  and  C_19 
REMARK    7  A    between atoms: C_8  and  N_21 
REMARK    8  A    between atoms: C_11  and  C_12 
REMARK    9  A    between atoms: S_16  and  C_17 
REMARK   10  A    between atoms: C_17  and  C_19 
ROOT
HETATM    1  N           1     -27.379  -6.799 -18.978  0.00  0.00    -0.345 N 
HETATM    2  C           1     -26.158  -6.521 -18.425  0.00  0.00     0.249 C 
HETATM    3  H           1     -27.434  -7.197 -19.907  0.00  0.00     0.163 HD
HETATM    4  O           1     -26.092  -6.046 -17.316  0.00  0.00    -0.271 OA
ENDROOT
BRANCH   2   5
HETATM    5  C           1     -24.895  -6.807 -19.200  0.00  0.00     0.275 C 
BRANCH   5   6
HETATM    6  C           1     -25.241  -7.572 -20.471  0.00  0.00     0.053 C 
BRANCH   6   7
HETATM    7  C           1     -24.624  -6.867 -21.672  0.00  0.00     0.076 C 
BRANCH   7   8
HETATM    8  S           1     -23.766  -8.080 -22.714  0.00  0.00    -0.173 SA
HETATM    9  C           1     -22.518  -8.552 -21.484  0.00  0.00     0.089 C 
ENDBRANCH   7   8
ENDBRANCH   6   7
ENDBRANCH   5   6
BRANCH   5  10
HETATM   10  N           1     -23.969  -7.632 -18.357  0.00  0.00    -0.066 N 
HETATM   11  H           1     -23.753  -8.527 -18.852  0.00  0.00     0.275 HD
HETATM   12  H           1     -23.084  -7.103 -18.192  0.00  0.00     0.275 HD
HETATM   13  H           1     -24.425  -7.843 -17.440  0.00  0.00     0.275 HD
ENDBRANCH   5  10
ENDBRANCH   2   5
BRANCH   1  14
HETATM   14  C           1     -28.592  -6.524 -18.234  0.00  0.00     0.186 C 
BRANCH  14  15
HETATM   15  C           1     -29.244  -5.259 -18.775  0.00  0.00     0.046 C 
BRANCH  15  16
HETATM   16  C           1     -29.261  -4.191 -17.689  0.00  0.00     0.076 C 
BRANCH  16  17
HETATM   17  S           1     -30.901  -3.416 -17.627  0.00  0.00    -0.173 SA
HETATM   18  C           1     -31.722  -4.758 -16.723  0.00  0.00     0.089 C 
ENDBRANCH  16  17
ENDBRANCH  15  16
ENDBRANCH  14  15
BRANCH  14  19
HETATM   19  C           1     -29.545  -7.686 -18.381  0.00  0.00     0.196 C 
HETATM   20  O           1     -29.453  -8.448 -19.368  0.00  0.00    -0.646 OA
HETATM   21  O           1     -30.427  -7.884 -17.517  0.00  0.00    -0.646 OA
ENDBRANCH  14  19
ENDBRANCH   1  14
TORSDOF 10
ENDMDL
MODEL 4
REMARK VINA RESULT:      -4.8     12.119     14.087
REMARK  10 active torsions:
REMARK  status: ('A' for Active; 'I' for Inactive)
REMARK    1  A    between atoms: N_1  and  C_11 
REMARK       I    between atoms: N_1  and  C_4 
REMARK    2  A    between atoms: C_4  and  C_8 
REMARK    3  A    between atoms: C_5  and  S_13 
REMARK    4  A    between atoms: C_5  and  C_6 
REMARK    5  A    between atoms: C_6  and  C_11 
REMARK    6  A    between atoms: C_8  and  C_19 
REMARK    7  A    between atoms: C_8  and  N_21 
REMARK    8  A    between atoms: C_11  and  C_12 
REMARK    9  A    between atoms: S_16  and  C_17 
REMARK   10  A    between atoms: C_17  and  C_19 
ROOT
HETATM    1  N           1     -21.181  -6.584  -6.131  0.00  0.00    -0.345 N 
HETATM    2  C           1     -20.894  -5.308  -6.534  0.00  0.00     0.249 C 
HETATM    3  H           1     -21.745  -7.184  -6.718  0.00  0.00     0.163 HD
HETATM    4  O           1     -20.220  -4.590  -5.833  0.00  0.00    -0.271 OA
ENDROOT
BRANCH   2   5
HETATM    5  C           1     -21.418  -4.797  -7.853  0.00  0.00     0.275 C 
BRANCH   5   6
HETATM    6  C           1     -20.300  -4.083  -8.603  0.00  0.00     0.053 C 
BRANCH   6   7
HETATM    7  C           1     -20.220  -4.620 -10.026  0.00  0.00     0.076 C 
BRANCH   7   8
HETATM    8  S           1     -21.064  -3.477 -11.155  0.00  0.00    -0.173 SA
HETATM    9  C           1     -22.530  -4.510 -11.426  0.00  0.00     0.089 C 
ENDBRANCH   7   8
ENDBRANCH   6   7
ENDBRANCH   5   6
BRANCH   5  10
HETATM   10  N           1     -22.544  -3.837  -7.605  0.00  0.00    -0.066 N 
HETATM   11  H           1     -23.363  -4.102  -8.198  0.00  0.00     0.275 HD
HETATM   12  H           1     -22.817  -3.873  -6.598  0.00  0.00     0.275 HD
HETATM   13  H           1     -22.237  -2.868  -7.848  0.00  0.00     0.275 HD
ENDBRANCH   5  10
ENDBRANCH   2   5
BRANCH   1  14
HETATM   14  C           1     -20.677  -7.075  -4.863  0.00  0.00     0.186 C 
BRANCH  14  15
HETATM   15  C           1     -21.819  -7.152  -3.859  0.00  0.00     0.046 C 
BRANCH  15  16
HETATM   16  C           1     -21.573  -6.156  -2.733  0.00  0.00     0.076 C 
BRANCH  16  17
HETATM   17  S           1     -22.187  -6.845  -1.170  0.00  0.00    -0.173 SA
HETATM   18  C           1     -21.748  -8.569  -1.526  0.00  0.00     0.089 C 
ENDBRANCH  16  17
ENDBRANCH  15  16
ENDBRANCH  14  15
BRANCH  14  19
HETATM   19  C           1     -20.083  -8.449  -5.058  0.00  0.00     0.196 C 
HETATM   20  O           1     -18.998  -8.744  -4.511  0.00  0.00    -0.646 OA
HETATM   21  O           1     -20.676  -9.291  -5.767  0.00  0.00    -0.646 OA
ENDBRANCH  14  19
ENDBRANCH   1  14
TORSDOF 10
ENDMDL
MODEL 5
REMARK VINA RESULT:      -4.7     12.553     14.790
REMARK  10 active torsions:
REMARK  status: ('A' for Active; 'I' for Inactive)
REMARK    1  A    between atoms: N_1  and  C_11 
REMARK       I    between atoms: N_1  and  C_4 
REMARK    2  A    between atoms: C_4  and  C_8 
REMARK    3  A    between atoms: C_5  and  S_13 
REMARK    4  A    between atoms: C_5  and  C_6 
REMARK    5  A    between atoms: C_6  and  C_11 
REMARK    6  A    between atoms: C_8  and  C_19 
REMARK    7  A    between atoms: C_8  and  N_21 
REMARK    8  A    between atoms: C_11  and  C_12 
REMARK    9  A    between atoms: S_16  and  C_17 
REMARK   10  A    between atoms: C_17  and  C_19 
ROOT
HETATM    1  N           1     -20.843  -6.655  -4.953  0.00  0.00    -0.345 N 
HETATM    2  C           1     -21.456  -5.746  -5.771  0.00  0.00     0.249 C 
HETATM    3  H           1     -19.837  -6.761  -4.978  0.00  0.00     0.163 HD
HETATM    4  O           1     -22.657  -5.619  -5.741  0.00  0.00    -0.271 OA
ENDROOT
BRANCH   2   5
HETATM    5  C           1     -20.632  -4.901  -6.712  0.00  0.00     0.275 C 
BRANCH   5   6
HETATM    6  C           1     -21.505  -3.804  -7.308  0.00  0.00     0.053 C 
BRANCH   6   7
HETATM    7  C           1     -21.820  -4.139  -8.760  0.00  0.00     0.076 C 
BRANCH   7   8
HETATM    8  S           1     -23.606  -3.989  -9.043  0.00  0.00    -0.173 SA
HETATM    9  C           1     -23.630  -4.864 -10.633  0.00  0.00     0.089 C 
ENDBRANCH   7   8
ENDBRANCH   6   7
ENDBRANCH   5   6
BRANCH   5  10
HETATM   10  N           1     -20.092  -5.764  -7.814  0.00  0.00    -0.066 N 
HETATM   11  H           1     -20.867  -6.013  -8.471  0.00  0.00     0.275 HD
HETATM   12  H           1     -19.350  -5.243  -8.333  0.00  0.00     0.275 HD
HETATM   13  H           1     -19.686  -6.637  -7.408  0.00  0.00     0.275 HD
ENDBRANCH   5  10
ENDBRANCH   2   5
BRANCH   1  14
HETATM   14  C           1     -21.635  -7.467  -4.049  0.00  0.00     0.186 C 
BRANCH  14  15
HETATM   15  C           1     -21.080  -8.884  -4.022  0.00  0.00     0.046 C 
BRANCH  15  16
HETATM   16  C           1     -19.779  -8.936  -4.814  0.00  0.00     0.076 C 
BRANCH  16  17
HETATM   17  S           1     -18.429  -9.471  -3.725  0.00  0.00    -0.173 SA
HETATM   18  C           1     -17.304 -10.000  -5.048  0.00  0.00     0.089 C 
ENDBRANCH  16  17
ENDBRANCH  15  16
ENDBRANCH  14  15
BRANCH  14  19
HETATM   19  C           1     -21.575  -6.876  -2.661  0.00  0.00     0.196 C 
HETATM   20  O           1     -20.753  -7.318  -1.829  0.00  0.00    -0.646 OA
HETATM   21  O           1     -22.348  -5.946  -2.344  0.00  0.00    -0.646 OA
ENDBRANCH  14  19
ENDBRANCH   1  14
TORSDOF 10
ENDMDL
MODEL 6
REMARK VINA RESULT:      -4.7     13.062     15.686
REMARK  10 active torsions:
REMARK  status: ('A' for Active; 'I' for Inactive)
REMARK    1  A    between atoms: N_1  and  C_11 
REMARK       I    between atoms: N_1  and  C_4 
REMARK    2  A    between atoms: C_4  and  C_8 
REMARK    3  A    between atoms: C_5  and  S_13 
REMARK    4  A    between atoms: C_5  and  C_6 
REMARK    5  A    between atoms: C_6  and  C_11 
REMARK    6  A    between atoms: C_8  and  C_19 
REMARK    7  A    between atoms: C_8  and  N_21 
REMARK    8  A    between atoms: C_11  and  C_12 
REMARK    9  A    between atoms: S_16  and  C_17 
REMARK   10  A    between atoms: C_17  and  C_19 
ROOT
HETATM    1  N           1     -21.435  -5.634  -4.865  0.00  0.00    -0.345 N 
HETATM    2  C           1     -21.398  -6.781  -4.121  0.00  0.00     0.249 C 
HETATM    3  H           1     -21.452  -4.733  -4.405  0.00  0.00     0.163 HD
HETATM    4  O           1     -21.377  -7.857  -4.670  0.00  0.00    -0.271 OA
ENDROOT
BRANCH   2   5
HETATM    5  C           1     -21.382  -6.703  -2.614  0.00  0.00     0.275 C 
BRANCH   5   6
HETATM    6  C           1     -21.547  -8.101  -2.030  0.00  0.00     0.053 C 
BRANCH   6   7
HETATM    7  C           1     -21.395  -8.040  -0.516  0.00  0.00     0.076 C 
BRANCH   7   8
HETATM    8  S           1     -21.514  -9.714   0.174  0.00  0.00    -0.173 SA
HETATM    9  C           1     -23.264  -9.973  -0.231  0.00  0.00     0.089 C 
ENDBRANCH   7   8
ENDBRANCH   6   7
ENDBRANCH   5   6
BRANCH   5  10
HETATM   10  N           1     -22.510  -5.831  -2.147  0.00  0.00    -0.066 N 
HETATM   11  H           1     -22.736  -6.060  -1.152  0.00  0.00     0.275 HD
HETATM   12  H           1     -22.228  -4.829  -2.219  0.00  0.00     0.275 HD
HETATM   13  H           1     -23.351  -6.001  -2.743  0.00  0.00     0.275 HD
ENDBRANCH   5  10
ENDBRANCH   2   5
BRANCH   1  14
HETATM   14  C           1     -21.450  -5.708  -6.313  0.00  0.00     0.186 C 
BRANCH  14  15
HETATM   15  C           1     -22.256  -4.544  -6.872  0.00  0.00     0.046 C 
BRANCH  15  16
HETATM   16  C           1     -22.225  -4.589  -8.395  0.00  0.00     0.076 C 
BRANCH  16  17
HETATM   17  S           1     -23.788  -3.940  -9.052  0.00  0.00    -0.173 SA
HETATM   18  C           1     -23.781  -4.916 -10.582  0.00  0.00     0.089 C 
ENDBRANCH  16  17
ENDBRANCH  15  16
ENDBRANCH  14  15
BRANCH  14  19
HETATM   19  C           1     -20.035  -5.638  -6.834  0.00  0.00     0.196 C 
HETATM   20  O           1     -19.345  -4.616  -6.631  0.00  0.00    -0.646 OA
HETATM   21  O           1     -19.555  -6.602  -7.469  0.00  0.00    -0.646 OA
ENDBRANCH  14  19
ENDBRANCH   1  14
TORSDOF 10
ENDMDL
MODEL 7
REMARK VINA RESULT:      -4.5     12.721     14.929
REMARK  10 active torsions:
REMARK  status: ('A' for Active; 'I' for Inactive)
REMARK    1  A    between atoms: N_1  and  C_11 
REMARK       I    between atoms: N_1  and  C_4 
REMARK    2  A    between atoms: C_4  and  C_8 
REMARK    3  A    between atoms: C_5  and  S_13 
REMARK    4  A    between atoms: C_5  and  C_6 
REMARK    5  A    between atoms: C_6  and  C_11 
REMARK    6  A    between atoms: C_8  and  C_19 
REMARK    7  A    between atoms: C_8  and  N_21 
REMARK    8  A    between atoms: C_11  and  C_12 
REMARK    9  A    between atoms: S_16  and  C_17 
REMARK   10  A    between atoms: C_17  and  C_19 
ROOT
HETATM    1  N           1     -20.911  -6.461  -4.817  0.00  0.00    -0.345 N 
HETATM    2  C           1     -21.680  -5.676  -5.632  0.00  0.00     0.249 C 
HETATM    3  H           1     -19.903  -6.372  -4.834  0.00  0.00     0.163 HD
HETATM    4  O           1     -22.884  -5.782  -5.612  0.00  0.00    -0.271 OA
ENDROOT
BRANCH   2   5
HETATM    5  C           1     -21.027  -4.679  -6.557  0.00  0.00     0.275 C 
BRANCH   5   6
HETATM    6  C           1     -21.449  -4.963  -7.992  0.00  0.00     0.053 C 
BRANCH   6   7
HETATM    7  C           1     -22.329  -3.827  -8.497  0.00  0.00     0.076 C 
BRANCH   7   8
HETATM    8  S           1     -22.981  -4.247 -10.138  0.00  0.00    -0.173 SA
HETATM    9  C           1     -24.583  -3.419  -9.933  0.00  0.00     0.089 C 
ENDBRANCH   7   8
ENDBRANCH   6   7
ENDBRANCH   5   6
BRANCH   5  10
HETATM   10  N           1     -19.535  -4.795  -6.443  0.00  0.00    -0.066 N 
HETATM   11  H           1     -19.271  -4.901  -5.437  0.00  0.00     0.275 HD
HETATM   12  H           1     -19.210  -5.630  -6.979  0.00  0.00     0.275 HD
HETATM   13  H           1     -19.087  -3.935  -6.832  0.00  0.00     0.275 HD
ENDBRANCH   5  10
ENDBRANCH   2   5
BRANCH   1  14
HETATM   14  C           1     -21.539  -7.419  -3.928  0.00  0.00     0.186 C 
BRANCH  14  15
HETATM   15  C           1     -20.745  -8.719  -3.941  0.00  0.00     0.046 C 
BRANCH  15  16
HETATM   16  C           1     -21.704  -9.901  -3.885  0.00  0.00     0.076 C 
BRANCH  16  17
HETATM   17  S           1     -21.280 -10.958  -2.472  0.00  0.00    -0.173 SA
HETATM   18  C           1     -22.710 -10.507  -1.449  0.00  0.00     0.089 C 
ENDBRANCH  16  17
ENDBRANCH  15  16
ENDBRANCH  14  15
BRANCH  14  19
HETATM   19  C           1     -21.567  -6.860  -2.527  0.00  0.00     0.196 C 
HETATM   20  O           1     -22.318  -5.898  -2.254  0.00  0.00    -0.646 OA
HETATM   21  O           1     -20.840  -7.358  -1.640  0.00  0.00    -0.646 OA
ENDBRANCH  14  19
ENDBRANCH   1  14
TORSDOF 10
ENDMDL
MODEL 8
REMARK VINA RESULT:      -4.3     12.612     15.212
REMARK  10 active torsions:
REMARK  status: ('A' for Active; 'I' for Inactive)
REMARK    1  A    between atoms: N_1  and  C_11 
REMARK       I    between atoms: N_1  and  C_4 
REMARK    2  A    between atoms: C_4  and  C_8 
REMARK    3  A    between atoms: C_5  and  S_13 
REMARK    4  A    between atoms: C_5  and  C_6 
REMARK    5  A    between atoms: C_6  and  C_11 
REMARK    6  A    between atoms: C_8  and  C_19 
REMARK    7  A    between atoms: C_8  and  N_21 
REMARK    8  A    between atoms: C_11  and  C_12 
REMARK    9  A    between atoms: S_16  and  C_17 
REMARK   10  A    between atoms: C_17  and  C_19 
ROOT
HETATM    1  N           1     -21.797  -6.184  -5.640  0.00  0.00    -0.345 N 
HETATM    2  C           1     -21.313  -7.431  -5.352  0.00  0.00     0.249 C 
HETATM    3  H           1     -22.458  -5.741  -5.015  0.00  0.00     0.163 HD
HETATM    4  O           1     -20.523  -7.960  -6.098  0.00  0.00    -0.271 OA
ENDROOT
BRANCH   2   5
HETATM    5  C           1     -21.765  -8.146  -4.103  0.00  0.00     0.275 C 
BRANCH   5   6
HETATM    6  C           1     -20.886  -7.729  -2.931  0.00  0.00     0.053 C 
BRANCH   6   7
HETATM    7  C           1     -21.347  -8.447  -1.669  0.00  0.00     0.076 C 
BRANCH   7   8
HETATM    8  S           1     -22.328  -7.313  -0.648  0.00  0.00    -0.173 SA
HETATM    9  C           1     -21.966  -8.109   0.941  0.00  0.00     0.089 C 
ENDBRANCH   7   8
ENDBRANCH   6   7
ENDBRANCH   5   6
BRANCH   5  10
HETATM   10  N           1     -21.653  -9.628  -4.307  0.00  0.00    -0.066 N 
HETATM   11  H           1     -20.695  -9.859  -4.655  0.00  0.00     0.275 HD
HETATM   12  H           1     -21.823 -10.119  -3.402  0.00  0.00     0.275 HD
HETATM   13  H           1     -22.363  -9.938  -5.010  0.00  0.00     0.275 HD
ENDBRANCH   5  10
ENDBRANCH   2   5
BRANCH   1  14
HETATM   14  C           1     -21.362  -5.497  -6.840  0.00  0.00     0.186 C 
BRANCH  14  15
HETATM   15  C           1     -22.427  -4.495  -7.265  0.00  0.00     0.046 C 
BRANCH  15  16
HETATM   16  C           1     -22.116  -3.986  -8.667  0.00  0.00     0.076 C 
BRANCH  16  17
HETATM   17  S           1     -23.315  -4.677  -9.842  0.00  0.00    -0.173 SA
HETATM   18  C           1     -24.553  -3.363  -9.659  0.00  0.00     0.089 C 
ENDBRANCH  16  17
ENDBRANCH  15  16
ENDBRANCH  14  15
BRANCH  14  19
HETATM   19  C           1     -20.068  -4.770  -6.562  0.00  0.00     0.196 C 
HETATM   20  O           1     -19.845  -4.307  -5.422  0.00  0.00    -0.646 OA
HETATM   21  O           1     -19.222  -4.630  -7.471  0.00  0.00    -0.646 OA
ENDBRANCH  14  19
ENDBRANCH   1  14
TORSDOF 10
ENDMDL
MODEL 9
REMARK VINA RESULT:      -4.3     14.667     16.770
REMARK  10 active torsions:
REMARK  status: ('A' for Active; 'I' for Inactive)
REMARK    1  A    between atoms: N_1  and  C_11 
REMARK       I    between atoms: N_1  and  C_4 
REMARK    2  A    between atoms: C_4  and  C_8 
REMARK    3  A    between atoms: C_5  and  S_13 
REMARK    4  A    between atoms: C_5  and  C_6 
REMARK    5  A    between atoms: C_6  and  C_11 
REMARK    6  A    between atoms: C_8  and  C_19 
REMARK    7  A    between atoms: C_8  and  N_21 
REMARK    8  A    between atoms: C_11  and  C_12 
REMARK    9  A    between atoms: S_16  and  C_17 
REMARK   10  A    between atoms: C_17  and  C_19 
ROOT
HETATM    1  N           1     -20.910  -7.963  -2.522  0.00  0.00    -0.345 N 
HETATM    2  C           1     -21.006  -8.357  -3.829  0.00  0.00     0.249 C 
HETATM    3  H           1     -20.211  -7.284  -2.249  0.00  0.00     0.163 HD
HETATM    4  O           1     -21.841  -9.167  -4.156  0.00  0.00    -0.271 OA
ENDROOT
BRANCH   2   5
HETATM    5  C           1     -20.069  -7.781  -4.862  0.00  0.00     0.275 C 
BRANCH   5   6
HETATM    6  C           1     -20.838  -6.834  -5.774  0.00  0.00     0.053 C 
BRANCH   6   7
HETATM    7  C           1     -20.297  -5.419  -5.608  0.00  0.00     0.076 C 
BRANCH   7   8
HETATM    8  S           1     -19.944  -4.709  -7.239  0.00  0.00    -0.173 SA
HETATM    9  C           1     -21.453  -3.709  -7.353  0.00  0.00     0.089 C 
ENDBRANCH   7   8
ENDBRANCH   6   7
ENDBRANCH   5   6
BRANCH   5  10
HETATM   10  N           1     -19.482  -8.894  -5.679  0.00  0.00    -0.066 N 
HETATM   11  H           1     -18.848  -9.468  -5.079  0.00  0.00     0.275 HD
HETATM   12  H           1     -20.250  -9.496  -6.050  0.00  0.00     0.275 HD
HETATM   13  H           1     -18.938  -8.492  -6.476  0.00  0.00     0.275 HD
ENDBRANCH   5  10
ENDBRANCH   2   5
BRANCH   1  14
HETATM   14  C           1     -21.811  -8.515  -1.529  0.00  0.00     0.186 C 
BRANCH  14  15
HETATM   15  C           1     -21.027  -9.401  -0.571  0.00  0.00     0.046 C 
BRANCH  15  16
HETATM   16  C           1     -21.348 -10.864  -0.852  0.00  0.00     0.076 C 
BRANCH  16  17
HETATM   17  S           1     -23.120 -11.037  -1.206  0.00  0.00    -0.173 SA
HETATM   18  C           1     -23.498 -12.121   0.200  0.00  0.00     0.089 C 
ENDBRANCH  16  17
ENDBRANCH  15  16
ENDBRANCH  14  15
BRANCH  14  19
HETATM   19  C           1     -22.461  -7.391  -0.760  0.00  0.00     0.196 C 
HETATM   20  O           1     -23.023  -7.625   0.332  0.00  0.00    -0.646 OA
HETATM   21  O           1     -22.439  -6.227  -1.216  0.00  0.00    -0.646 OA
ENDBRANCH  14  19
ENDBRANCH   1  14
TORSDOF 10
ENDMDL
