MODEL 1
REMARK VINA RESULT:      -6.5      0.000      0.000
REMARK  8 active torsions:
REMARK  status: ('A' for Active; 'I' for Inactive)
REMARK       I    between atoms: C_1  and  N_2 
REMARK       I    between atoms: C_1  and  N_3 
REMARK    1  A    between atoms: N_4  and  C_21 
REMARK    2  A    between atoms: N_5  and  C_6 
REMARK       I    between atoms: N_5  and  C_20 
REMARK    3  A    between atoms: C_6  and  C_12 
REMARK    4  A    between atoms: N_7  and  C_15 
REMARK    5  A    between atoms: C_15  and  C_19 
REMARK    6  A    between atoms: C_19  and  C_22 
REMARK    7  A    between atoms: C_20  and  C_21 
REMARK    8  A    between atoms: C_21  and  C_22 
ROOT
HETATM    1  C           1     -28.169  -6.208 -17.432  0.00  0.00     0.274 C 
ENDROOT
BRANCH   1   2
HETATM    2  N           1     -28.425  -7.427 -16.598  0.00  0.00    -0.067 N 
HETATM    3  H           1     -28.850  -7.144 -15.686  0.00  0.00     0.275 HD
HETATM    4  H           1     -29.080  -8.064 -17.104  0.00  0.00     0.275 HD
HETATM    5  H           1     -27.522  -7.924 -16.422  0.00  0.00     0.275 HD
ENDBRANCH   1   2
BRANCH   1   6
HETATM    6  C           1     -26.862  -6.368 -18.168  0.00  0.00     0.248 C 
HETATM    7  N           1     -26.860  -6.696 -19.497  0.00  0.00    -0.349 N 
HETATM    8  H           1     -27.736  -6.832 -19.985  0.00  0.00     0.163 HD
HETATM    9  O           1     -25.816  -6.206 -17.584  0.00  0.00    -0.271 OA
BRANCH   7  10
HETATM   10  C           1     -25.603  -6.850 -20.205  0.00  0.00     0.235 C 
BRANCH  10  11
HETATM   11  C           1     -25.713  -7.992 -21.183  0.00  0.00     0.191 C 
HETATM   12  O           1     -26.808  -8.576 -21.343  0.00  0.00    -0.647 OA
HETATM   13  O           1     -24.710  -8.355 -21.835  0.00  0.00    -0.647 OA
ENDBRANCH  10  11
ENDBRANCH   7  10
ENDBRANCH   1   6
BRANCH   1  14
HETATM   14  C           1     -28.098  -4.982 -16.529  0.00  0.00     0.044 C 
BRANCH  14  15
HETATM   15  C           1     -28.696  -3.783 -17.253  0.00  0.00     0.023 C 
BRANCH  15  16
HETATM   16  C           1     -29.970  -4.208 -17.972  0.00  0.00     0.138 C 
BRANCH  16  17
HETATM   17  N           1     -31.140  -3.783 -17.190  0.00  0.00    -0.227 N 
HETATM   18  C           1     -31.928  -4.648 -16.707  0.00  0.00     0.665 C 
HETATM   19  N           1     -32.935  -4.281 -16.034  0.00  0.00    -0.235 N 
HETATM   20  N           1     -31.702  -5.913 -16.902  0.00  0.00    -0.235 N 
HETATM   21  H           1     -33.588  -4.999 -15.633  0.00  0.00     0.174 HD
HETATM   22  H           1     -33.118  -3.259 -15.876  0.00  0.00     0.174 HD
HETATM   23  H           1     -32.351  -6.627 -16.503  0.00  0.00     0.174 HD
HETATM   24  H           1     -30.870  -6.215 -17.457  0.00  0.00     0.174 HD
HETATM   25  H           1     -31.323  -2.760 -17.032  0.00  0.00     0.177 HD
ENDBRANCH  16  17
ENDBRANCH  15  16
ENDBRANCH  14  15
ENDBRANCH   1  14
TORSDOF 8
ENDMDL
MODEL 2
REMARK VINA RESULT:      -6.4      9.302     10.598
REMARK  8 active torsions:
REMARK  status: ('A' for Active; 'I' for Inactive)
REMARK       I    between atoms: C_1  and  N_2 
REMARK       I    between atoms: C_1  and  N_3 
REMARK    1  A    between atoms: N_4  and  C_21 
REMARK    2  A    between atoms: N_5  and  C_6 
REMARK       I    between atoms: N_5  and  C_20 
REMARK    3  A    between atoms: C_6  and  C_12 
REMARK    4  A    between atoms: N_7  and  C_15 
REMARK    5  A    between atoms: C_15  and  C_19 
REMARK    6  A    between atoms: C_19  and  C_22 
REMARK    7  A    between atoms: C_20  and  C_21 
REMARK    8  A    between atoms: C_21  and  C_22 
ROOT
HETATM    1  C           1     -34.973  -1.560 -11.587  0.00  0.00     0.274 C 
ENDROOT
BRANCH   1   2
HETATM    2  N           1     -35.625  -1.072 -10.329  0.00  0.00    -0.067 N 
HETATM    3  H           1     -36.445  -0.471 -10.571  0.00  0.00     0.275 HD
HETATM    4  H           1     -35.949  -1.891  -9.764  0.00  0.00     0.275 HD
HETATM    5  H           1     -34.937  -0.516  -9.772  0.00  0.00     0.275 HD
ENDBRANCH   1   2
BRANCH   1   6
HETATM    6  C           1     -35.701  -0.995 -12.782  0.00  0.00     0.248 C 
HETATM    7  N           1     -34.995  -0.543 -13.864  0.00  0.00    -0.349 N 
HETATM    8  H           1     -33.984  -0.587 -13.862  0.00  0.00     0.163 HD
HETATM    9  O           1     -36.909  -0.943 -12.783  0.00  0.00    -0.271 OA
BRANCH   7  10
HETATM   10  C           1     -35.696   0.000 -15.012  0.00  0.00     0.235 C 
BRANCH  10  11
HETATM   11  C           1     -35.759  -1.041 -16.101  0.00  0.00     0.191 C 
HETATM   12  O           1     -35.046  -2.065 -16.029  0.00  0.00    -0.647 OA
HETATM   13  O           1     -36.524  -0.879 -17.076  0.00  0.00    -0.647 OA
ENDBRANCH  10  11
ENDBRANCH   7  10
ENDBRANCH   1   6
BRANCH   1  14
HETATM   14  C           1     -35.028  -3.082 -11.630  0.00  0.00     0.044 C 
BRANCH  14  15
HETATM   15  C           1     -33.732  -3.654 -11.073  0.00  0.00     0.023 C 
BRANCH  15  16
HETATM   16  C           1     -33.634  -5.132 -11.430  0.00  0.00     0.138 C 
BRANCH  16  17
HETATM   17  N           1     -34.056  -5.944 -10.280  0.00  0.00    -0.227 N 
HETATM   18  C           1     -34.771  -6.973 -10.459  0.00  0.00     0.665 C 
HETATM   19  N           1     -35.133  -7.672  -9.468  0.00  0.00    -0.235 N 
HETATM   20  N           1     -35.133  -7.311 -11.660  0.00  0.00    -0.235 N 
HETATM   21  H           1     -35.726  -8.526  -9.617  0.00  0.00     0.174 HD
HETATM   22  H           1     -34.841  -7.399  -8.497  0.00  0.00     0.174 HD
HETATM   23  H           1     -35.722  -8.161 -11.808  0.00  0.00     0.174 HD
HETATM   24  H           1     -34.833  -6.734 -12.478  0.00  0.00     0.174 HD
HETATM   25  H           1     -33.763  -5.671  -9.308  0.00  0.00     0.177 HD
ENDBRANCH  16  17
ENDBRANCH  15  16
ENDBRANCH  14  15
ENDBRANCH   1  14
TORSDOF 8
ENDMDL
MODEL 3
REMARK VINA RESULT:      -6.0      8.512     10.705
REMARK  8 active torsions:
REMARK  status: ('A' for Active; 'I' for Inactive)
REMARK       I    between atoms: C_1  and  N_2 
REMARK       I    between atoms: C_1  and  N_3 
REMARK    1  A    between atoms: N_4  and  C_21 
REMARK    2  A    between atoms: N_5  and  C_6 
REMARK       I    between atoms: N_5  and  C_20 
REMARK    3  A    between atoms: C_6  and  C_12 
REMARK    4  A    between atoms: N_7  and  C_15 
REMARK    5  A    between atoms: C_15  and  C_19 
REMARK    6  A    between atoms: C_19  and  C_22 
REMARK    7  A    between atoms: C_20  and  C_21 
REMARK    8  A    between atoms: C_21  and  C_22 
ROOT
HETATM    1  C           1     -35.637  -0.258 -11.618  0.00  0.00     0.274 C 
ENDROOT
BRANCH   1   2
HETATM    2  N           1     -36.482   0.384 -10.558  0.00  0.00    -0.067 N 
HETATM    3  H           1     -36.572  -0.264  -9.744  0.00  0.00     0.275 HD
HETATM    4  H           1     -36.031   1.274 -10.246  0.00  0.00     0.275 HD
HETATM    5  H           1     -37.430   0.591 -10.947  0.00  0.00     0.275 HD
ENDBRANCH   1   2
BRANCH   1   6
HETATM    6  C           1     -36.248   0.003 -12.973  0.00  0.00     0.248 C 
HETATM    7  N           1     -35.445   0.315 -14.037  0.00  0.00    -0.349 N 
HETATM    8  H           1     -34.442   0.372 -13.914  0.00  0.00     0.163 HD
HETATM    9  O           1     -37.445  -0.065 -13.119  0.00  0.00    -0.271 OA
BRANCH   7  10
HETATM   10  C           1     -36.032   0.566 -15.339  0.00  0.00     0.235 C 
BRANCH  10  11
HETATM   11  C           1     -36.005  -0.702 -16.156  0.00  0.00     0.191 C 
HETATM   12  O           1     -36.779  -0.836 -17.128  0.00  0.00    -0.647 OA
HETATM   13  O           1     -35.208  -1.619 -15.860  0.00  0.00    -0.647 OA
ENDBRANCH  10  11
ENDBRANCH   7  10
ENDBRANCH   1   6
BRANCH   1  14
HETATM   14  C           1     -35.569  -1.759 -11.371  0.00  0.00     0.044 C 
BRANCH  14  15
HETATM   15  C           1     -34.303  -2.090 -10.592  0.00  0.00     0.023 C 
BRANCH  15  16
HETATM   16  C           1     -33.693  -3.376 -11.136  0.00  0.00     0.138 C 
BRANCH  16  17
HETATM   17  N           1     -33.563  -3.278 -12.596  0.00  0.00    -0.227 N 
HETATM   18  C           1     -34.037  -4.189 -13.337  0.00  0.00     0.665 C 
HETATM   19  N           1     -33.925  -4.104 -14.595  0.00  0.00    -0.235 N 
HETATM   20  N           1     -34.639  -5.210 -12.806  0.00  0.00    -0.235 N 
HETATM   21  H           1     -34.318  -4.859 -15.209  0.00  0.00     0.174 HD
HETATM   22  H           1     -33.438  -3.278 -15.025  0.00  0.00     0.174 HD
HETATM   23  H           1     -35.031  -5.961 -13.417  0.00  0.00     0.174 HD
HETATM   24  H           1     -34.732  -5.280 -11.767  0.00  0.00     0.174 HD
HETATM   25  H           1     -33.076  -2.452 -13.026  0.00  0.00     0.177 HD
ENDBRANCH  16  17
ENDBRANCH  15  16
ENDBRANCH  14  15
ENDBRANCH   1  14
TORSDOF 8
ENDMDL
MODEL 4
REMARK VINA RESULT:      -6.0      1.587      2.093
REMARK  8 active torsions:
REMARK  status: ('A' for Active; 'I' for Inactive)
REMARK       I    between atoms: C_1  and  N_2 
REMARK       I    between atoms: C_1  and  N_3 
REMARK    1  A    between atoms: N_4  and  C_21 
REMARK    2  A    between atoms: N_5  and  C_6 
REMARK       I    between atoms: N_5  and  C_20 
REMARK    3  A    between atoms: C_6  and  C_12 
REMARK    4  A    between atoms: N_7  and  C_15 
REMARK    5  A    between atoms: C_15  and  C_19 
REMARK    6  A    between atoms: C_19  and  C_22 
REMARK    7  A    between atoms: C_20  and  C_21 
REMARK    8  A    between atoms: C_21  and  C_22 
ROOT
HETATM    1  C           1     -26.016  -6.831 -16.575  0.00  0.00     0.274 C 
ENDROOT
BRANCH   1   2
HETATM    2  N           1     -24.962  -6.701 -15.517  0.00  0.00    -0.067 N 
HETATM    3  H           1     -24.020  -6.654 -15.967  0.00  0.00     0.275 HD
HETATM    4  H           1     -25.128  -5.829 -14.966  0.00  0.00     0.275 HD
HETATM    5  H           1     -25.003  -7.529 -14.881  0.00  0.00     0.275 HD
ENDBRANCH   1   2
BRANCH   1   6
HETATM    6  C           1     -25.381  -6.691 -17.937  0.00  0.00     0.248 C 
HETATM    7  N           1     -26.166  -6.661 -19.058  0.00  0.00    -0.349 N 
HETATM    8  H           1     -27.171  -6.732 -18.974  0.00  0.00     0.163 HD
HETATM    9  O           1     -24.180  -6.605 -18.037  0.00  0.00    -0.271 OA
BRANCH   7  10
HETATM   10  C           1     -25.555  -6.526 -20.367  0.00  0.00     0.235 C 
BRANCH  10  11
HETATM   11  C           1     -25.290  -7.895 -20.942  0.00  0.00     0.191 C 
HETATM   12  O           1     -26.235  -8.578 -21.392  0.00  0.00    -0.647 OA
HETATM   13  O           1     -24.124  -8.346 -20.969  0.00  0.00    -0.647 OA
ENDBRANCH  10  11
ENDBRANCH   7  10
ENDBRANCH   1   6
BRANCH   1  14
HETATM   14  C           1     -27.061  -5.738 -16.386  0.00  0.00     0.044 C 
BRANCH  14  15
HETATM   15  C           1     -28.344  -6.351 -15.841  0.00  0.00     0.023 C 
BRANCH  15  16
HETATM   16  C           1     -29.437  -6.264 -16.898  0.00  0.00     0.138 C 
BRANCH  16  17
HETATM   17  N           1     -30.161  -4.993 -16.752  0.00  0.00    -0.227 N 
HETATM   18  C           1     -30.119  -4.131 -17.678  0.00  0.00     0.665 C 
HETATM   19  N           1     -30.744  -3.037 -17.553  0.00  0.00    -0.235 N 
HETATM   20  N           1     -29.436  -4.369 -18.757  0.00  0.00    -0.235 N 
HETATM   21  H           1     -30.709  -2.322 -18.320  0.00  0.00     0.174 HD
HETATM   22  H           1     -31.297  -2.844 -16.681  0.00  0.00     0.174 HD
HETATM   23  H           1     -29.402  -3.658 -19.522  0.00  0.00     0.174 HD
HETATM   24  H           1     -28.921  -5.272 -18.861  0.00  0.00     0.174 HD
HETATM   25  H           1     -30.715  -4.801 -15.880  0.00  0.00     0.177 HD
ENDBRANCH  16  17
ENDBRANCH  15  16
ENDBRANCH  14  15
ENDBRANCH   1  14
TORSDOF 8
ENDMDL
MODEL 5
REMARK VINA RESULT:      -6.0     13.728     15.697
REMARK  8 active torsions:
REMARK  status: ('A' for Active; 'I' for Inactive)
REMARK       I    between atoms: C_1  and  N_2 
REMARK       I    between atoms: C_1  and  N_3 
REMARK    1  A    between atoms: N_4  and  C_21 
REMARK    2  A    between atoms: N_5  and  C_6 
REMARK       I    between atoms: N_5  and  C_20 
REMARK    3  A    between atoms: C_6  and  C_12 
REMARK    4  A    between atoms: N_7  and  C_15 
REMARK    5  A    between atoms: C_15  and  C_19 
REMARK    6  A    between atoms: C_19  and  C_22 
REMARK    7  A    between atoms: C_20  and  C_21 
REMARK    8  A    between atoms: C_21  and  C_22 
ROOT
HETATM    1  C           1     -20.481  -6.187  -5.327  0.00  0.00     0.274 C 
ENDROOT
BRANCH   1   2
HETATM    2  N           1     -20.925  -6.982  -6.518  0.00  0.00    -0.067 N 
HETATM    3  H           1     -20.423  -6.645  -7.369  0.00  0.00     0.275 HD
HETATM    4  H           1     -20.708  -7.993  -6.362  0.00  0.00     0.275 HD
HETATM    5  H           1     -21.956  -6.863  -6.651  0.00  0.00     0.275 HD
ENDBRANCH   1   2
BRANCH   1   6
HETATM    6  C           1     -21.569  -6.198  -4.281  0.00  0.00     0.248 C 
HETATM    7  N           1     -21.241  -6.196  -2.952  0.00  0.00    -0.349 N 
HETATM    8  H           1     -20.269  -6.186  -2.671  0.00  0.00     0.163 HD
HETATM    9  O           1     -22.729  -6.209  -4.618  0.00  0.00    -0.271 OA
BRANCH   7  10
HETATM   10  C           1     -22.287  -6.206  -1.947  0.00  0.00     0.235 C 
BRANCH  10  11
HETATM   11  C           1     -22.017  -7.304  -0.950  0.00  0.00     0.191 C 
HETATM   12  O           1     -20.936  -7.933  -0.990  0.00  0.00    -0.647 OA
HETATM   13  O           1     -22.873  -7.587  -0.084  0.00  0.00    -0.647 OA
ENDBRANCH  10  11
ENDBRANCH   7  10
ENDBRANCH   1   6
BRANCH   1  14
HETATM   14  C           1     -20.198  -4.752  -5.752  0.00  0.00     0.044 C 
BRANCH  14  15
HETATM   15  C           1     -19.627  -4.743  -7.163  0.00  0.00     0.023 C 
BRANCH  15  16
HETATM   16  C           1     -20.381  -3.725  -8.009  0.00  0.00     0.138 C 
BRANCH  16  17
HETATM   17  N           1     -21.786  -3.673  -7.580  0.00  0.00    -0.227 N 
HETATM   18  C           1     -22.698  -4.107  -8.342  0.00  0.00     0.665 C 
HETATM   19  N           1     -23.907  -4.063  -7.971  0.00  0.00    -0.235 N 
HETATM   20  N           1     -22.393  -4.599  -9.506  0.00  0.00    -0.235 N 
HETATM   21  H           1     -24.664  -4.423  -8.604  0.00  0.00     0.174 HD
HETATM   22  H           1     -24.154  -3.666  -7.031  0.00  0.00     0.174 HD
HETATM   23  H           1     -23.145  -4.958 -10.135  0.00  0.00     0.174 HD
HETATM   24  H           1     -21.394  -4.636  -9.811  0.00  0.00     0.174 HD
HETATM   25  H           1     -22.032  -3.276  -6.639  0.00  0.00     0.177 HD
ENDBRANCH  16  17
ENDBRANCH  15  16
ENDBRANCH  14  15
ENDBRANCH   1  14
TORSDOF 8
ENDMDL
MODEL 6
REMARK VINA RESULT:      -5.9     11.977     13.787
REMARK  8 active torsions:
REMARK  status: ('A' for Active; 'I' for Inactive)
REMARK       I    between atoms: C_1  and  N_2 
REMARK       I    between atoms: C_1  and  N_3 
REMARK    1  A    between atoms: N_4  and  C_21 
REMARK    2  A    between atoms: N_5  and  C_6 
REMARK       I    between atoms: N_5  and  C_20 
REMARK    3  A    between atoms: C_6  and  C_12 
REMARK    4  A    between atoms: N_7  and  C_15 
REMARK    5  A    between atoms: C_15  and  C_19 
REMARK    6  A    between atoms: C_19  and  C_22 
REMARK    7  A    between atoms: C_20  and  C_21 
REMARK    8  A    between atoms: C_21  and  C_22 
ROOT
HETATM    1  C           1     -20.613  -4.910  -7.739  0.00  0.00     0.274 C 
ENDROOT
BRANCH   1   2
HETATM    2  N           1     -19.818  -3.766  -8.294  0.00  0.00    -0.067 N 
HETATM    3  H           1     -20.440  -3.154  -8.869  0.00  0.00     0.275 HD
HETATM    4  H           1     -19.413  -3.210  -7.508  0.00  0.00     0.275 HD
HETATM    5  H           1     -19.045  -4.137  -8.893  0.00  0.00     0.275 HD
ENDBRANCH   1   2
BRANCH   1   6
HETATM    6  C           1     -22.068  -4.731  -8.098  0.00  0.00     0.248 C 
HETATM    7  N           1     -22.489  -4.953  -9.381  0.00  0.00    -0.349 N 
HETATM    8  H           1     -21.824  -5.238 -10.089  0.00  0.00     0.163 HD
HETATM    9  O           1     -22.861  -4.391  -7.252  0.00  0.00    -0.271 OA
BRANCH   7  10
HETATM   10  C           1     -23.887  -4.781  -9.726  0.00  0.00     0.235 C 
BRANCH  10  11
HETATM   11  C           1     -24.055  -3.518 -10.532  0.00  0.00     0.191 C 
HETATM   12  O           1     -23.051  -2.855 -10.873  0.00  0.00    -0.647 OA
HETATM   13  O           1     -25.199  -3.132 -10.859  0.00  0.00    -0.647 OA
ENDBRANCH  10  11
ENDBRANCH   7  10
ENDBRANCH   1   6
BRANCH   1  14
HETATM   14  C           1     -20.463  -4.943  -6.224  0.00  0.00     0.044 C 
BRANCH  14  15
HETATM   15  C           1     -20.178  -6.369  -5.772  0.00  0.00     0.023 C 
BRANCH  15  16
HETATM   16  C           1     -21.448  -6.983  -5.197  0.00  0.00     0.138 C 
BRANCH  16  17
HETATM   17  N           1     -21.957  -6.132  -4.112  0.00  0.00    -0.227 N 
HETATM   18  C           1     -21.847  -6.507  -2.908  0.00  0.00     0.665 C 
HETATM   19  N           1     -22.285  -5.773  -1.974  0.00  0.00    -0.235 N 
HETATM   20  N           1     -21.283  -7.645  -2.631  0.00  0.00    -0.235 N 
HETATM   21  H           1     -22.194  -6.084  -0.976  0.00  0.00     0.174 HD
HETATM   22  H           1     -22.741  -4.853  -2.198  0.00  0.00     0.174 HD
HETATM   23  H           1     -21.192  -7.954  -1.637  0.00  0.00     0.174 HD
HETATM   24  H           1     -20.921  -8.250  -3.402  0.00  0.00     0.174 HD
HETATM   25  H           1     -22.412  -5.212  -4.337  0.00  0.00     0.177 HD
ENDBRANCH  16  17
ENDBRANCH  15  16
ENDBRANCH  14  15
ENDBRANCH   1  14
TORSDOF 8
ENDMDL
MODEL 7
REMARK VINA RESULT:      -5.8     12.696     14.546
REMARK  8 active torsions:
REMARK  status: ('A' for Active; 'I' for Inactive)
REMARK       I    between atoms: C_1  and  N_2 
REMARK       I    between atoms: C_1  and  N_3 
REMARK    1  A    between atoms: N_4  and  C_21 
REMARK    2  A    between atoms: N_5  and  C_6 
REMARK       I    between atoms: N_5  and  C_20 
REMARK    3  A    between atoms: C_6  and  C_12 
REMARK    4  A    between atoms: N_7  and  C_15 
REMARK    5  A    between atoms: C_15  and  C_19 
REMARK    6  A    between atoms: C_19  and  C_22 
REMARK    7  A    between atoms: C_20  and  C_21 
REMARK    8  A    between atoms: C_21  and  C_22 
ROOT
HETATM    1  C           1     -20.444  -5.594  -6.395  0.00  0.00     0.274 C 
ENDROOT
BRANCH   1   2
HETATM    2  N           1     -19.788  -6.132  -7.632  0.00  0.00    -0.067 N 
HETATM    3  H           1     -19.718  -7.172  -7.565  0.00  0.00     0.275 HD
HETATM    4  H           1     -20.359  -5.875  -8.469  0.00  0.00     0.275 HD
HETATM    5  H           1     -18.830  -5.723  -7.724  0.00  0.00     0.275 HD
ENDBRANCH   1   2
BRANCH   1   6
HETATM    6  C           1     -20.572  -6.698  -5.374  0.00  0.00     0.248 C 
HETATM    7  N           1     -21.210  -6.462  -4.186  0.00  0.00    -0.349 N 
HETATM    8  H           1     -21.595  -5.546  -3.993  0.00  0.00     0.163 HD
HETATM    9  O           1     -20.111  -7.791  -5.606  0.00  0.00    -0.271 OA
BRANCH   7  10
HETATM   10  C           1     -21.332  -7.523  -3.205  0.00  0.00     0.235 C 
BRANCH  10  11
HETATM   11  C           1     -21.860  -6.954  -1.912  0.00  0.00     0.191 C 
HETATM   12  O           1     -22.491  -5.874  -1.915  0.00  0.00    -0.647 OA
HETATM   13  O           1     -21.666  -7.561  -0.837  0.00  0.00    -0.647 OA
ENDBRANCH  10  11
ENDBRANCH   7  10
ENDBRANCH   1   6
BRANCH   1  14
HETATM   14  C           1     -21.828  -5.063  -6.746  0.00  0.00     0.044 C 
BRANCH  14  15
HETATM   15  C           1     -21.696  -3.699  -7.409  0.00  0.00     0.023 C 
BRANCH  15  16
HETATM   16  C           1     -22.245  -3.768  -8.828  0.00  0.00     0.138 C 
BRANCH  16  17
HETATM   17  N           1     -23.675  -3.426  -8.819  0.00  0.00    -0.227 N 
HETATM   18  C           1     -24.436  -3.862  -9.731  0.00  0.00     0.665 C 
HETATM   19  N           1     -25.668  -3.567  -9.722  0.00  0.00    -0.235 N 
HETATM   20  N           1     -23.955  -4.613 -10.675  0.00  0.00    -0.235 N 
HETATM   21  H           1     -26.299  -3.929 -10.478  0.00  0.00     0.174 HD
HETATM   22  H           1     -26.057  -2.960  -8.958  0.00  0.00     0.174 HD
HETATM   23  H           1     -24.584  -4.974 -11.427  0.00  0.00     0.174 HD
HETATM   24  H           1     -22.939  -4.857 -10.682  0.00  0.00     0.174 HD
HETATM   25  H           1     -24.064  -2.819  -8.055  0.00  0.00     0.177 HD
ENDBRANCH  16  17
ENDBRANCH  15  16
ENDBRANCH  14  15
ENDBRANCH   1  14
TORSDOF 8
ENDMDL
MODEL 8
REMARK VINA RESULT:      -5.4     12.545     14.363
REMARK  8 active torsions:
REMARK  status: ('A' for Active; 'I' for Inactive)
REMARK       I    between atoms: C_1  and  N_2 
REMARK       I    between atoms: C_1  and  N_3 
REMARK    1  A    between atoms: N_4  and  C_21 
REMARK    2  A    between atoms: N_5  and  C_6 
REMARK       I    between atoms: N_5  and  C_20 
REMARK    3  A    between atoms: C_6  and  C_12 
REMARK    4  A    between atoms: N_7  and  C_15 
REMARK    5  A    between atoms: C_15  and  C_19 
REMARK    6  A    between atoms: C_19  and  C_22 
REMARK    7  A    between atoms: C_20  and  C_21 
REMARK    8  A    between atoms: C_21  and  C_22 
ROOT
HETATM    1  C           1     -21.113  -5.439  -6.938  0.00  0.00     0.274 C 
ENDROOT
BRANCH   1   2
HETATM    2  N           1     -20.371  -4.550  -5.985  0.00  0.00    -0.067 N 
HETATM    3  H           1     -19.345  -4.729  -6.069  0.00  0.00     0.275 HD
HETATM    4  H           1     -20.570  -3.550  -6.215  0.00  0.00     0.275 HD
HETATM    5  H           1     -20.681  -4.752  -5.007  0.00  0.00     0.275 HD
ENDBRANCH   1   2
BRANCH   1   6
HETATM    6  C           1     -22.433  -4.800  -7.295  0.00  0.00     0.248 C 
HETATM    7  N           1     -22.645  -4.330  -8.563  0.00  0.00    -0.349 N 
HETATM    8  H           1     -21.917  -4.411  -9.261  0.00  0.00     0.163 HD
HETATM    9  O           1     -23.303  -4.704  -6.461  0.00  0.00    -0.271 OA
BRANCH   7  10
HETATM   10  C           1     -23.914  -3.716  -8.906  0.00  0.00     0.235 C 
BRANCH  10  11
HETATM   11  C           1     -23.965  -3.463 -10.392  0.00  0.00     0.191 C 
HETATM   12  O           1     -25.058  -3.216 -10.947  0.00  0.00    -0.647 OA
HETATM   13  O           1     -22.914  -3.499 -11.069  0.00  0.00    -0.647 OA
ENDBRANCH  10  11
ENDBRANCH   7  10
ENDBRANCH   1   6
BRANCH   1  14
HETATM   14  C           1     -21.364  -6.790  -6.281  0.00  0.00     0.044 C 
BRANCH  14  15
HETATM   15  C           1     -20.140  -7.196  -5.470  0.00  0.00     0.023 C 
BRANCH  15  16
HETATM   16  C           1     -20.586  -7.928  -4.211  0.00  0.00     0.138 C 
BRANCH  16  17
HETATM   17  N           1     -21.517  -7.081  -3.453  0.00  0.00    -0.227 N 
HETATM   18  C           1     -21.489  -7.084  -2.188  0.00  0.00     0.665 C 
HETATM   19  N           1     -22.291  -6.353  -1.535  0.00  0.00    -0.235 N 
HETATM   20  N           1     -20.637  -7.836  -1.558  0.00  0.00    -0.235 N 
HETATM   21  H           1     -22.268  -6.355  -0.486  0.00  0.00     0.174 HD
HETATM   22  H           1     -22.980  -5.744  -2.044  0.00  0.00     0.174 HD
HETATM   23  H           1     -20.613  -7.838  -0.514  0.00  0.00     0.174 HD
HETATM   24  H           1     -19.975  -8.439  -2.097  0.00  0.00     0.174 HD
HETATM   25  H           1     -22.205  -6.472  -3.962  0.00  0.00     0.177 HD
ENDBRANCH  16  17
ENDBRANCH  15  16
ENDBRANCH  14  15
ENDBRANCH   1  14
TORSDOF 8
ENDMDL
MODEL 9
REMARK VINA RESULT:      -5.3     12.157     13.658
REMARK  8 active torsions:
REMARK  status: ('A' for Active; 'I' for Inactive)
REMARK       I    between atoms: C_1  and  N_2 
REMARK       I    between atoms: C_1  and  N_3 
REMARK    1  A    between atoms: N_4  and  C_21 
REMARK    2  A    between atoms: N_5  and  C_6 
REMARK       I    between atoms: N_5  and  C_20 
REMARK    3  A    between atoms: C_6  and  C_12 
REMARK    4  A    between atoms: N_7  and  C_15 
REMARK    5  A    between atoms: C_15  and  C_19 
REMARK    6  A    between atoms: C_19  and  C_22 
REMARK    7  A    between atoms: C_20  and  C_21 
REMARK    8  A    between atoms: C_21  and  C_22 
ROOT
HETATM    1  C           1     -20.466  -5.669  -6.298  0.00  0.00     0.274 C 
ENDROOT
BRANCH   1   2
HETATM    2  N           1     -19.824  -6.123  -7.575  0.00  0.00    -0.067 N 
HETATM    3  H           1     -19.028  -5.488  -7.811  0.00  0.00     0.275 HD
HETATM    4  H           1     -19.467  -7.099  -7.457  0.00  0.00     0.275 HD
HETATM    5  H           1     -20.529  -6.100  -8.347  0.00  0.00     0.275 HD
ENDBRANCH   1   2
BRANCH   1   6
HETATM    6  C           1     -20.504  -6.816  -5.319  0.00  0.00     0.248 C 
HETATM    7  N           1     -19.851  -7.984  -5.607  0.00  0.00    -0.349 N 
HETATM    8  H           1     -19.343  -8.078  -6.477  0.00  0.00     0.163 HD
HETATM    9  O           1     -21.112  -6.703  -4.281  0.00  0.00    -0.271 OA
BRANCH   7  10
HETATM   10  C           1     -19.888  -9.087  -4.666  0.00  0.00     0.235 C 
BRANCH  10  11
HETATM   11  C           1     -20.998 -10.036  -5.045  0.00  0.00     0.191 C 
HETATM   12  O           1     -21.892 -10.315  -4.217  0.00  0.00    -0.647 OA
HETATM   13  O           1     -21.024 -10.542  -6.188  0.00  0.00    -0.647 OA
ENDBRANCH  10  11
ENDBRANCH   7  10
ENDBRANCH   1   6
BRANCH   1  14
HETATM   14  C           1     -21.885  -5.197  -6.585  0.00  0.00     0.044 C 
BRANCH  14  15
HETATM   15  C           1     -21.840  -3.860  -7.313  0.00  0.00     0.023 C 
BRANCH  15  16
HETATM   16  C           1     -22.438  -4.020  -8.705  0.00  0.00     0.138 C 
BRANCH  16  17
HETATM   17  N           1     -23.867  -3.675  -8.667  0.00  0.00    -0.227 N 
HETATM   18  C           1     -24.578  -3.810  -9.705  0.00  0.00     0.665 C 
HETATM   19  N           1     -25.809  -3.515  -9.673  0.00  0.00    -0.235 N 
HETATM   20  N           1     -24.045  -4.253 -10.805  0.00  0.00    -0.235 N 
HETATM   21  H           1     -26.398  -3.626 -10.534  0.00  0.00     0.174 HD
HETATM   22  H           1     -26.239  -3.157  -8.784  0.00  0.00     0.174 HD
HETATM   23  H           1     -24.632  -4.365 -11.662  0.00  0.00     0.174 HD
HETATM   24  H           1     -23.030  -4.498 -10.832  0.00  0.00     0.174 HD
HETATM   25  H           1     -24.298  -3.318  -7.778  0.00  0.00     0.177 HD
ENDBRANCH  16  17
ENDBRANCH  15  16
ENDBRANCH  14  15
ENDBRANCH   1  14
TORSDOF 8
ENDMDL
