MODEL 1
REMARK VINA RESULT:      -8.3      0.000      0.000
REMARK  8 active torsions:
REMARK  status: ('A' for Active; 'I' for Inactive)
REMARK    1  A    between atoms: N_4  and  C_10 
REMARK       I    between atoms: N_4  and  C_8 
REMARK    2  A    between atoms: C_8  and  C_9 
REMARK    3  A    between atoms: C_9  and  C_20 
REMARK    4  A    between atoms: C_9  and  N_30 
REMARK    5  A    between atoms: C_10  and  C_11 
REMARK    6  A    between atoms: C_10  and  C_16 
REMARK    7  A    between atoms: C_11  and  C_21 
REMARK       I    between atoms: N_12  and  C_21 
REMARK    8  A    between atoms: C_20  and  C_25 
ROOT
HETATM    1  C           1     -21.085  -5.412  -6.552  0.00  0.00     0.278 C 
ENDROOT
BRANCH   1   2
HETATM    2  C           1     -21.616  -4.403  -7.540  0.00  0.00     0.249 C 
HETATM    3  O           1     -21.491  -3.222  -7.323  0.00  0.00    -0.271 OA
HETATM    4  N           1     -22.239  -4.827  -8.682  0.00  0.00    -0.344 N 
HETATM    5  H           1     -22.344  -5.817  -8.864  0.00  0.00     0.163 HD
BRANCH   4   6
HETATM    6  C           1     -22.750  -3.858  -9.632  0.00  0.00     0.194 C 
BRANCH   6   7
HETATM    7  C           1     -22.227  -4.187 -11.024  0.00  0.00     0.138 C 
BRANCH   7   8
HETATM    8  C           1     -20.738  -3.950 -11.073  0.00  0.00     0.217 C 
HETATM    9  N           1     -20.250  -2.756 -11.531  0.00  0.00    -0.370 N 
HETATM   10  H           1     -20.888  -2.032 -11.836  0.00  0.00     0.159 HD
HETATM   11  H           1     -19.251  -2.597 -11.564  0.00  0.00     0.159 HD
HETATM   12  O           1     -19.976  -4.814 -10.708  0.00  0.00    -0.274 OA
ENDBRANCH   7   8
ENDBRANCH   6   7
BRANCH   6  13
HETATM   13  C           1     -24.258  -3.906  -9.637  0.00  0.00     0.197 C 
HETATM   14  O           1     -24.848  -4.994  -9.807  0.00  0.00    -0.646 OA
HETATM   15  O           1     -24.917  -2.857  -9.471  0.00  0.00    -0.646 OA
ENDBRANCH   6  13
ENDBRANCH   4   6
ENDBRANCH   1   2
BRANCH   1  16
HETATM   16  C           1     -22.223  -5.905  -5.667  0.00  0.00     0.083 C 
BRANCH  16  17
HETATM   17  C           1     -21.740  -7.040  -4.817  0.00  0.00    -0.028 A 
HETATM   18  C           1     -21.789  -7.103  -3.398  0.00  0.00    -0.002 A 
HETATM   19  C           1     -21.238  -8.329  -3.022  0.00  0.00     0.042 A 
HETATM   20  C           1     -22.251  -6.231  -2.393  0.00  0.00     0.014 A 
HETATM   21  N           1     -20.872  -8.979  -4.179  0.00  0.00    -0.365 N 
HETATM   22  C           1     -21.125  -8.728  -1.685  0.00  0.00     0.030 A 
HETATM   23  C           1     -21.172  -8.208  -5.271  0.00  0.00     0.096 A 
HETATM   24  H           1     -20.427  -9.929  -4.218  0.00  0.00     0.165 HD
HETATM   25  C           1     -21.590  -7.845  -0.706  0.00  0.00     0.002 A 
HETATM   26  C           1     -22.145  -6.614  -1.051  0.00  0.00     0.001 A 
ENDBRANCH  16  17
ENDBRANCH   1  16
BRANCH   1  27
HETATM   27  N           1     -20.033  -4.770  -5.698  0.00  0.00    -0.066 N 
HETATM   28  H           1     -19.507  -4.066  -6.265  0.00  0.00     0.275 HD
HETATM   29  H           1     -20.486  -4.295  -4.886  0.00  0.00     0.275 HD
HETATM   30  H           1     -19.371  -5.500  -5.350  0.00  0.00     0.275 HD
ENDBRANCH   1  27
TORSDOF 8
ENDMDL
MODEL 2
REMARK VINA RESULT:      -7.9      1.311      2.539
REMARK  8 active torsions:
REMARK  status: ('A' for Active; 'I' for Inactive)
REMARK    1  A    between atoms: N_4  and  C_10 
REMARK       I    between atoms: N_4  and  C_8 
REMARK    2  A    between atoms: C_8  and  C_9 
REMARK    3  A    between atoms: C_9  and  C_20 
REMARK    4  A    between atoms: C_9  and  N_30 
REMARK    5  A    between atoms: C_10  and  C_11 
REMARK    6  A    between atoms: C_10  and  C_16 
REMARK    7  A    between atoms: C_11  and  C_21 
REMARK       I    between atoms: N_12  and  C_21 
REMARK    8  A    between atoms: C_20  and  C_25 
ROOT
HETATM    1  C           1     -20.297  -5.417  -6.878  0.00  0.00     0.278 C 
ENDROOT
BRANCH   1   2
HETATM    2  C           1     -21.355  -5.122  -7.913  0.00  0.00     0.249 C 
HETATM    3  O           1     -22.519  -5.319  -7.659  0.00  0.00    -0.271 OA
HETATM    4  N           1     -20.995  -4.631  -9.138  0.00  0.00    -0.344 N 
HETATM    5  H           1     -20.019  -4.466  -9.351  0.00  0.00     0.163 HD
BRANCH   4   6
HETATM    6  C           1     -22.010  -4.347 -10.133  0.00  0.00     0.194 C 
BRANCH   6   7
HETATM    7  C           1     -23.018  -3.359  -9.563  0.00  0.00     0.138 C 
BRANCH   7   8
HETATM    8  C           1     -24.404  -3.721 -10.037  0.00  0.00     0.217 C 
HETATM    9  N           1     -25.060  -4.787  -9.482  0.00  0.00    -0.370 N 
HETATM   10  H           1     -24.615  -5.332  -8.754  0.00  0.00     0.159 HD
HETATM   11  H           1     -25.990  -5.031  -9.799  0.00  0.00     0.159 HD
HETATM   12  O           1     -24.936  -3.071 -10.905  0.00  0.00    -0.274 OA
ENDBRANCH   7   8
ENDBRANCH   6   7
BRANCH   6  13
HETATM   13  C           1     -21.362  -3.753 -11.359  0.00  0.00     0.197 C 
HETATM   14  O           1     -21.899  -3.891 -12.479  0.00  0.00    -0.646 OA
HETATM   15  O           1     -20.288  -3.122 -11.254  0.00  0.00    -0.646 OA
ENDBRANCH   6  13
ENDBRANCH   4   6
ENDBRANCH   1   2
BRANCH   1  16
HETATM   16  C           1     -20.895  -5.270  -5.484  0.00  0.00     0.083 C 
BRANCH  16  17
HETATM   17  C           1     -20.822  -6.584  -4.768  0.00  0.00    -0.028 A 
HETATM   18  C           1     -21.287  -6.847  -3.451  0.00  0.00    -0.002 A 
HETATM   19  C           1     -21.024  -8.191  -3.182  0.00  0.00     0.042 A 
HETATM   20  C           1     -21.911  -6.067  -2.457  0.00  0.00     0.014 A 
HETATM   21  N           1     -20.420  -8.715  -4.303  0.00  0.00    -0.365 N 
HETATM   22  C           1     -21.353  -8.796  -1.964  0.00  0.00     0.030 A 
HETATM   23  C           1     -20.294  -7.752  -5.269  0.00  0.00     0.096 A 
HETATM   24  H           1     -20.103  -9.711  -4.403  0.00  0.00     0.165 HD
HETATM   25  C           1     -21.970  -8.002  -0.994  0.00  0.00     0.002 A 
HETATM   26  C           1     -22.246  -6.657  -1.233  0.00  0.00     0.001 A 
ENDBRANCH  16  17
ENDBRANCH   1  16
BRANCH   1  27
HETATM   27  N           1     -19.160  -4.452  -7.037  0.00  0.00    -0.066 N 
HETATM   28  H           1     -18.502  -4.808  -7.767  0.00  0.00     0.275 HD
HETATM   29  H           1     -19.531  -3.520  -7.326  0.00  0.00     0.275 HD
HETATM   30  H           1     -18.652  -4.358  -6.128  0.00  0.00     0.275 HD
ENDBRANCH   1  27
TORSDOF 8
ENDMDL
MODEL 3
REMARK VINA RESULT:      -7.5      3.423      7.922
REMARK  8 active torsions:
REMARK  status: ('A' for Active; 'I' for Inactive)
REMARK    1  A    between atoms: N_4  and  C_10 
REMARK       I    between atoms: N_4  and  C_8 
REMARK    2  A    between atoms: C_8  and  C_9 
REMARK    3  A    between atoms: C_9  and  C_20 
REMARK    4  A    between atoms: C_9  and  N_30 
REMARK    5  A    between atoms: C_10  and  C_11 
REMARK    6  A    between atoms: C_10  and  C_16 
REMARK    7  A    between atoms: C_11  and  C_21 
REMARK       I    between atoms: N_12  and  C_21 
REMARK    8  A    between atoms: C_20  and  C_25 
ROOT
HETATM    1  C           1     -21.442  -6.280  -5.482  0.00  0.00     0.278 C 
ENDROOT
BRANCH   1   2
HETATM    2  C           1     -20.359  -7.329  -5.542  0.00  0.00     0.249 C 
HETATM    3  O           1     -19.515  -7.276  -6.405  0.00  0.00    -0.271 OA
HETATM    4  N           1     -20.333  -8.340  -4.620  0.00  0.00    -0.344 N 
HETATM    5  H           1     -21.041  -8.384  -3.898  0.00  0.00     0.163 HD
BRANCH   4   6
HETATM    6  C           1     -19.293  -9.348  -4.678  0.00  0.00     0.194 C 
BRANCH   6   7
HETATM    7  C           1     -18.691  -9.538  -3.292  0.00  0.00     0.138 C 
BRANCH   7   8
HETATM    8  C           1     -19.740  -9.258  -2.244  0.00  0.00     0.217 C 
HETATM    9  N           1     -20.483 -10.286  -1.730  0.00  0.00    -0.370 N 
HETATM   10  H           1     -20.330 -11.233  -2.052  0.00  0.00     0.159 HD
HETATM   11  H           1     -21.188 -10.099  -1.026  0.00  0.00     0.159 HD
HETATM   12  O           1     -19.923  -8.128  -1.858  0.00  0.00    -0.274 OA
ENDBRANCH   7   8
ENDBRANCH   6   7
BRANCH   6  13
HETATM   13  C           1     -19.883 -10.653  -5.152  0.00  0.00     0.197 C 
HETATM   14  O           1     -19.756 -11.685  -4.458  0.00  0.00    -0.646 OA
HETATM   15  O           1     -20.500 -10.702  -6.238  0.00  0.00    -0.646 OA
ENDBRANCH   6  13
ENDBRANCH   4   6
ENDBRANCH   1   2
BRANCH   1  16
HETATM   16  C           1     -20.948  -5.001  -6.146  0.00  0.00     0.083 C 
BRANCH  16  17
HETATM   17  C           1     -21.870  -4.632  -7.268  0.00  0.00    -0.028 A 
HETATM   18  C           1     -21.506  -4.466  -8.632  0.00  0.00    -0.002 A 
HETATM   19  C           1     -22.666  -4.126  -9.329  0.00  0.00     0.042 A 
HETATM   20  C           1     -20.295  -4.573  -9.344  0.00  0.00     0.014 A 
HETATM   21  N           1     -23.692  -4.090  -8.411  0.00  0.00    -0.365 N 
HETATM   22  C           1     -22.676  -3.886 -10.707  0.00  0.00     0.030 A 
HETATM   23  C           1     -23.222  -4.395  -7.161  0.00  0.00     0.096 A 
HETATM   24  H           1     -24.691  -3.862  -8.638  0.00  0.00     0.165 HD
HETATM   25  C           1     -21.463  -3.998 -11.392  0.00  0.00     0.002 A 
HETATM   26  C           1     -20.288  -4.336 -10.722  0.00  0.00     0.001 A 
ENDBRANCH  16  17
ENDBRANCH   1  16
BRANCH   1  27
HETATM   27  N           1     -21.784  -5.997  -4.049  0.00  0.00    -0.066 N 
HETATM   28  H           1     -22.675  -6.485  -3.802  0.00  0.00     0.275 HD
HETATM   29  H           1     -21.015  -6.342  -3.433  0.00  0.00     0.275 HD
HETATM   30  H           1     -21.902  -4.967  -3.915  0.00  0.00     0.275 HD
ENDBRANCH   1  27
TORSDOF 8
ENDMDL
MODEL 4
REMARK VINA RESULT:      -7.3      3.694      7.720
REMARK  8 active torsions:
REMARK  status: ('A' for Active; 'I' for Inactive)
REMARK    1  A    between atoms: N_4  and  C_10 
REMARK       I    between atoms: N_4  and  C_8 
REMARK    2  A    between atoms: C_8  and  C_9 
REMARK    3  A    between atoms: C_9  and  C_20 
REMARK    4  A    between atoms: C_9  and  N_30 
REMARK    5  A    between atoms: C_10  and  C_11 
REMARK    6  A    between atoms: C_10  and  C_16 
REMARK    7  A    between atoms: C_11  and  C_21 
REMARK       I    between atoms: N_12  and  C_21 
REMARK    8  A    between atoms: C_20  and  C_25 
ROOT
HETATM    1  C           1     -21.489  -6.331  -5.236  0.00  0.00     0.278 C 
ENDROOT
BRANCH   1   2
HETATM    2  C           1     -20.978  -7.750  -5.246  0.00  0.00     0.249 C 
HETATM    3  O           1     -21.296  -8.500  -6.138  0.00  0.00    -0.271 OA
HETATM    4  N           1     -20.155  -8.189  -4.244  0.00  0.00    -0.344 N 
HETATM    5  H           1     -19.889  -7.560  -3.496  0.00  0.00     0.163 HD
BRANCH   4   6
HETATM    6  C           1     -19.664  -9.553  -4.253  0.00  0.00     0.194 C 
BRANCH   6   7
HETATM    7  C           1     -18.150  -9.549  -4.091  0.00  0.00     0.138 C 
BRANCH   7   8
HETATM    8  C           1     -17.498  -9.703  -5.443  0.00  0.00     0.217 C 
HETATM    9  N           1     -16.179 -10.060  -5.528  0.00  0.00    -0.370 N 
HETATM   10  H           1     -15.642 -10.221  -4.686  0.00  0.00     0.159 HD
HETATM   11  H           1     -15.740 -10.163  -6.435  0.00  0.00     0.159 HD
HETATM   12  O           1     -18.138  -9.512  -6.449  0.00  0.00    -0.274 OA
ENDBRANCH   7   8
ENDBRANCH   6   7
BRANCH   6  13
HETATM   13  C           1     -20.290 -10.320  -3.114  0.00  0.00     0.197 C 
HETATM   14  O           1     -19.577 -11.033  -2.376  0.00  0.00    -0.646 OA
HETATM   15  O           1     -21.520 -10.241  -2.909  0.00  0.00    -0.646 OA
ENDBRANCH   6  13
ENDBRANCH   4   6
ENDBRANCH   1   2
BRANCH   1  16
HETATM   16  C           1     -20.736  -5.512  -6.277  0.00  0.00     0.083 C 
BRANCH  16  17
HETATM   17  C           1     -21.711  -4.910  -7.241  0.00  0.00    -0.028 A 
HETATM   18  C           1     -21.443  -4.548  -8.589  0.00  0.00    -0.002 A 
HETATM   19  C           1     -22.624  -4.028  -9.119  0.00  0.00     0.042 A 
HETATM   20  C           1     -20.303  -4.615  -9.414  0.00  0.00     0.014 A 
HETATM   21  N           1     -23.570  -4.076  -8.119  0.00  0.00    -0.365 N 
HETATM   22  C           1     -22.724  -3.568 -10.437  0.00  0.00     0.030 A 
HETATM   23  C           1     -23.029  -4.609  -6.979  0.00  0.00     0.096 A 
HETATM   24  H           1     -24.564  -3.753  -8.217  0.00  0.00     0.165 HD
HETATM   25  C           1     -21.579  -3.643 -11.235  0.00  0.00     0.002 A 
HETATM   26  C           1     -20.385  -4.158 -10.734  0.00  0.00     0.001 A 
ENDBRANCH  16  17
ENDBRANCH   1  16
BRANCH   1  27
HETATM   27  N           1     -21.271  -5.731  -3.878  0.00  0.00    -0.066 N 
HETATM   28  H           1     -21.822  -6.267  -3.169  0.00  0.00     0.275 HD
HETATM   29  H           1     -20.256  -5.775  -3.637  0.00  0.00     0.275 HD
HETATM   30  H           1     -21.585  -4.734  -3.882  0.00  0.00     0.275 HD
ENDBRANCH   1  27
TORSDOF 8
ENDMDL
MODEL 5
REMARK VINA RESULT:      -7.2      3.559      8.036
REMARK  8 active torsions:
REMARK  status: ('A' for Active; 'I' for Inactive)
REMARK    1  A    between atoms: N_4  and  C_10 
REMARK       I    between atoms: N_4  and  C_8 
REMARK    2  A    between atoms: C_8  and  C_9 
REMARK    3  A    between atoms: C_9  and  C_20 
REMARK    4  A    between atoms: C_9  and  N_30 
REMARK    5  A    between atoms: C_10  and  C_11 
REMARK    6  A    between atoms: C_10  and  C_16 
REMARK    7  A    between atoms: C_11  and  C_21 
REMARK       I    between atoms: N_12  and  C_21 
REMARK    8  A    between atoms: C_20  and  C_25 
ROOT
HETATM    1  C           1     -21.696  -6.412  -5.541  0.00  0.00     0.278 C 
ENDROOT
BRANCH   1   2
HETATM    2  C           1     -20.877  -7.292  -4.629  0.00  0.00     0.249 C 
HETATM    3  O           1     -19.792  -7.686  -4.984  0.00  0.00    -0.271 OA
HETATM    4  N           1     -21.364  -7.643  -3.399  0.00  0.00    -0.344 N 
HETATM    5  H           1     -22.274  -7.313  -3.101  0.00  0.00     0.163 HD
BRANCH   4   6
HETATM    6  C           1     -20.578  -8.488  -2.522  0.00  0.00     0.194 C 
BRANCH   6   7
HETATM    7  C           1     -20.699  -7.986  -1.089  0.00  0.00     0.138 C 
BRANCH   7   8
HETATM    8  C           1     -22.141  -7.661  -0.788  0.00  0.00     0.217 C 
HETATM    9  N           1     -22.928  -8.578  -0.145  0.00  0.00    -0.370 N 
HETATM   10  H           1     -22.543  -9.473   0.129  0.00  0.00     0.159 HD
HETATM   11  H           1     -23.897  -8.361   0.057  0.00  0.00     0.159 HD
HETATM   12  O           1     -22.602  -6.593  -1.114  0.00  0.00    -0.274 OA
ENDBRANCH   7   8
ENDBRANCH   6   7
BRANCH   6  13
HETATM   13  C           1     -21.086  -9.906  -2.601  0.00  0.00     0.197 C 
HETATM   14  O           1     -20.325 -10.859  -2.326  0.00  0.00    -0.646 OA
HETATM   15  O           1     -22.268 -10.128  -2.942  0.00  0.00    -0.646 OA
ENDBRANCH   6  13
ENDBRANCH   4   6
ENDBRANCH   1   2
BRANCH   1  16
HETATM   16  C           1     -20.988  -5.077  -5.730  0.00  0.00     0.083 C 
BRANCH  16  17
HETATM   17  C           1     -20.801  -4.813  -7.193  0.00  0.00    -0.028 A 
HETATM   18  C           1     -21.816  -4.425  -8.110  0.00  0.00    -0.002 A 
HETATM   19  C           1     -21.210  -4.286  -9.359  0.00  0.00     0.042 A 
HETATM   20  C           1     -23.198  -4.178  -7.997  0.00  0.00     0.014 A 
HETATM   21  N           1     -19.875  -4.581  -9.195  0.00  0.00    -0.365 N 
HETATM   22  C           1     -21.919  -3.912 -10.506  0.00  0.00     0.030 A 
HETATM   23  C           1     -19.616  -4.900  -7.888  0.00  0.00     0.096 A 
HETATM   24  H           1     -19.158  -4.563  -9.962  0.00  0.00     0.165 HD
HETATM   25  C           1     -23.290  -3.673 -10.369  0.00  0.00     0.002 A 
HETATM   26  C           1     -23.923  -3.803  -9.134  0.00  0.00     0.001 A 
ENDBRANCH  16  17
ENDBRANCH   1  16
BRANCH   1  27
HETATM   27  N           1     -23.046  -6.178  -4.930  0.00  0.00    -0.066 N 
HETATM   28  H           1     -22.949  -5.536  -4.110  0.00  0.00     0.275 HD
HETATM   29  H           1     -23.679  -5.745  -5.639  0.00  0.00     0.275 HD
HETATM   30  H           1     -23.449  -7.089  -4.613  0.00  0.00     0.275 HD
ENDBRANCH   1  27
TORSDOF 8
ENDMDL
MODEL 6
REMARK VINA RESULT:      -7.2      3.365      8.170
REMARK  8 active torsions:
REMARK  status: ('A' for Active; 'I' for Inactive)
REMARK    1  A    between atoms: N_4  and  C_10 
REMARK       I    between atoms: N_4  and  C_8 
REMARK    2  A    between atoms: C_8  and  C_9 
REMARK    3  A    between atoms: C_9  and  C_20 
REMARK    4  A    between atoms: C_9  and  N_30 
REMARK    5  A    between atoms: C_10  and  C_11 
REMARK    6  A    between atoms: C_10  and  C_16 
REMARK    7  A    between atoms: C_11  and  C_21 
REMARK       I    between atoms: N_12  and  C_21 
REMARK    8  A    between atoms: C_20  and  C_25 
ROOT
HETATM    1  C           1     -21.058  -5.797  -5.345  0.00  0.00     0.278 C 
ENDROOT
BRANCH   1   2
HETATM    2  C           1     -20.611  -6.991  -4.538  0.00  0.00     0.249 C 
HETATM    3  O           1     -19.749  -7.721  -4.966  0.00  0.00    -0.271 OA
HETATM    4  N           1     -21.183  -7.248  -3.322  0.00  0.00    -0.344 N 
HETATM    5  H           1     -21.906  -6.637  -2.964  0.00  0.00     0.163 HD
BRANCH   4   6
HETATM    6  C           1     -20.754  -8.395  -2.546  0.00  0.00     0.194 C 
BRANCH   6   7
HETATM    7  C           1     -20.798  -8.052  -1.064  0.00  0.00     0.138 C 
BRANCH   7   8
HETATM    8  C           1     -22.173  -7.545  -0.704  0.00  0.00     0.217 C 
HETATM    9  N           1     -23.014  -8.324   0.045  0.00  0.00    -0.370 N 
HETATM   10  H           1     -22.714  -9.238   0.358  0.00  0.00     0.159 HD
HETATM   11  H           1     -23.937  -7.984   0.287  0.00  0.00     0.159 HD
HETATM   12  O           1     -22.533  -6.454  -1.076  0.00  0.00    -0.274 OA
ENDBRANCH   7   8
ENDBRANCH   6   7
BRANCH   6  13
HETATM   13  C           1     -21.673  -9.559  -2.820  0.00  0.00     0.197 C 
HETATM   14  O           1     -21.835 -10.445  -1.953  0.00  0.00    -0.646 OA
HETATM   15  O           1     -22.274  -9.638  -3.914  0.00  0.00    -0.646 OA
ENDBRANCH   6  13
ENDBRANCH   4   6
ENDBRANCH   1   2
BRANCH   1  16
HETATM   16  C           1     -20.901  -6.100  -6.830  0.00  0.00     0.083 C 
BRANCH  16  17
HETATM   17  C           1     -21.783  -5.185  -7.623  0.00  0.00    -0.028 A 
HETATM   18  C           1     -21.493  -4.646  -8.906  0.00  0.00    -0.002 A 
HETATM   19  C           1     -22.580  -3.850  -9.273  0.00  0.00     0.042 A 
HETATM   20  C           1     -20.407  -4.760  -9.795  0.00  0.00     0.014 A 
HETATM   21  N           1     -23.490  -3.911  -8.242  0.00  0.00    -0.365 N 
HETATM   22  C           1     -22.634  -3.160 -10.489  0.00  0.00     0.030 A 
HETATM   23  C           1     -23.019  -4.716  -7.239  0.00  0.00     0.096 A 
HETATM   24  H           1     -24.414  -3.412  -8.228  0.00  0.00     0.165 HD
HETATM   25  C           1     -21.543  -3.288 -11.354  0.00  0.00     0.002 A 
HETATM   26  C           1     -20.445  -4.076 -11.015  0.00  0.00     0.001 A 
ENDBRANCH  16  17
ENDBRANCH   1  16
BRANCH   1  27
HETATM   27  N           1     -20.217  -4.609  -4.987  0.00  0.00    -0.066 N 
HETATM   28  H           1     -20.808  -3.746  -5.007  0.00  0.00     0.275 HD
HETATM   29  H           1     -19.821  -4.738  -4.029  0.00  0.00     0.275 HD
HETATM   30  H           1     -19.437  -4.512  -5.676  0.00  0.00     0.275 HD
ENDBRANCH   1  27
TORSDOF 8
ENDMDL
MODEL 7
REMARK VINA RESULT:      -7.1      3.150      7.700
REMARK  8 active torsions:
REMARK  status: ('A' for Active; 'I' for Inactive)
REMARK    1  A    between atoms: N_4  and  C_10 
REMARK       I    between atoms: N_4  and  C_8 
REMARK    2  A    between atoms: C_8  and  C_9 
REMARK    3  A    between atoms: C_9  and  C_20 
REMARK    4  A    between atoms: C_9  and  N_30 
REMARK    5  A    between atoms: C_10  and  C_11 
REMARK    6  A    between atoms: C_10  and  C_16 
REMARK    7  A    between atoms: C_11  and  C_21 
REMARK       I    between atoms: N_12  and  C_21 
REMARK    8  A    between atoms: C_20  and  C_25 
ROOT
HETATM    1  C           1     -20.058  -5.823  -6.085  0.00  0.00     0.278 C 
ENDROOT
BRANCH   1   2
HETATM    2  C           1     -20.923  -6.656  -5.172  0.00  0.00     0.249 C 
HETATM    3  O           1     -21.661  -7.492  -5.635  0.00  0.00    -0.271 OA
HETATM    4  N           1     -20.872  -6.463  -3.818  0.00  0.00    -0.344 N 
HETATM    5  H           1     -20.254  -5.761  -3.430  0.00  0.00     0.163 HD
BRANCH   4   6
HETATM    6  C           1     -21.704  -7.262  -2.939  0.00  0.00     0.194 C 
BRANCH   6   7
HETATM    7  C           1     -20.895  -8.435  -2.402  0.00  0.00     0.138 C 
BRANCH   7   8
HETATM    8  C           1     -21.616  -9.725  -2.701  0.00  0.00     0.217 C 
HETATM    9  N           1     -21.843 -10.096  -3.999  0.00  0.00    -0.370 N 
HETATM   10  H           1     -21.527  -9.506  -4.758  0.00  0.00     0.159 HD
HETATM   11  H           1     -22.327 -10.963  -4.201  0.00  0.00     0.159 HD
HETATM   12  O           1     -21.993 -10.432  -1.797  0.00  0.00    -0.274 OA
ENDBRANCH   7   8
ENDBRANCH   6   7
BRANCH   6  13
HETATM   13  C           1     -22.182  -6.412  -1.788  0.00  0.00     0.197 C 
HETATM   14  O           1     -22.800  -6.938  -0.837  0.00  0.00    -0.646 OA
HETATM   15  O           1     -21.959  -5.182  -1.785  0.00  0.00    -0.646 OA
ENDBRANCH   6  13
ENDBRANCH   4   6
ENDBRANCH   1   2
BRANCH   1  16
HETATM   16  C           1     -20.628  -4.414  -6.179  0.00  0.00     0.083 C 
BRANCH  16  17
HETATM   17  C           1     -21.680  -4.370  -7.245  0.00  0.00    -0.028 A 
HETATM   18  C           1     -21.457  -4.172  -8.635  0.00  0.00    -0.002 A 
HETATM   19  C           1     -22.704  -4.203  -9.260  0.00  0.00     0.042 A 
HETATM   20  C           1     -20.308  -3.971  -9.425  0.00  0.00     0.014 A 
HETATM   21  N           1     -23.644  -4.411  -8.275  0.00  0.00    -0.365 N 
HETATM   22  C           1     -22.861  -4.040 -10.641  0.00  0.00     0.030 A 
HETATM   23  C           1     -23.035  -4.514  -7.052  0.00  0.00     0.096 A 
HETATM   24  H           1     -24.678  -4.482  -8.439  0.00  0.00     0.165 HD
HETATM   25  C           1     -21.707  -3.841 -11.404  0.00  0.00     0.002 A 
HETATM   26  C           1     -20.448  -3.806 -10.807  0.00  0.00     0.001 A 
ENDBRANCH  16  17
ENDBRANCH   1  16
BRANCH   1  27
HETATM   27  N           1     -20.033  -6.443  -7.451  0.00  0.00    -0.066 N 
HETATM   28  H           1     -20.723  -7.227  -7.489  0.00  0.00     0.275 HD
HETATM   29  H           1     -20.283  -5.723  -8.165  0.00  0.00     0.275 HD
HETATM   30  H           1     -19.075  -6.812  -7.650  0.00  0.00     0.275 HD
ENDBRANCH   1  27
TORSDOF 8
ENDMDL
MODEL 8
REMARK VINA RESULT:      -7.1      3.100      7.618
REMARK  8 active torsions:
REMARK  status: ('A' for Active; 'I' for Inactive)
REMARK    1  A    between atoms: N_4  and  C_10 
REMARK       I    between atoms: N_4  and  C_8 
REMARK    2  A    between atoms: C_8  and  C_9 
REMARK    3  A    between atoms: C_9  and  C_20 
REMARK    4  A    between atoms: C_9  and  N_30 
REMARK    5  A    between atoms: C_10  and  C_11 
REMARK    6  A    between atoms: C_10  and  C_16 
REMARK    7  A    between atoms: C_11  and  C_21 
REMARK       I    between atoms: N_12  and  C_21 
REMARK    8  A    between atoms: C_20  and  C_25 
ROOT
HETATM    1  C           1     -20.149  -5.739  -6.026  0.00  0.00     0.278 C 
ENDROOT
BRANCH   1   2
HETATM    2  C           1     -20.862  -6.377  -4.860  0.00  0.00     0.249 C 
HETATM    3  O           1     -21.615  -5.722  -4.180  0.00  0.00    -0.271 OA
HETATM    4  N           1     -20.655  -7.699  -4.572  0.00  0.00    -0.344 N 
HETATM    5  H           1     -20.023  -8.248  -5.141  0.00  0.00     0.163 HD
BRANCH   4   6
HETATM    6  C           1     -21.339  -8.313  -3.451  0.00  0.00     0.194 C 
BRANCH   6   7
HETATM    7  C           1     -21.762  -9.727  -3.827  0.00  0.00     0.138 C 
BRANCH   7   8
HETATM    8  C           1     -20.866 -10.248  -4.923  0.00  0.00     0.217 C 
HETATM    9  N           1     -19.757 -10.986  -4.607  0.00  0.00    -0.370 N 
HETATM   10  H           1     -19.539 -11.184  -3.639  0.00  0.00     0.159 HD
HETATM   11  H           1     -19.155 -11.336  -5.343  0.00  0.00     0.159 HD
HETATM   12  O           1     -21.125 -10.013  -6.079  0.00  0.00    -0.274 OA
ENDBRANCH   7   8
ENDBRANCH   6   7
BRANCH   6  13
HETATM   13  C           1     -20.412  -8.365  -2.263  0.00  0.00     0.197 C 
HETATM   14  O           1     -19.274  -8.868  -2.379  0.00  0.00    -0.646 OA
HETATM   15  O           1     -20.782  -7.904  -1.160  0.00  0.00    -0.646 OA
ENDBRANCH   6  13
ENDBRANCH   4   6
ENDBRANCH   1   2
BRANCH   1  16
HETATM   16  C           1     -20.680  -4.326  -6.235  0.00  0.00     0.083 C 
BRANCH  16  17
HETATM   17  C           1     -21.711  -4.335  -7.321  0.00  0.00    -0.028 A 
HETATM   18  C           1     -21.461  -4.207  -8.715  0.00  0.00    -0.002 A 
HETATM   19  C           1     -22.696  -4.269  -9.362  0.00  0.00     0.042 A 
HETATM   20  C           1     -20.297  -4.044  -9.491  0.00  0.00     0.014 A 
HETATM   21  N           1     -23.655  -4.428  -8.386  0.00  0.00    -0.365 N 
HETATM   22  C           1     -22.826  -4.175 -10.752  0.00  0.00     0.030 A 
HETATM   23  C           1     -23.070  -4.471  -7.148  0.00  0.00     0.096 A 
HETATM   24  H           1     -24.686  -4.508  -8.566  0.00  0.00     0.165 HD
HETATM   25  C           1     -21.657  -4.013 -11.501  0.00  0.00     0.002 A 
HETATM   26  C           1     -20.410  -3.948 -10.882  0.00  0.00     0.001 A 
ENDBRANCH  16  17
ENDBRANCH   1  16
BRANCH   1  27
HETATM   27  N           1     -20.390  -6.550  -7.264  0.00  0.00    -0.066 N 
HETATM   28  H           1     -20.732  -5.924  -8.028  0.00  0.00     0.275 HD
HETATM   29  H           1     -19.499  -7.007  -7.561  0.00  0.00     0.275 HD
HETATM   30  H           1     -21.109  -7.283  -7.067  0.00  0.00     0.275 HD
ENDBRANCH   1  27
TORSDOF 8
ENDMDL
MODEL 9
REMARK VINA RESULT:      -6.9      2.907      7.493
REMARK  8 active torsions:
REMARK  status: ('A' for Active; 'I' for Inactive)
REMARK    1  A    between atoms: N_4  and  C_10 
REMARK       I    between atoms: N_4  and  C_8 
REMARK    2  A    between atoms: C_8  and  C_9 
REMARK    3  A    between atoms: C_9  and  C_20 
REMARK    4  A    between atoms: C_9  and  N_30 
REMARK    5  A    between atoms: C_10  and  C_11 
REMARK    6  A    between atoms: C_10  and  C_16 
REMARK    7  A    between atoms: C_11  and  C_21 
REMARK       I    between atoms: N_12  and  C_21 
REMARK    8  A    between atoms: C_20  and  C_25 
ROOT
HETATM    1  C           1     -20.288  -5.351  -6.081  0.00  0.00     0.278 C 
ENDROOT
BRANCH   1   2
HETATM    2  C           1     -21.291  -6.060  -5.206  0.00  0.00     0.249 C 
HETATM    3  O           1     -22.474  -5.883  -5.377  0.00  0.00    -0.271 OA
HETATM    4  N           1     -20.862  -6.905  -4.218  0.00  0.00    -0.344 N 
HETATM    5  H           1     -19.871  -7.052  -4.075  0.00  0.00     0.163 HD
BRANCH   4   6
HETATM    6  C           1     -21.825  -7.587  -3.377  0.00  0.00     0.194 C 
BRANCH   6   7
HETATM    7  C           1     -21.422  -9.047  -3.222  0.00  0.00     0.138 C 
BRANCH   7   8
HETATM    8  C           1     -19.965  -9.208  -3.580  0.00  0.00     0.217 C 
HETATM    9  N           1     -19.011  -9.168  -2.598  0.00  0.00    -0.370 N 
HETATM   10  H           1     -19.283  -9.030  -1.634  0.00  0.00     0.159 HD
HETATM   11  H           1     -18.033  -9.276  -2.838  0.00  0.00     0.159 HD
HETATM   12  O           1     -19.639  -9.373  -4.731  0.00  0.00    -0.274 OA
ENDBRANCH   7   8
ENDBRANCH   6   7
BRANCH   6  13
HETATM   13  C           1     -21.862  -6.929  -2.020  0.00  0.00     0.197 C 
HETATM   14  O           1     -21.315  -7.483  -1.042  0.00  0.00    -0.646 OA
HETATM   15  O           1     -22.440  -5.830  -1.873  0.00  0.00    -0.646 OA
ENDBRANCH   6  13
ENDBRANCH   4   6
ENDBRANCH   1   2
BRANCH   1  16
HETATM   16  C           1     -20.916  -4.085  -6.650  0.00  0.00     0.083 C 
BRANCH  16  17
HETATM   17  C           1     -20.919  -4.158  -8.146  0.00  0.00    -0.028 A 
HETATM   18  C           1     -22.066  -4.294  -8.976  0.00  0.00    -0.002 A 
HETATM   19  C           1     -21.617  -4.320 -10.297  0.00  0.00     0.042 A 
HETATM   20  C           1     -23.449  -4.397  -8.729  0.00  0.00     0.014 A 
HETATM   21  N           1     -20.245  -4.203 -10.259  0.00  0.00    -0.365 N 
HETATM   22  C           1     -22.485  -4.445 -11.388  0.00  0.00     0.030 A 
HETATM   23  C           1     -19.813  -4.104  -8.963  0.00  0.00     0.096 A 
HETATM   24  H           1     -19.621  -4.191 -11.103  0.00  0.00     0.165 HD
HETATM   25  C           1     -23.852  -4.547 -11.117  0.00  0.00     0.002 A 
HETATM   26  C           1     -24.330  -4.524  -9.808  0.00  0.00     0.001 A 
ENDBRANCH  16  17
ENDBRANCH   1  16
BRANCH   1  27
HETATM   27  N           1     -19.879  -6.254  -7.206  0.00  0.00    -0.066 N 
HETATM   28  H           1     -19.783  -5.693  -8.084  0.00  0.00     0.275 HD
HETATM   29  H           1     -18.965  -6.703  -6.978  0.00  0.00     0.275 HD
HETATM   30  H           1     -20.606  -6.992  -7.344  0.00  0.00     0.275 HD
ENDBRANCH   1  27
TORSDOF 8
ENDMDL
