MODEL 1
REMARK VINA RESULT:      -5.3      0.000      0.000
REMARK  8 active torsions:
REMARK  status: ('A' for Active; 'I' for Inactive)
REMARK    1  A    between atoms: O_4  and  C_5 
REMARK    2  A    between atoms: C_5  and  C_6 
REMARK    3  A    between atoms: C_6  and  C_12 
REMARK    4  A    between atoms: C_6  and  N_10 
REMARK    5  A    between atoms: C_9  and  C_19 
REMARK    6  A    between atoms: N_11  and  C_19 
REMARK       I    between atoms: N_11  and  C_12 
REMARK    7  A    between atoms: S_15  and  C_16 
REMARK    8  A    between atoms: C_16  and  C_19 
ROOT
HETATM    1  O           1     -26.012  -6.193 -17.796  0.00  0.00    -0.271 OA
HETATM    2  N           1     -27.718  -6.670 -19.156  0.00  0.00    -0.344 N 
HETATM    3  C           1     -26.381  -6.574 -18.881  0.00  0.00     0.251 C 
HETATM    4  H           1     -28.026  -6.990 -20.064  0.00  0.00     0.163 HD
ENDROOT
BRANCH   3   5
HETATM    5  C           1     -25.366  -6.946 -19.934  0.00  0.00     0.297 C 
BRANCH   5   6
HETATM    6  C           1     -26.008  -7.878 -20.954  0.00  0.00     0.206 C 
BRANCH   6   7
HETATM    7  O           1     -25.007  -8.542 -21.676  0.00  0.00    -0.398 OA
HETATM    8  H           1     -24.999  -8.169 -22.540  0.00  0.00     0.209 HD
ENDBRANCH   6   7
ENDBRANCH   5   6
BRANCH   5   9
HETATM    9  N           1     -24.205  -7.641 -19.286  0.00  0.00    -0.064 N 
HETATM   10  H           1     -23.312  -7.202 -19.607  0.00  0.00     0.275 HD
HETATM   11  H           1     -24.283  -7.552 -18.247  0.00  0.00     0.275 HD
HETATM   12  H           1     -24.212  -8.651 -19.551  0.00  0.00     0.275 HD
ENDBRANCH   5   9
ENDBRANCH   3   5
BRANCH   2  13
HETATM   13  C           1     -28.693  -6.312 -18.143  0.00  0.00     0.194 C 
BRANCH  13  14
HETATM   14  C           1     -29.822  -7.313 -18.157  0.00  0.00     0.197 C 
HETATM   15  O           1     -30.828  -7.131 -17.437  0.00  0.00    -0.646 OA
HETATM   16  O           1     -29.752  -8.325 -18.888  0.00  0.00    -0.646 OA
ENDBRANCH  13  14
BRANCH  13  17
HETATM   17  C           1     -29.242  -4.922 -18.437  0.00  0.00     0.106 C 
BRANCH  17  18
HETATM   18  S           1     -28.721  -3.775 -17.131  0.00  0.00    -0.180 SA
HETATM   19  H           1     -29.674  -4.125 -16.249  0.00  0.00     0.101 HD
ENDBRANCH  17  18
ENDBRANCH  13  17
ENDBRANCH   2  13
TORSDOF 8
ENDMDL
MODEL 2
REMARK VINA RESULT:      -5.1      2.053      2.219
REMARK  8 active torsions:
REMARK  status: ('A' for Active; 'I' for Inactive)
REMARK    1  A    between atoms: O_4  and  C_5 
REMARK    2  A    between atoms: C_5  and  C_6 
REMARK    3  A    between atoms: C_6  and  C_12 
REMARK    4  A    between atoms: C_6  and  N_10 
REMARK    5  A    between atoms: C_9  and  C_19 
REMARK    6  A    between atoms: N_11  and  C_19 
REMARK       I    between atoms: N_11  and  C_12 
REMARK    7  A    between atoms: S_15  and  C_16 
REMARK    8  A    between atoms: C_16  and  C_19 
ROOT
HETATM    1  O           1     -26.254  -7.449 -15.280  0.00  0.00    -0.271 OA
HETATM    2  N           1     -27.231  -6.486 -17.042  0.00  0.00    -0.344 N 
HETATM    3  C           1     -26.132  -6.956 -16.376  0.00  0.00     0.251 C 
HETATM    4  H           1     -27.129  -6.075 -17.960  0.00  0.00     0.163 HD
ENDROOT
BRANCH   3   5
HETATM    5  C           1     -24.766  -6.860 -17.012  0.00  0.00     0.297 C 
BRANCH   5   6
HETATM    6  C           1     -24.912  -6.814 -18.527  0.00  0.00     0.206 C 
BRANCH   6   7
HETATM    7  O           1     -24.097  -7.796 -19.106  0.00  0.00    -0.398 OA
HETATM    8  H           1     -24.659  -8.351 -19.619  0.00  0.00     0.209 HD
ENDBRANCH   6   7
ENDBRANCH   5   6
BRANCH   5   9
HETATM    9  N           1     -23.950  -8.058 -16.626  0.00  0.00    -0.064 N 
HETATM   10  H           1     -23.025  -8.021 -17.110  0.00  0.00     0.275 HD
HETATM   11  H           1     -23.802  -8.059 -15.591  0.00  0.00     0.275 HD
HETATM   12  H           1     -24.455  -8.929 -16.906  0.00  0.00     0.275 HD
ENDBRANCH   5   9
ENDBRANCH   3   5
BRANCH   2  13
HETATM   13  C           1     -28.543  -6.579 -16.431  0.00  0.00     0.194 C 
BRANCH  13  14
HETATM   14  C           1     -29.562  -6.947 -17.481  0.00  0.00     0.197 C 
HETATM   15  O           1     -30.781  -6.916 -17.207  0.00  0.00    -0.646 OA
HETATM   16  O           1     -29.187  -7.282 -18.625  0.00  0.00    -0.646 OA
ENDBRANCH  13  14
BRANCH  13  17
HETATM   17  C           1     -28.911  -5.235 -15.814  0.00  0.00     0.106 C 
BRANCH  17  18
HETATM   18  S           1     -28.538  -3.905 -16.992  0.00  0.00    -0.180 SA
HETATM   19  H           1     -29.722  -3.947 -17.628  0.00  0.00     0.101 HD
ENDBRANCH  17  18
ENDBRANCH  13  17
ENDBRANCH   2  13
TORSDOF 8
ENDMDL
MODEL 3
REMARK VINA RESULT:      -5.0     11.191     12.323
REMARK  8 active torsions:
REMARK  status: ('A' for Active; 'I' for Inactive)
REMARK    1  A    between atoms: O_4  and  C_5 
REMARK    2  A    between atoms: C_5  and  C_6 
REMARK    3  A    between atoms: C_6  and  C_12 
REMARK    4  A    between atoms: C_6  and  N_10 
REMARK    5  A    between atoms: C_9  and  C_19 
REMARK    6  A    between atoms: N_11  and  C_19 
REMARK       I    between atoms: N_11  and  C_12 
REMARK    7  A    between atoms: S_15  and  C_16 
REMARK    8  A    between atoms: C_16  and  C_19 
ROOT
HETATM    1  O           1     -21.809  -3.691  -7.156  0.00  0.00    -0.271 OA
HETATM    2  N           1     -22.260  -4.818  -9.031  0.00  0.00    -0.344 N 
HETATM    3  C           1     -21.799  -4.747  -7.744  0.00  0.00     0.251 C 
HETATM    4  H           1     -22.252  -5.702  -9.522  0.00  0.00     0.163 HD
ENDROOT
BRANCH   3   5
HETATM    5  C           1     -21.278  -5.986  -7.059  0.00  0.00     0.297 C 
BRANCH   5   6
HETATM    6  C           1     -21.473  -5.857  -5.554  0.00  0.00     0.206 C 
BRANCH   6   7
HETATM    7  O           1     -22.838  -5.949  -5.250  0.00  0.00    -0.398 OA
HETATM    8  H           1     -23.297  -6.017  -6.069  0.00  0.00     0.209 HD
ENDBRANCH   6   7
ENDBRANCH   5   6
BRANCH   5   9
HETATM    9  N           1     -19.817  -6.147  -7.361  0.00  0.00    -0.064 N 
HETATM   10  H           1     -19.293  -6.310  -6.472  0.00  0.00     0.275 HD
HETATM   11  H           1     -19.682  -6.964  -7.999  0.00  0.00     0.275 HD
HETATM   12  H           1     -19.460  -5.282  -7.824  0.00  0.00     0.275 HD
ENDBRANCH   5   9
ENDBRANCH   3   5
BRANCH   2  13
HETATM   13  C           1     -22.760  -3.626  -9.688  0.00  0.00     0.194 C 
BRANCH  13  14
HETATM   14  C           1     -24.186  -3.855 -10.127  0.00  0.00     0.197 C 
HETATM   15  O           1     -24.775  -4.912  -9.815  0.00  0.00    -0.646 OA
HETATM   16  O           1     -24.778  -2.986 -10.803  0.00  0.00    -0.646 OA
ENDBRANCH  13  14
BRANCH  13  17
HETATM   17  C           1     -21.897  -3.318 -10.905  0.00  0.00     0.106 C 
BRANCH  17  18
HETATM   18  S           1     -20.390  -4.327 -10.850  0.00  0.00    -0.180 SA
HETATM   19  H           1     -19.555  -3.354 -11.254  0.00  0.00     0.101 HD
ENDBRANCH  17  18
ENDBRANCH  13  17
ENDBRANCH   2  13
TORSDOF 8
ENDMDL
MODEL 4
REMARK VINA RESULT:      -4.4     18.984     20.601
REMARK  8 active torsions:
REMARK  status: ('A' for Active; 'I' for Inactive)
REMARK    1  A    between atoms: O_4  and  C_5 
REMARK    2  A    between atoms: C_5  and  C_6 
REMARK    3  A    between atoms: C_6  and  C_12 
REMARK    4  A    between atoms: C_6  and  N_10 
REMARK    5  A    between atoms: C_9  and  C_19 
REMARK    6  A    between atoms: N_11  and  C_19 
REMARK       I    between atoms: N_11  and  C_12 
REMARK    7  A    between atoms: S_15  and  C_16 
REMARK    8  A    between atoms: C_16  and  C_19 
ROOT
HETATM    1  O           1     -12.411   6.967 -19.420  0.00  0.00    -0.271 OA
HETATM    2  N           1     -11.537   5.856 -21.148  0.00  0.00    -0.344 N 
HETATM    3  C           1     -11.555   6.905 -20.269  0.00  0.00     0.251 C 
HETATM    4  H           1     -10.819   5.803 -21.859  0.00  0.00     0.163 HD
ENDROOT
BRANCH   3   5
HETATM    5  C           1     -10.503   7.983 -20.360  0.00  0.00     0.297 C 
BRANCH   5   6
HETATM    6  C           1      -9.201   7.383 -20.873  0.00  0.00     0.206 C 
BRANCH   6   7
HETATM    7  O           1      -8.910   6.213 -20.156  0.00  0.00    -0.398 OA
HETATM    8  H           1      -9.505   6.185 -19.427  0.00  0.00     0.209 HD
ENDBRANCH   6   7
ENDBRANCH   5   6
BRANCH   5   9
HETATM    9  N           1     -10.277   8.577 -19.001  0.00  0.00    -0.064 N 
HETATM   10  H           1      -9.264   8.805 -18.884  0.00  0.00     0.275 HD
HETATM   11  H           1     -10.844   9.449 -18.904  0.00  0.00     0.275 HD
HETATM   12  H           1     -10.567   7.890 -18.269  0.00  0.00     0.275 HD
ENDBRANCH   5   9
ENDBRANCH   3   5
BRANCH   2  13
HETATM   13  C           1     -12.548   4.820 -21.060  0.00  0.00     0.194 C 
BRANCH  13  14
HETATM   14  C           1     -11.893   3.507 -20.708  0.00  0.00     0.197 C 
HETATM   15  O           1     -10.813   3.495 -20.078  0.00  0.00    -0.646 OA
HETATM   16  O           1     -12.431   2.430 -21.045  0.00  0.00    -0.646 OA
ENDBRANCH  13  14
BRANCH  13  17
HETATM   17  C           1     -13.258   4.689 -22.402  0.00  0.00     0.106 C 
BRANCH  17  18
HETATM   18  S           1     -15.016   5.094 -22.199  0.00  0.00    -0.180 SA
HETATM   19  H           1     -15.430   4.489 -23.325  0.00  0.00     0.101 HD
ENDBRANCH  17  18
ENDBRANCH  13  17
ENDBRANCH   2  13
TORSDOF 8
ENDMDL
MODEL 5
REMARK VINA RESULT:      -4.3     12.557     13.768
REMARK  8 active torsions:
REMARK  status: ('A' for Active; 'I' for Inactive)
REMARK    1  A    between atoms: O_4  and  C_5 
REMARK    2  A    between atoms: C_5  and  C_6 
REMARK    3  A    between atoms: C_6  and  C_12 
REMARK    4  A    between atoms: C_6  and  N_10 
REMARK    5  A    between atoms: C_9  and  C_19 
REMARK    6  A    between atoms: N_11  and  C_19 
REMARK       I    between atoms: N_11  and  C_12 
REMARK    7  A    between atoms: S_15  and  C_16 
REMARK    8  A    between atoms: C_16  and  C_19 
ROOT
HETATM    1  O           1     -21.948  -3.262  -7.417  0.00  0.00    -0.271 OA
HETATM    2  N           1     -22.286  -5.457  -7.185  0.00  0.00    -0.344 N 
HETATM    3  C           1     -22.448  -4.272  -7.851  0.00  0.00     0.251 C 
HETATM    4  H           1     -22.703  -6.303  -7.549  0.00  0.00     0.163 HD
ENDROOT
BRANCH   3   5
HETATM    5  C           1     -23.251  -4.228  -9.128  0.00  0.00     0.297 C 
BRANCH   5   6
HETATM    6  C           1     -22.355  -3.789 -10.278  0.00  0.00     0.206 C 
BRANCH   6   7
HETATM    7  O           1     -21.038  -4.203 -10.030  0.00  0.00    -0.398 OA
HETATM    8  H           1     -20.925  -4.208  -9.095  0.00  0.00     0.209 HD
ENDBRANCH   6   7
ENDBRANCH   5   6
BRANCH   5   9
HETATM    9  N           1     -24.380  -3.252  -8.974  0.00  0.00    -0.064 N 
HETATM   10  H           1     -24.013  -2.277  -9.064  0.00  0.00     0.275 HD
HETATM   11  H           1     -25.093  -3.426  -9.718  0.00  0.00     0.275 HD
HETATM   12  H           1     -24.820  -3.373  -8.035  0.00  0.00     0.275 HD
ENDBRANCH   5   9
ENDBRANCH   3   5
BRANCH   2  13
HETATM   13  C           1     -21.514  -5.499  -5.959  0.00  0.00     0.194 C 
BRANCH  13  14
HETATM   14  C           1     -20.062  -5.750  -6.286  0.00  0.00     0.197 C 
HETATM   15  O           1     -19.687  -6.891  -6.632  0.00  0.00    -0.646 OA
HETATM   16  O           1     -19.234  -4.816  -6.211  0.00  0.00    -0.646 OA
ENDBRANCH  13  14
BRANCH  13  17
HETATM   17  C           1     -22.035  -6.620  -5.069  0.00  0.00     0.106 C 
BRANCH  17  18
HETATM   18  S           1     -21.470  -6.355  -3.365  0.00  0.00    -0.180 SA
HETATM   19  H           1     -20.198  -6.735  -3.579  0.00  0.00     0.101 HD
ENDBRANCH  17  18
ENDBRANCH  13  17
ENDBRANCH   2  13
TORSDOF 8
ENDMDL
MODEL 6
REMARK VINA RESULT:      -4.2     19.330     20.875
REMARK  8 active torsions:
REMARK  status: ('A' for Active; 'I' for Inactive)
REMARK    1  A    between atoms: O_4  and  C_5 
REMARK    2  A    between atoms: C_5  and  C_6 
REMARK    3  A    between atoms: C_6  and  C_12 
REMARK    4  A    between atoms: C_6  and  N_10 
REMARK    5  A    between atoms: C_9  and  C_19 
REMARK    6  A    between atoms: N_11  and  C_19 
REMARK       I    between atoms: N_11  and  C_12 
REMARK    7  A    between atoms: S_15  and  C_16 
REMARK    8  A    between atoms: C_16  and  C_19 
ROOT
HETATM    1  O           1     -12.618   8.307 -21.915  0.00  0.00    -0.271 OA
HETATM    2  N           1     -12.236   6.891 -20.231  0.00  0.00    -0.344 N 
HETATM    3  C           1     -12.248   8.146 -20.776  0.00  0.00     0.251 C 
HETATM    4  H           1     -11.927   6.757 -19.277  0.00  0.00     0.163 HD
ENDROOT
BRANCH   3   5
HETATM    5  C           1     -11.799   9.330 -19.955  0.00  0.00     0.297 C 
BRANCH   5   6
HETATM    6  C           1     -10.361   9.118 -19.501  0.00  0.00     0.206 C 
BRANCH   6   7
HETATM    7  O           1     -10.354   8.501 -18.242  0.00  0.00    -0.398 OA
HETATM    8  H           1     -11.240   8.514 -17.926  0.00  0.00     0.209 HD
ENDBRANCH   6   7
ENDBRANCH   5   6
BRANCH   5   9
HETATM    9  N           1     -12.686   9.470 -18.754  0.00  0.00    -0.064 N 
HETATM   10  H           1     -12.133   9.284 -17.887  0.00  0.00     0.275 HD
HETATM   11  H           1     -13.073  10.441 -18.718  0.00  0.00     0.275 HD
HETATM   12  H           1     -13.472   8.785 -18.820  0.00  0.00     0.275 HD
ENDBRANCH   5   9
ENDBRANCH   3   5
BRANCH   2  13
HETATM   13  C           1     -12.667   5.754 -21.020  0.00  0.00     0.194 C 
BRANCH  13  14
HETATM   14  C           1     -14.011   5.278 -20.524  0.00  0.00     0.197 C 
HETATM   15  O           1     -14.102   4.709 -19.415  0.00  0.00    -0.646 OA
HETATM   16  O           1     -15.032   5.452 -21.224  0.00  0.00    -0.646 OA
ENDBRANCH  13  14
BRANCH  13  17
HETATM   17  C           1     -11.649   4.629 -20.888  0.00  0.00     0.106 C 
BRANCH  17  18
HETATM   18  S           1     -10.429   5.062 -19.616  0.00  0.00    -0.180 SA
HETATM   19  H           1      -9.349   4.694 -20.326  0.00  0.00     0.101 HD
ENDBRANCH  17  18
ENDBRANCH  13  17
ENDBRANCH   2  13
TORSDOF 8
ENDMDL
MODEL 7
REMARK VINA RESULT:      -4.2     14.640     15.697
REMARK  8 active torsions:
REMARK  status: ('A' for Active; 'I' for Inactive)
REMARK    1  A    between atoms: O_4  and  C_5 
REMARK    2  A    between atoms: C_5  and  C_6 
REMARK    3  A    between atoms: C_6  and  C_12 
REMARK    4  A    between atoms: C_6  and  N_10 
REMARK    5  A    between atoms: C_9  and  C_19 
REMARK    6  A    between atoms: N_11  and  C_19 
REMARK       I    between atoms: N_11  and  C_12 
REMARK    7  A    between atoms: S_15  and  C_16 
REMARK    8  A    between atoms: C_16  and  C_19 
ROOT
HETATM    1  O           1     -22.758  -5.629  -5.791  0.00  0.00    -0.271 OA
HETATM    2  N           1     -20.809  -6.295  -4.927  0.00  0.00    -0.344 N 
HETATM    3  C           1     -21.558  -5.495  -5.748  0.00  0.00     0.251 C 
HETATM    4  H           1     -19.805  -6.182  -4.890  0.00  0.00     0.163 HD
ENDROOT
BRANCH   3   5
HETATM    5  C           1     -20.885  -4.446  -6.597  0.00  0.00     0.297 C 
BRANCH   5   6
HETATM    6  C           1     -21.569  -4.376  -7.957  0.00  0.00     0.206 C 
BRANCH   6   7
HETATM    7  O           1     -22.695  -3.546  -7.872  0.00  0.00    -0.398 OA
HETATM    8  H           1     -23.427  -4.044  -8.193  0.00  0.00     0.209 HD
ENDBRANCH   6   7
ENDBRANCH   5   6
BRANCH   5   9
HETATM    9  N           1     -19.440  -4.804  -6.784  0.00  0.00    -0.064 N 
HETATM   10  H           1     -19.317  -5.295  -7.698  0.00  0.00     0.275 HD
HETATM   11  H           1     -18.862  -3.933  -6.775  0.00  0.00     0.275 HD
HETATM   12  H           1     -19.135  -5.433  -6.007  0.00  0.00     0.275 HD
ENDBRANCH   5   9
ENDBRANCH   3   5
BRANCH   2  13
HETATM   13  C           1     -21.457  -7.303  -4.111  0.00  0.00     0.194 C 
BRANCH  13  14
HETATM   14  C           1     -21.563  -6.808  -2.689  0.00  0.00     0.197 C 
HETATM   15  O           1     -20.798  -7.260  -1.810  0.00  0.00    -0.646 OA
HETATM   16  O           1     -22.416  -5.944  -2.391  0.00  0.00    -0.646 OA
ENDBRANCH  13  14
BRANCH  13  17
HETATM   17  C           1     -20.634  -8.585  -4.142  0.00  0.00     0.106 C 
BRANCH  17  18
HETATM   18  S           1     -21.734 -10.016  -3.947  0.00  0.00    -0.180 SA
HETATM   19  H           1     -22.011 -10.159  -5.255  0.00  0.00     0.101 HD
ENDBRANCH  17  18
ENDBRANCH  13  17
ENDBRANCH   2  13
TORSDOF 8
ENDMDL
MODEL 8
REMARK VINA RESULT:      -4.1     14.329     15.412
REMARK  8 active torsions:
REMARK  status: ('A' for Active; 'I' for Inactive)
REMARK    1  A    between atoms: O_4  and  C_5 
REMARK    2  A    between atoms: C_5  and  C_6 
REMARK    3  A    between atoms: C_6  and  C_12 
REMARK    4  A    between atoms: C_6  and  N_10 
REMARK    5  A    between atoms: C_9  and  C_19 
REMARK    6  A    between atoms: N_11  and  C_19 
REMARK       I    between atoms: N_11  and  C_12 
REMARK    7  A    between atoms: S_15  and  C_16 
REMARK    8  A    between atoms: C_16  and  C_19 
ROOT
HETATM    1  O           1     -20.265  -4.608  -5.282  0.00  0.00    -0.271 OA
HETATM    2  N           1     -21.355  -6.549  -5.464  0.00  0.00    -0.344 N 
HETATM    3  C           1     -21.079  -5.273  -5.877  0.00  0.00     0.251 C 
HETATM    4  H           1     -22.036  -7.105  -5.964  0.00  0.00     0.163 HD
ENDROOT
BRANCH   3   5
HETATM    5  C           1     -21.791  -4.698  -7.076  0.00  0.00     0.297 C 
BRANCH   5   6
HETATM    6  C           1     -21.158  -5.238  -8.352  0.00  0.00     0.206 C 
BRANCH   6   7
HETATM    7  O           1     -20.032  -6.006  -8.026  0.00  0.00    -0.398 OA
HETATM    8  H           1     -19.998  -6.717  -8.643  0.00  0.00     0.209 HD
ENDBRANCH   6   7
ENDBRANCH   5   6
BRANCH   5   9
HETATM    9  N           1     -21.675  -3.202  -7.056  0.00  0.00    -0.064 N 
HETATM   10  H           1     -21.005  -2.894  -7.797  0.00  0.00     0.275 HD
HETATM   11  H           1     -22.613  -2.778  -7.238  0.00  0.00     0.275 HD
HETATM   12  H           1     -21.328  -2.892  -6.121  0.00  0.00     0.275 HD
ENDBRANCH   5   9
ENDBRANCH   3   5
BRANCH   2  13
HETATM   13  C           1     -20.671  -7.101  -4.312  0.00  0.00     0.194 C 
BRANCH  13  14
HETATM   14  C           1     -19.786  -8.242  -4.751  0.00  0.00     0.197 C 
HETATM   15  O           1     -19.381  -8.301  -5.932  0.00  0.00    -0.646 OA
HETATM   16  O           1     -19.458  -9.129  -3.933  0.00  0.00    -0.646 OA
ENDBRANCH  13  14
BRANCH  13  17
HETATM   17  C           1     -21.697  -7.611  -3.309  0.00  0.00     0.106 C 
BRANCH  17  18
HETATM   18  S           1     -22.041  -6.319  -2.082  0.00  0.00    -0.180 SA
HETATM   19  H           1     -20.863  -5.684  -2.213  0.00  0.00     0.101 HD
ENDBRANCH  17  18
ENDBRANCH  13  17
ENDBRANCH   2  13
TORSDOF 8
ENDMDL
MODEL 9
REMARK VINA RESULT:      -4.1     18.233     19.162
REMARK  8 active torsions:
REMARK  status: ('A' for Active; 'I' for Inactive)
REMARK    1  A    between atoms: O_4  and  C_5 
REMARK    2  A    between atoms: C_5  and  C_6 
REMARK    3  A    between atoms: C_6  and  C_12 
REMARK    4  A    between atoms: C_6  and  N_10 
REMARK    5  A    between atoms: C_9  and  C_19 
REMARK    6  A    between atoms: N_11  and  C_19 
REMARK       I    between atoms: N_11  and  C_12 
REMARK    7  A    between atoms: S_15  and  C_16 
REMARK    8  A    between atoms: C_16  and  C_19 
ROOT
HETATM    1  O           1     -20.802  -9.732   0.290  0.00  0.00    -0.271 OA
HETATM    2  N           1     -21.847  -9.300  -1.636  0.00  0.00    -0.344 N 
HETATM    3  C           1     -21.576 -10.102  -0.561  0.00  0.00     0.251 C 
HETATM    4  H           1     -22.496  -9.609  -2.347  0.00  0.00     0.163 HD
ENDROOT
BRANCH   3   5
HETATM    5  C           1     -22.245 -11.449  -0.437  0.00  0.00     0.297 C 
BRANCH   5   6
HETATM    6  C           1     -23.733 -11.258  -0.178  0.00  0.00     0.206 C 
BRANCH   6   7
HETATM    7  O           1     -23.981  -9.919   0.156  0.00  0.00    -0.398 OA
HETATM    8  H           1     -23.258  -9.631   0.686  0.00  0.00     0.209 HD
ENDBRANCH   6   7
ENDBRANCH   5   6
BRANCH   5   9
HETATM    9  N           1     -21.633 -12.208   0.704  0.00  0.00    -0.064 N 
HETATM   10  H           1     -21.514 -11.570   1.523  0.00  0.00     0.275 HD
HETATM   11  H           1     -22.260 -13.002   0.968  0.00  0.00     0.275 HD
HETATM   12  H           1     -20.702 -12.582   0.414  0.00  0.00     0.275 HD
ENDBRANCH   5   9
ENDBRANCH   3   5
BRANCH   2  13
HETATM   13  C           1     -21.205  -8.005  -1.753  0.00  0.00     0.194 C 
BRANCH  13  14
HETATM   14  C           1     -22.193  -6.919  -1.406  0.00  0.00     0.197 C 
HETATM   15  O           1     -22.916  -7.032  -0.392  0.00  0.00    -0.646 OA
HETATM   16  O           1     -22.289  -5.906  -2.132  0.00  0.00    -0.646 OA
ENDBRANCH  13  14
BRANCH  13  17
HETATM   17  C           1     -20.717  -7.809  -3.183  0.00  0.00     0.106 C 
BRANCH  17  18
HETATM   18  S           1     -21.470  -9.063  -4.258  0.00  0.00    -0.180 SA
HETATM   19  H           1     -21.520  -8.293  -5.358  0.00  0.00     0.101 HD
ENDBRANCH  17  18
ENDBRANCH  13  17
ENDBRANCH   2  13
TORSDOF 8
ENDMDL
