MODEL 1
REMARK VINA RESULT:      -6.4      0.000      0.000
REMARK  7 active torsions:
REMARK  status: ('A' for Active; 'I' for Inactive)
REMARK    1  A    between atoms: C_2  and  C_4 
REMARK    2  A    between atoms: C_4  and  C_11 
REMARK    3  A    between atoms: C_4  and  N_21 
REMARK    4  A    between atoms: N_9  and  C_19 
REMARK       I    between atoms: N_16  and  C_17 
REMARK    5  A    between atoms: C_17  and  C_18 
REMARK    6  A    between atoms: C_18  and  C_19 
REMARK    7  A    between atoms: C_19  and  C_20 
REMARK       I    between atoms: C_20  and  N_21 
ROOT
HETATM    1  C           1     -21.255  -5.777  -6.910  0.00  0.00     0.283 C 
ENDROOT
BRANCH   1   2
HETATM    2  N           1     -19.942  -6.259  -7.449  0.00  0.00    -0.066 N 
HETATM    3  H           1     -20.089  -6.697  -8.387  0.00  0.00     0.275 HD
HETATM    4  H           1     -19.285  -5.452  -7.541  0.00  0.00     0.275 HD
HETATM    5  H           1     -19.536  -6.968  -6.796  0.00  0.00     0.275 HD
ENDBRANCH   1   2
BRANCH   1   6
HETATM    6  C           1     -21.086  -5.374  -5.451  0.00  0.00     0.145 C 
BRANCH   6   7
HETATM    7  C           1     -21.657  -6.450  -4.561  0.00  0.00     0.217 C 
HETATM    8  O           1     -21.746  -7.585  -4.967  0.00  0.00    -0.274 OA
HETATM    9  N           1     -22.074  -6.143  -3.294  0.00  0.00    -0.370 N 
HETATM   10  H           1     -21.999  -5.192  -2.954  0.00  0.00     0.159 HD
HETATM   11  H           1     -22.457  -6.865  -2.697  0.00  0.00     0.159 HD
ENDBRANCH   6   7
ENDBRANCH   1   6
BRANCH   1  12
HETATM   12  C           1     -21.720  -4.587  -7.711  0.00  0.00     0.249 C 
HETATM   13  O           1     -21.639  -3.475  -7.245  0.00  0.00    -0.271 OA
HETATM   14  N           1     -22.235  -4.765  -8.967  0.00  0.00    -0.344 N 
HETATM   15  H           1     -22.303  -5.696  -9.358  0.00  0.00     0.163 HD
BRANCH  14  16
HETATM   16  C           1     -22.682  -3.620  -9.737  0.00  0.00     0.189 C 
BRANCH  16  17
HETATM   17  C           1     -21.860  -3.518 -11.016  0.00  0.00     0.010 C 
HETATM   18  C           1     -20.377  -3.547 -10.669  0.00  0.00     0.012 C 
HETATM   19  C           1     -22.193  -4.692 -11.927  0.00  0.00     0.012 C 
ENDBRANCH  16  17
BRANCH  16  20
HETATM   20  C           1     -24.140  -3.789 -10.087  0.00  0.00     0.197 C 
HETATM   21  O           1     -24.742  -4.838  -9.770  0.00  0.00    -0.646 OA
HETATM   22  O           1     -24.746  -2.880 -10.694  0.00  0.00    -0.646 OA
ENDBRANCH  16  20
ENDBRANCH  14  16
ENDBRANCH   1  12
TORSDOF 7
ENDMDL
MODEL 2
REMARK VINA RESULT:      -6.3     13.615     16.163
REMARK  7 active torsions:
REMARK  status: ('A' for Active; 'I' for Inactive)
REMARK    1  A    between atoms: C_2  and  C_4 
REMARK    2  A    between atoms: C_4  and  C_11 
REMARK    3  A    between atoms: C_4  and  N_21 
REMARK    4  A    between atoms: N_9  and  C_19 
REMARK       I    between atoms: N_16  and  C_17 
REMARK    5  A    between atoms: C_17  and  C_18 
REMARK    6  A    between atoms: C_18  and  C_19 
REMARK    7  A    between atoms: C_19  and  C_20 
REMARK       I    between atoms: C_20  and  N_21 
ROOT
HETATM    1  C           1     -35.701   0.641 -14.022  0.00  0.00     0.283 C 
ENDROOT
BRANCH   1   2
HETATM    2  N           1     -34.368   1.151 -13.564  0.00  0.00    -0.066 N 
HETATM    3  H           1     -34.507   1.878 -12.826  0.00  0.00     0.275 HD
HETATM    4  H           1     -33.808   0.360 -13.173  0.00  0.00     0.275 HD
HETATM    5  H           1     -33.858   1.572 -14.375  0.00  0.00     0.275 HD
ENDBRANCH   1   2
BRANCH   1   6
HETATM    6  C           1     -35.532  -0.108 -15.338  0.00  0.00     0.145 C 
BRANCH   6   7
HETATM    7  C           1     -36.800   0.006 -16.148  0.00  0.00     0.217 C 
HETATM    8  O           1     -37.030  -0.793 -17.026  0.00  0.00    -0.274 OA
HETATM    9  N           1     -37.691   1.012 -15.890  0.00  0.00    -0.370 N 
HETATM   10  H           1     -37.499   1.681 -15.154  0.00  0.00     0.159 HD
HETATM   11  H           1     -38.542   1.088 -16.433  0.00  0.00     0.159 HD
ENDBRANCH   6   7
ENDBRANCH   1   6
BRANCH   1  12
HETATM   12  C           1     -36.267  -0.292 -12.981  0.00  0.00     0.249 C 
HETATM   13  O           1     -37.349  -0.802 -13.151  0.00  0.00    -0.271 OA
HETATM   14  N           1     -35.555  -0.561 -11.843  0.00  0.00    -0.344 N 
HETATM   15  H           1     -34.649  -0.134 -11.701  0.00  0.00     0.163 HD
BRANCH  14  16
HETATM   16  C           1     -36.099  -1.459 -10.842  0.00  0.00     0.189 C 
BRANCH  16  17
HETATM   17  C           1     -35.024  -2.447 -10.411  0.00  0.00     0.010 C 
HETATM   18  C           1     -35.380  -3.838 -10.921  0.00  0.00     0.012 C 
HETATM   19  C           1     -33.681  -2.021 -10.989  0.00  0.00     0.012 C 
ENDBRANCH  16  17
BRANCH  16  20
HETATM   20  C           1     -36.558  -0.660  -9.647  0.00  0.00     0.197 C 
HETATM   21  O           1     -37.766  -0.365  -9.519  0.00  0.00    -0.646 OA
HETATM   22  O           1     -35.730  -0.292  -8.786  0.00  0.00    -0.646 OA
ENDBRANCH  16  20
ENDBRANCH  14  16
ENDBRANCH   1  12
TORSDOF 7
ENDMDL
MODEL 3
REMARK VINA RESULT:      -6.1     12.626     15.386
REMARK  7 active torsions:
REMARK  status: ('A' for Active; 'I' for Inactive)
REMARK    1  A    between atoms: C_2  and  C_4 
REMARK    2  A    between atoms: C_4  and  C_11 
REMARK    3  A    between atoms: C_4  and  N_21 
REMARK    4  A    between atoms: N_9  and  C_19 
REMARK       I    between atoms: N_16  and  C_17 
REMARK    5  A    between atoms: C_17  and  C_18 
REMARK    6  A    between atoms: C_18  and  C_19 
REMARK    7  A    between atoms: C_19  and  C_20 
REMARK       I    between atoms: C_20  and  N_21 
ROOT
HETATM    1  C           1     -35.535  -0.217 -13.586  0.00  0.00     0.283 C 
ENDROOT
BRANCH   1   2
HETATM    2  N           1     -34.788   0.284 -14.785  0.00  0.00    -0.066 N 
HETATM    3  H           1     -35.297   0.006 -15.655  0.00  0.00     0.275 HD
HETATM    4  H           1     -34.716   1.325 -14.741  0.00  0.00     0.275 HD
HETATM    5  H           1     -33.828  -0.133 -14.797  0.00  0.00     0.275 HD
ENDBRANCH   1   2
BRANCH   1   6
HETATM    6  C           1     -37.033  -0.144 -13.856  0.00  0.00     0.145 C 
BRANCH   6   7
HETATM    7  C           1     -37.271  -0.005 -15.339  0.00  0.00     0.217 C 
HETATM    8  O           1     -37.070  -0.944 -16.074  0.00  0.00    -0.274 OA
HETATM    9  N           1     -37.716   1.183 -15.853  0.00  0.00    -0.370 N 
HETATM   10  H           1     -37.886   1.969 -15.238  0.00  0.00     0.159 HD
HETATM   11  H           1     -37.877   1.276 -16.848  0.00  0.00     0.159 HD
ENDBRANCH   6   7
ENDBRANCH   1   6
BRANCH   1  12
HETATM   12  C           1     -35.142  -1.647 -13.310  0.00  0.00     0.249 C 
HETATM   13  O           1     -34.833  -2.376 -14.222  0.00  0.00    -0.271 OA
HETATM   14  N           1     -35.136  -2.120 -12.025  0.00  0.00    -0.344 N 
HETATM   15  H           1     -35.395  -1.509 -11.260  0.00  0.00     0.163 HD
BRANCH  14  16
HETATM   16  C           1     -34.757  -3.495 -11.759  0.00  0.00     0.189 C 
BRANCH  16  17
HETATM   17  C           1     -33.382  -3.524 -11.105  0.00  0.00     0.010 C 
HETATM   18  C           1     -32.377  -4.146 -12.065  0.00  0.00     0.012 C 
HETATM   19  C           1     -32.951  -2.103 -10.767  0.00  0.00     0.012 C 
ENDBRANCH  16  17
BRANCH  16  20
HETATM   20  C           1     -35.769  -4.124 -10.835  0.00  0.00     0.197 C 
HETATM   21  O           1     -35.587  -5.284 -10.405  0.00  0.00    -0.646 OA
HETATM   22  O           1     -36.790  -3.487 -10.498  0.00  0.00    -0.646 OA
ENDBRANCH  16  20
ENDBRANCH  14  16
ENDBRANCH   1  12
TORSDOF 7
ENDMDL
MODEL 4
REMARK VINA RESULT:      -5.9     12.762     15.735
REMARK  7 active torsions:
REMARK  status: ('A' for Active; 'I' for Inactive)
REMARK    1  A    between atoms: C_2  and  C_4 
REMARK    2  A    between atoms: C_4  and  C_11 
REMARK    3  A    between atoms: C_4  and  N_21 
REMARK    4  A    between atoms: N_9  and  C_19 
REMARK       I    between atoms: N_16  and  C_17 
REMARK    5  A    between atoms: C_17  and  C_18 
REMARK    6  A    between atoms: C_18  and  C_19 
REMARK    7  A    between atoms: C_19  and  C_20 
REMARK       I    between atoms: C_20  and  N_21 
ROOT
HETATM    1  C           1     -36.297   0.000 -13.866  0.00  0.00     0.283 C 
ENDROOT
BRANCH   1   2
HETATM    2  N           1     -35.355  -0.312 -14.990  0.00  0.00    -0.066 N 
HETATM    3  H           1     -35.743  -1.096 -15.563  0.00  0.00     0.275 HD
HETATM    4  H           1     -35.239   0.535 -15.592  0.00  0.00     0.275 HD
HETATM    5  H           1     -34.427  -0.593 -14.600  0.00  0.00     0.275 HD
ENDBRANCH   1   2
BRANCH   1   6
HETATM    6  C           1     -37.733  -0.140 -14.354  0.00  0.00     0.145 C 
BRANCH   6   7
HETATM    7  C           1     -37.820   0.293 -15.797  0.00  0.00     0.217 C 
HETATM    8  O           1     -37.664  -0.516 -16.681  0.00  0.00    -0.274 OA
HETATM    9  N           1     -38.075   1.602 -16.105  0.00  0.00    -0.370 N 
HETATM   10  H           1     -38.206   2.280 -15.364  0.00  0.00     0.159 HD
HETATM   11  H           1     -38.133   1.893 -17.073  0.00  0.00     0.159 HD
ENDBRANCH   6   7
ENDBRANCH   1   6
BRANCH   1  12
HETATM   12  C           1     -36.055  -0.959 -12.728  0.00  0.00     0.249 C 
HETATM   13  O           1     -36.885  -1.086 -11.858  0.00  0.00    -0.271 OA
HETATM   14  N           1     -34.896  -1.686 -12.678  0.00  0.00    -0.344 N 
HETATM   15  H           1     -34.201  -1.579 -13.406  0.00  0.00     0.163 HD
BRANCH  14  16
HETATM   16  C           1     -34.664  -2.608 -11.583  0.00  0.00     0.189 C 
BRANCH  16  17
HETATM   17  C           1     -33.725  -3.715 -12.045  0.00  0.00     0.010 C 
HETATM   18  C           1     -33.893  -4.931 -11.143  0.00  0.00     0.012 C 
HETATM   19  C           1     -34.057  -4.097 -13.481  0.00  0.00     0.012 C 
ENDBRANCH  16  17
BRANCH  16  20
HETATM   20  C           1     -34.041  -1.868 -10.426  0.00  0.00     0.197 C 
HETATM   21  O           1     -32.815  -1.626 -10.427  0.00  0.00    -0.646 OA
HETATM   22  O           1     -34.751  -1.498  -9.466  0.00  0.00    -0.646 OA
ENDBRANCH  16  20
ENDBRANCH  14  16
ENDBRANCH   1  12
TORSDOF 7
ENDMDL
MODEL 5
REMARK VINA RESULT:      -5.6      2.270      6.498
REMARK  7 active torsions:
REMARK  status: ('A' for Active; 'I' for Inactive)
REMARK    1  A    between atoms: C_2  and  C_4 
REMARK    2  A    between atoms: C_4  and  C_11 
REMARK    3  A    between atoms: C_4  and  N_21 
REMARK    4  A    between atoms: N_9  and  C_19 
REMARK       I    between atoms: N_16  and  C_17 
REMARK    5  A    between atoms: C_17  and  C_18 
REMARK    6  A    between atoms: C_18  and  C_19 
REMARK    7  A    between atoms: C_19  and  C_20 
REMARK       I    between atoms: C_20  and  N_21 
ROOT
HETATM    1  C           1     -21.141  -4.757  -6.512  0.00  0.00     0.283 C 
ENDROOT
BRANCH   1   2
HETATM    2  N           1     -19.655  -4.721  -6.323  0.00  0.00    -0.066 N 
HETATM    3  H           1     -19.246  -3.957  -6.908  0.00  0.00     0.275 HD
HETATM    4  H           1     -19.436  -4.544  -5.316  0.00  0.00     0.275 HD
HETATM    5  H           1     -19.244  -5.638  -6.613  0.00  0.00     0.275 HD
ENDBRANCH   1   2
BRANCH   1   6
HETATM    6  C           1     -21.460  -5.158  -7.947  0.00  0.00     0.145 C 
BRANCH   6   7
HETATM    7  C           1     -22.488  -4.212  -8.518  0.00  0.00     0.217 C 
HETATM    8  O           1     -22.232  -3.569  -9.509  0.00  0.00    -0.274 OA
HETATM    9  N           1     -23.710  -4.083  -7.916  0.00  0.00    -0.370 N 
HETATM   10  H           1     -23.925  -4.622  -7.086  0.00  0.00     0.159 HD
HETATM   11  H           1     -24.399  -3.449  -8.299  0.00  0.00     0.159 HD
ENDBRANCH   6   7
ENDBRANCH   1   6
BRANCH   1  12
HETATM   12  C           1     -21.745  -5.761  -5.562  0.00  0.00     0.249 C 
HETATM   13  O           1     -22.945  -5.899  -5.511  0.00  0.00    -0.271 OA
HETATM   14  N           1     -20.935  -6.516  -4.757  0.00  0.00    -0.344 N 
HETATM   15  H           1     -19.931  -6.400  -4.800  0.00  0.00     0.163 HD
BRANCH  14  16
HETATM   16  C           1     -21.516  -7.481  -3.844  0.00  0.00     0.189 C 
BRANCH  16  17
HETATM   17  C           1     -20.673  -8.750  -3.846  0.00  0.00     0.010 C 
HETATM   18  C           1     -21.537  -9.932  -4.264  0.00  0.00     0.012 C 
HETATM   19  C           1     -19.519  -8.591  -4.826  0.00  0.00     0.012 C 
ENDBRANCH  16  17
BRANCH  16  20
HETATM   20  C           1     -21.549  -6.900  -2.453  0.00  0.00     0.197 C 
HETATM   21  O           1     -20.865  -7.417  -1.543  0.00  0.00    -0.646 OA
HETATM   22  O           1     -22.260  -5.902  -2.209  0.00  0.00    -0.646 OA
ENDBRANCH  16  20
ENDBRANCH  14  16
ENDBRANCH   1  12
TORSDOF 7
ENDMDL
MODEL 6
REMARK VINA RESULT:      -5.5      1.915      5.947
REMARK  7 active torsions:
REMARK  status: ('A' for Active; 'I' for Inactive)
REMARK    1  A    between atoms: C_2  and  C_4 
REMARK    2  A    between atoms: C_4  and  C_11 
REMARK    3  A    between atoms: C_4  and  N_21 
REMARK    4  A    between atoms: N_9  and  C_19 
REMARK       I    between atoms: N_16  and  C_17 
REMARK    5  A    between atoms: C_17  and  C_18 
REMARK    6  A    between atoms: C_18  and  C_19 
REMARK    7  A    between atoms: C_19  and  C_20 
REMARK       I    between atoms: C_20  and  N_21 
ROOT
HETATM    1  C           1     -23.234  -4.127  -9.193  0.00  0.00     0.283 C 
ENDROOT
BRANCH   1   2
HETATM    2  N           1     -24.526  -3.482  -8.788  0.00  0.00    -0.066 N 
HETATM    3  H           1     -25.296  -3.824  -9.407  0.00  0.00     0.275 HD
HETATM    4  H           1     -24.742  -3.727  -7.796  0.00  0.00     0.275 HD
HETATM    5  H           1     -24.441  -2.444  -8.881  0.00  0.00     0.275 HD
ENDBRANCH   1   2
BRANCH   1   6
HETATM    6  C           1     -22.604  -3.332 -10.329  0.00  0.00     0.145 C 
BRANCH   6   7
HETATM    7  C           1     -22.546  -4.186 -11.571  0.00  0.00     0.217 C 
HETATM    8  O           1     -23.494  -4.871 -11.877  0.00  0.00    -0.274 OA
HETATM    9  N           1     -21.422  -4.186 -12.351  0.00  0.00    -0.370 N 
HETATM   10  H           1     -20.628  -3.612 -12.095  0.00  0.00     0.159 HD
HETATM   11  H           1     -21.383  -4.759 -13.185  0.00  0.00     0.159 HD
ENDBRANCH   6   7
ENDBRANCH   1   6
BRANCH   1  12
HETATM   12  C           1     -22.294  -4.152  -8.013  0.00  0.00     0.249 C 
HETATM   13  O           1     -21.750  -3.136  -7.651  0.00  0.00    -0.271 OA
HETATM   14  N           1     -22.056  -5.327  -7.351  0.00  0.00    -0.344 N 
HETATM   15  H           1     -22.512  -6.179  -7.654  0.00  0.00     0.163 HD
BRANCH  14  16
HETATM   16  C           1     -21.153  -5.351  -6.217  0.00  0.00     0.189 C 
BRANCH  16  17
HETATM   17  C           1     -21.652  -6.363  -5.194  0.00  0.00     0.010 C 
HETATM   18  C           1     -21.118  -5.996  -3.816  0.00  0.00     0.012 C 
HETATM   19  C           1     -23.175  -6.350  -5.169  0.00  0.00     0.012 C 
ENDBRANCH  16  17
BRANCH  16  20
HETATM   20  C           1     -19.773  -5.744  -6.683  0.00  0.00     0.197 C 
HETATM   21  O           1     -19.465  -6.953  -6.775  0.00  0.00    -0.646 OA
HETATM   22  O           1     -18.937  -4.863  -6.975  0.00  0.00    -0.646 OA
ENDBRANCH  16  20
ENDBRANCH  14  16
ENDBRANCH   1  12
TORSDOF 7
ENDMDL
MODEL 7
REMARK VINA RESULT:      -5.4     13.152     15.808
REMARK  7 active torsions:
REMARK  status: ('A' for Active; 'I' for Inactive)
REMARK    1  A    between atoms: C_2  and  C_4 
REMARK    2  A    between atoms: C_4  and  C_11 
REMARK    3  A    between atoms: C_4  and  N_21 
REMARK    4  A    between atoms: N_9  and  C_19 
REMARK       I    between atoms: N_16  and  C_17 
REMARK    5  A    between atoms: C_17  and  C_18 
REMARK    6  A    between atoms: C_18  and  C_19 
REMARK    7  A    between atoms: C_19  and  C_20 
REMARK       I    between atoms: C_20  and  N_21 
ROOT
HETATM    1  C           1     -36.265   0.467 -13.813  0.00  0.00     0.283 C 
ENDROOT
BRANCH   1   2
HETATM    2  N           1     -35.552   1.351 -14.792  0.00  0.00    -0.066 N 
HETATM    3  H           1     -34.799   0.806 -15.271  0.00  0.00     0.275 HD
HETATM    4  H           1     -36.233   1.702 -15.503  0.00  0.00     0.275 HD
HETATM    5  H           1     -35.127   2.160 -14.286  0.00  0.00     0.275 HD
ENDBRANCH   1   2
BRANCH   1   6
HETATM    6  C           1     -37.117  -0.544 -14.569  0.00  0.00     0.145 C 
BRANCH   6   7
HETATM    7  C           1     -37.330  -0.065 -15.984  0.00  0.00     0.217 C 
HETATM    8  O           1     -38.075   0.861 -16.203  0.00  0.00    -0.274 OA
HETATM    9  N           1     -36.678  -0.678 -17.020  0.00  0.00    -0.370 N 
HETATM   10  H           1     -36.053  -1.453 -16.837  0.00  0.00     0.159 HD
HETATM   11  H           1     -36.820  -0.356 -17.970  0.00  0.00     0.159 HD
ENDBRANCH   6   7
ENDBRANCH   1   6
BRANCH   1  12
HETATM   12  C           1     -35.252  -0.263 -12.966  0.00  0.00     0.249 C 
HETATM   13  O           1     -34.368   0.351 -12.417  0.00  0.00    -0.271 OA
HETATM   14  N           1     -35.334  -1.622 -12.818  0.00  0.00    -0.344 N 
HETATM   15  H           1     -36.075  -2.136 -13.278  0.00  0.00     0.163 HD
BRANCH  14  16
HETATM   16  C           1     -34.361  -2.323 -12.003  0.00  0.00     0.189 C 
BRANCH  16  17
HETATM   17  C           1     -35.035  -2.831 -10.735  0.00  0.00     0.010 C 
HETATM   18  C           1     -36.229  -1.945 -10.405  0.00  0.00     0.012 C 
HETATM   19  C           1     -35.508  -4.263 -10.951  0.00  0.00     0.012 C 
ENDBRANCH  16  17
BRANCH  16  20
HETATM   20  C           1     -33.803  -3.490 -12.779  0.00  0.00     0.197 C 
HETATM   21  O           1     -32.840  -4.143 -12.321  0.00  0.00    -0.646 OA
HETATM   22  O           1     -34.302  -3.803 -13.881  0.00  0.00    -0.646 OA
ENDBRANCH  16  20
ENDBRANCH  14  16
ENDBRANCH   1  12
TORSDOF 7
ENDMDL
MODEL 8
REMARK VINA RESULT:      -5.3      2.064      6.294
REMARK  7 active torsions:
REMARK  status: ('A' for Active; 'I' for Inactive)
REMARK    1  A    between atoms: C_2  and  C_4 
REMARK    2  A    between atoms: C_4  and  C_11 
REMARK    3  A    between atoms: C_4  and  N_21 
REMARK    4  A    between atoms: N_9  and  C_19 
REMARK       I    between atoms: N_16  and  C_17 
REMARK    5  A    between atoms: C_17  and  C_18 
REMARK    6  A    between atoms: C_18  and  C_19 
REMARK    7  A    between atoms: C_19  and  C_20 
REMARK       I    between atoms: C_20  and  N_21 
ROOT
HETATM    1  C           1     -21.468  -4.827  -8.357  0.00  0.00     0.283 C 
ENDROOT
BRANCH   1   2
HETATM    2  N           1     -22.421  -3.716  -8.037  0.00  0.00    -0.066 N 
HETATM    3  H           1     -22.194  -3.321  -7.095  0.00  0.00     0.275 HD
HETATM    4  H           1     -22.335  -2.965  -8.758  0.00  0.00     0.275 HD
HETATM    5  H           1     -23.399  -4.085  -8.032  0.00  0.00     0.275 HD
ENDBRANCH   1   2
BRANCH   1   6
HETATM    6  C           1     -20.385  -4.312  -9.296  0.00  0.00     0.145 C 
BRANCH   6   7
HETATM    7  C           1     -20.966  -4.113 -10.674  0.00  0.00     0.217 C 
HETATM    8  O           1     -22.051  -4.572 -10.944  0.00  0.00    -0.274 OA
HETATM    9  N           1     -20.265  -3.412 -11.618  0.00  0.00    -0.370 N 
HETATM   10  H           1     -19.357  -3.026 -11.392  0.00  0.00     0.159 HD
HETATM   11  H           1     -20.655  -3.278 -12.543  0.00  0.00     0.159 HD
ENDBRANCH   6   7
ENDBRANCH   1   6
BRANCH   1  12
HETATM   12  C           1     -20.833  -5.328  -7.083  0.00  0.00     0.249 C 
HETATM   13  O           1     -20.043  -4.635  -6.488  0.00  0.00    -0.271 OA
HETATM   14  N           1     -21.153  -6.569  -6.600  0.00  0.00    -0.344 N 
HETATM   15  H           1     -21.816  -7.150  -7.099  0.00  0.00     0.163 HD
BRANCH  14  16
HETATM   16  C           1     -20.544  -7.050  -5.376  0.00  0.00     0.189 C 
BRANCH  16  17
HETATM   17  C           1     -21.579  -7.044  -4.259  0.00  0.00     0.010 C 
HETATM   18  C           1     -21.139  -6.081  -3.164  0.00  0.00     0.012 C 
HETATM   19  C           1     -22.925  -6.601  -4.817  0.00  0.00     0.012 C 
ENDBRANCH  16  17
BRANCH  16  20
HETATM   20  C           1     -20.037  -8.455  -5.585  0.00  0.00     0.197 C 
HETATM   21  O           1     -20.830  -9.420  -5.535  0.00  0.00    -0.646 OA
HETATM   22  O           1     -18.823  -8.655  -5.809  0.00  0.00    -0.646 OA
ENDBRANCH  16  20
ENDBRANCH  14  16
ENDBRANCH   1  12
TORSDOF 7
ENDMDL
MODEL 9
REMARK VINA RESULT:      -5.3      4.272      8.413
REMARK  7 active torsions:
REMARK  status: ('A' for Active; 'I' for Inactive)
REMARK    1  A    between atoms: C_2  and  C_4 
REMARK    2  A    between atoms: C_4  and  C_11 
REMARK    3  A    between atoms: C_4  and  N_21 
REMARK    4  A    between atoms: N_9  and  C_19 
REMARK       I    between atoms: N_16  and  C_17 
REMARK    5  A    between atoms: C_17  and  C_18 
REMARK    6  A    between atoms: C_18  and  C_19 
REMARK    7  A    between atoms: C_19  and  C_20 
REMARK       I    between atoms: C_20  and  N_21 
ROOT
HETATM    1  C           1     -20.118  -8.138  -4.714  0.00  0.00     0.283 C 
ENDROOT
BRANCH   1   2
HETATM    2  N           1     -20.636  -9.211  -5.622  0.00  0.00    -0.066 N 
HETATM    3  H           1     -19.834  -9.755  -6.015  0.00  0.00     0.275 HD
HETATM    4  H           1     -21.260  -9.853  -5.082  0.00  0.00     0.275 HD
HETATM    5  H           1     -21.176  -8.776  -6.405  0.00  0.00     0.275 HD
ENDBRANCH   1   2
BRANCH   1   6
HETATM    6  C           1     -20.962  -6.881  -4.881  0.00  0.00     0.145 C 
BRANCH   6   7
HETATM    7  C           1     -20.410  -6.050  -6.013  0.00  0.00     0.217 C 
HETATM    8  O           1     -20.373  -6.503  -7.133  0.00  0.00    -0.274 OA
HETATM    9  N           1     -19.951  -4.783  -5.772  0.00  0.00    -0.370 N 
HETATM   10  H           1     -19.983  -4.403  -4.834  0.00  0.00     0.159 HD
HETATM   11  H           1     -19.581  -4.225  -6.532  0.00  0.00     0.159 HD
ENDBRANCH   6   7
ENDBRANCH   1   6
BRANCH   1  12
HETATM   12  C           1     -20.195  -8.609  -3.283  0.00  0.00     0.249 C 
HETATM   13  O           1     -19.198  -8.994  -2.719  0.00  0.00    -0.271 OA
HETATM   14  N           1     -21.394  -8.601  -2.622  0.00  0.00    -0.344 N 
HETATM   15  H           1     -22.229  -8.279  -3.095  0.00  0.00     0.163 HD
BRANCH  14  16
HETATM   16  C           1     -21.468  -9.054  -1.247  0.00  0.00     0.189 C 
BRANCH  16  17
HETATM   17  C           1     -22.382  -8.126  -0.457  0.00  0.00     0.010 C 
HETATM   18  C           1     -21.916  -8.069   0.992  0.00  0.00     0.012 C 
HETATM   19  C           1     -22.334  -6.730  -1.063  0.00  0.00     0.012 C 
ENDBRANCH  16  17
BRANCH  16  20
HETATM   20  C           1     -22.020 -10.458  -1.209  0.00  0.00     0.197 C 
HETATM   21  O           1     -23.010 -10.759  -1.912  0.00  0.00    -0.646 OA
HETATM   22  O           1     -21.489 -11.319  -0.475  0.00  0.00    -0.646 OA
ENDBRANCH  16  20
ENDBRANCH  14  16
ENDBRANCH   1  12
TORSDOF 7
ENDMDL
