MODEL 1
REMARK VINA RESULT:      -6.4      0.000      0.000
REMARK  9 active torsions:
REMARK  status: ('A' for Active; 'I' for Inactive)
REMARK    1  A    between atoms: N_2  and  C_18 
REMARK    2  A    between atoms: N_9  and  C_10 
REMARK       I    between atoms: N_9  and  C_22 
REMARK    3  A    between atoms: C_10  and  C_17 
REMARK    4  A    between atoms: C_10  and  C_11 
REMARK    5  A    between atoms: C_15  and  C_21 
REMARK    6  A    between atoms: O_16  and  C_17 
REMARK    7  A    between atoms: C_18  and  C_22 
REMARK    8  A    between atoms: C_18  and  C_19 
REMARK    9  A    between atoms: C_19  and  C_21 
ROOT
HETATM    1  O           1     -28.699  -5.256 -19.170  0.00  0.00    -0.271 OA
HETATM    2  H           1     -27.384  -8.066 -18.702  0.00  0.00     0.163 HD
HETATM    3  N           1     -27.575  -7.185 -19.164  0.00  0.00    -0.343 N 
HETATM    4  C           1     -28.472  -6.306 -18.619  0.00  0.00     0.249 C 
ENDROOT
BRANCH   4   5
HETATM    5  C           1     -29.176  -6.649 -17.329  0.00  0.00     0.275 C 
BRANCH   5   6
HETATM    6  N           1     -29.268  -8.140 -17.191  0.00  0.00    -0.066 N 
HETATM    7  H           1     -28.400  -8.580 -17.570  0.00  0.00     0.275 HD
HETATM    8  H           1     -29.373  -8.390 -16.182  0.00  0.00     0.275 HD
HETATM    9  H           1     -30.097  -8.489 -17.725  0.00  0.00     0.275 HD
ENDBRANCH   5   6
BRANCH   5  10
HETATM   10  C           1     -28.392  -6.078 -16.155  0.00  0.00     0.053 C 
BRANCH  10  11
HETATM   11  C           1     -27.479  -7.154 -15.583  0.00  0.00     0.115 C 
BRANCH  11  12
HETATM   12  C           1     -26.039  -6.774 -15.825  0.00  0.00     0.172 C 
HETATM   13  O           1     -25.762  -5.671 -16.344  0.00  0.00    -0.648 OA
HETATM   14  O           1     -25.122  -7.563 -15.507  0.00  0.00    -0.648 OA
ENDBRANCH  11  12
ENDBRANCH  10  11
ENDBRANCH   5  10
ENDBRANCH   4   5
BRANCH   3  15
HETATM   15  C           1     -26.898  -6.855 -20.403  0.00  0.00     0.214 C 
BRANCH  15  16
HETATM   16  C           1     -25.553  -6.212 -20.090  0.00  0.00     0.147 C 
HETATM   17  C           1     -24.665  -7.218 -19.370  0.00  0.00     0.042 C 
BRANCH  16  18
HETATM   18  O           1     -24.937  -5.815 -21.286  0.00  0.00    -0.393 OA
HETATM   19  H           1     -25.582  -5.897 -21.967  0.00  0.00     0.210 HD
ENDBRANCH  16  18
ENDBRANCH  15  16
BRANCH  15  20
HETATM   20  C           1     -26.679  -8.114 -21.206  0.00  0.00     0.199 C 
HETATM   21  O           1     -27.637  -8.885 -21.433  0.00  0.00    -0.646 OA
HETATM   22  O           1     -25.541  -8.385 -21.646  0.00  0.00    -0.646 OA
ENDBRANCH  15  20
ENDBRANCH   3  15
TORSDOF 9
ENDMDL
MODEL 2
REMARK VINA RESULT:      -6.3      1.976      5.034
REMARK  9 active torsions:
REMARK  status: ('A' for Active; 'I' for Inactive)
REMARK    1  A    between atoms: N_2  and  C_18 
REMARK    2  A    between atoms: N_9  and  C_10 
REMARK       I    between atoms: N_9  and  C_22 
REMARK    3  A    between atoms: C_10  and  C_17 
REMARK    4  A    between atoms: C_10  and  C_11 
REMARK    5  A    between atoms: C_15  and  C_21 
REMARK    6  A    between atoms: O_16  and  C_17 
REMARK    7  A    between atoms: C_18  and  C_22 
REMARK    8  A    between atoms: C_18  and  C_19 
REMARK    9  A    between atoms: C_19  and  C_21 
ROOT
HETATM    1  O           1     -26.272  -6.119 -15.947  0.00  0.00    -0.271 OA
HETATM    2  H           1     -27.639  -6.286 -18.766  0.00  0.00     0.163 HD
HETATM    3  N           1     -27.571  -6.171 -17.762  0.00  0.00    -0.343 N 
HETATM    4  C           1     -26.352  -6.256 -17.144  0.00  0.00     0.249 C 
ENDROOT
BRANCH   4   5
HETATM    5  C           1     -25.111  -6.521 -17.958  0.00  0.00     0.275 C 
BRANCH   5   6
HETATM    6  N           1     -24.425  -7.751 -17.440  0.00  0.00    -0.066 N 
HETATM    7  H           1     -23.508  -7.871 -17.926  0.00  0.00     0.275 HD
HETATM    8  H           1     -24.264  -7.652 -16.412  0.00  0.00     0.275 HD
HETATM    9  H           1     -25.027  -8.587 -17.620  0.00  0.00     0.275 HD
ENDBRANCH   5   6
BRANCH   5  10
HETATM   10  C           1     -25.495  -6.732 -19.417  0.00  0.00     0.053 C 
BRANCH  10  11
HETATM   11  C           1     -24.429  -7.572 -20.107  0.00  0.00     0.115 C 
BRANCH  11  12
HETATM   12  C           1     -24.978  -8.121 -21.400  0.00  0.00     0.172 C 
HETATM   13  O           1     -26.156  -8.537 -21.453  0.00  0.00    -0.648 OA
HETATM   14  O           1     -24.255  -8.159 -22.420  0.00  0.00    -0.648 OA
ENDBRANCH  11  12
ENDBRANCH  10  11
ENDBRANCH   5  10
ENDBRANCH   4   5
BRANCH   3  15
HETATM   15  C           1     -28.765  -5.916 -16.979  0.00  0.00     0.214 C 
BRANCH  15  16
HETATM   16  C           1     -29.359  -4.573 -17.384  0.00  0.00     0.147 C 
HETATM   17  C           1     -28.468  -3.449 -16.873  0.00  0.00     0.042 C 
BRANCH  16  18
HETATM   18  O           1     -29.445  -4.504 -18.782  0.00  0.00    -0.393 OA
HETATM   19  H           1     -29.107  -3.662 -19.036  0.00  0.00     0.210 HD
ENDBRANCH  16  18
ENDBRANCH  15  16
BRANCH  15  20
HETATM   20  C           1     -29.774  -7.010 -17.231  0.00  0.00     0.199 C 
HETATM   21  O           1     -30.961  -6.717 -17.490  0.00  0.00    -0.646 OA
HETATM   22  O           1     -29.421  -8.207 -17.183  0.00  0.00    -0.646 OA
ENDBRANCH  15  20
ENDBRANCH   3  15
TORSDOF 9
ENDMDL
MODEL 3
REMARK VINA RESULT:      -6.2      2.222      5.557
REMARK  9 active torsions:
REMARK  status: ('A' for Active; 'I' for Inactive)
REMARK    1  A    between atoms: N_2  and  C_18 
REMARK    2  A    between atoms: N_9  and  C_10 
REMARK       I    between atoms: N_9  and  C_22 
REMARK    3  A    between atoms: C_10  and  C_17 
REMARK    4  A    between atoms: C_10  and  C_11 
REMARK    5  A    between atoms: C_15  and  C_21 
REMARK    6  A    between atoms: O_16  and  C_17 
REMARK    7  A    between atoms: C_18  and  C_22 
REMARK    8  A    between atoms: C_18  and  C_19 
REMARK    9  A    between atoms: C_19  and  C_21 
ROOT
HETATM    1  O           1     -27.343  -5.936 -20.352  0.00  0.00    -0.271 OA
HETATM    2  H           1     -26.474  -6.678 -17.431  0.00  0.00     0.163 HD
HETATM    3  N           1     -27.078  -6.350 -18.174  0.00  0.00    -0.343 N 
HETATM    4  C           1     -26.622  -6.327 -19.466  0.00  0.00     0.249 C 
ENDROOT
BRANCH   4   5
HETATM    5  C           1     -25.222  -6.790 -19.780  0.00  0.00     0.275 C 
BRANCH   5   6
HETATM    6  N           1     -24.601  -7.377 -18.547  0.00  0.00    -0.066 N 
HETATM    7  H           1     -25.084  -7.002 -17.700  0.00  0.00     0.275 HD
HETATM    8  H           1     -24.697  -8.418 -18.570  0.00  0.00     0.275 HD
HETATM    9  H           1     -23.587  -7.121 -18.512  0.00  0.00     0.275 HD
ENDBRANCH   5   6
BRANCH   5  10
HETATM   10  C           1     -25.270  -7.848 -20.876  0.00  0.00     0.053 C 
BRANCH  10  11
HETATM   11  C           1     -24.296  -7.475 -21.985  0.00  0.00     0.115 C 
BRANCH  11  12
HETATM   12  C           1     -23.061  -8.336 -21.881  0.00  0.00     0.172 C 
HETATM   13  O           1     -22.615  -8.915 -22.896  0.00  0.00    -0.648 OA
HETATM   14  O           1     -22.484  -8.472 -20.780  0.00  0.00    -0.648 OA
ENDBRANCH  11  12
ENDBRANCH  10  11
ENDBRANCH   5  10
ENDBRANCH   4   5
BRANCH   3  15
HETATM   15  C           1     -28.424  -5.905 -17.872  0.00  0.00     0.214 C 
BRANCH  15  16
HETATM   16  C           1     -29.014  -6.781 -16.776  0.00  0.00     0.147 C 
HETATM   17  C           1     -27.897  -7.272 -15.863  0.00  0.00     0.042 C 
BRANCH  16  18
HETATM   18  O           1     -29.936  -6.036 -16.027  0.00  0.00    -0.393 OA
HETATM   19  H           1     -30.788  -6.215 -16.386  0.00  0.00     0.210 HD
ENDBRANCH  16  18
ENDBRANCH  15  16
BRANCH  15  20
HETATM   20  C           1     -28.385  -4.470 -17.404  0.00  0.00     0.199 C 
HETATM   21  O           1     -27.494  -4.096 -16.611  0.00  0.00    -0.646 OA
HETATM   22  O           1     -29.242  -3.657 -17.810  0.00  0.00    -0.646 OA
ENDBRANCH  15  20
ENDBRANCH   3  15
TORSDOF 9
ENDMDL
MODEL 4
REMARK VINA RESULT:      -6.1      2.634      4.623
REMARK  9 active torsions:
REMARK  status: ('A' for Active; 'I' for Inactive)
REMARK    1  A    between atoms: N_2  and  C_18 
REMARK    2  A    between atoms: N_9  and  C_10 
REMARK       I    between atoms: N_9  and  C_22 
REMARK    3  A    between atoms: C_10  and  C_17 
REMARK    4  A    between atoms: C_10  and  C_11 
REMARK    5  A    between atoms: C_15  and  C_21 
REMARK    6  A    between atoms: O_16  and  C_17 
REMARK    7  A    between atoms: C_18  and  C_22 
REMARK    8  A    between atoms: C_18  and  C_19 
REMARK    9  A    between atoms: C_19  and  C_21 
ROOT
HETATM    1  O           1     -28.250  -6.935 -16.599  0.00  0.00    -0.271 OA
HETATM    2  H           1     -26.357  -5.055 -18.248  0.00  0.00     0.163 HD
HETATM    3  N           1     -26.656  -5.891 -17.763  0.00  0.00    -0.343 N 
HETATM    4  C           1     -27.893  -5.937 -17.176  0.00  0.00     0.249 C 
ENDROOT
BRANCH   4   5
HETATM    5  C           1     -28.808  -4.740 -17.253  0.00  0.00     0.275 C 
BRANCH   5   6
HETATM    6  N           1     -29.289  -4.568 -18.663  0.00  0.00    -0.066 N 
HETATM    7  H           1     -28.480  -4.335 -19.282  0.00  0.00     0.275 HD
HETATM    8  H           1     -29.733  -5.456 -18.991  0.00  0.00     0.275 HD
HETATM    9  H           1     -29.990  -3.793 -18.700  0.00  0.00     0.275 HD
ENDBRANCH   5   6
BRANCH   5  10
HETATM   10  C           1     -30.003  -4.955 -16.333  0.00  0.00     0.053 C 
BRANCH  10  11
HETATM   11  C           1     -31.246  -5.224 -17.169  0.00  0.00     0.115 C 
BRANCH  11  12
HETATM   12  C           1     -32.200  -4.062 -17.043  0.00  0.00     0.172 C 
HETATM   13  O           1     -32.053  -3.051 -17.764  0.00  0.00    -0.648 OA
HETATM   14  O           1     -33.138  -4.109 -16.217  0.00  0.00    -0.648 OA
ENDBRANCH  11  12
ENDBRANCH  10  11
ENDBRANCH   5  10
ENDBRANCH   4   5
BRANCH   3  15
HETATM   15  C           1     -25.776  -7.042 -17.690  0.00  0.00     0.214 C 
BRANCH  15  16
HETATM   16  C           1     -24.861  -7.058 -18.907  0.00  0.00     0.147 C 
HETATM   17  C           1     -25.528  -6.309 -20.053  0.00  0.00     0.042 C 
BRANCH  16  18
HETATM   18  O           1     -23.646  -6.437 -18.586  0.00  0.00    -0.393 OA
HETATM   19  H           1     -23.462  -5.822 -19.276  0.00  0.00     0.210 HD
ENDBRANCH  16  18
ENDBRANCH  15  16
BRANCH  15  20
HETATM   20  C           1     -24.943  -6.957 -16.435  0.00  0.00     0.199 C 
HETATM   21  O           1     -24.303  -7.956 -16.041  0.00  0.00    -0.646 OA
HETATM   22  O           1     -24.891  -5.888 -15.790  0.00  0.00    -0.646 OA
ENDBRANCH  15  20
ENDBRANCH   3  15
TORSDOF 9
ENDMDL
MODEL 5
REMARK VINA RESULT:      -6.0      2.040      3.398
REMARK  9 active torsions:
REMARK  status: ('A' for Active; 'I' for Inactive)
REMARK    1  A    between atoms: N_2  and  C_18 
REMARK    2  A    between atoms: N_9  and  C_10 
REMARK       I    between atoms: N_9  and  C_22 
REMARK    3  A    between atoms: C_10  and  C_17 
REMARK    4  A    between atoms: C_10  and  C_11 
REMARK    5  A    between atoms: C_15  and  C_21 
REMARK    6  A    between atoms: O_16  and  C_17 
REMARK    7  A    between atoms: C_18  and  C_22 
REMARK    8  A    between atoms: C_18  and  C_19 
REMARK    9  A    between atoms: C_19  and  C_21 
ROOT
HETATM    1  O           1     -28.456  -5.107 -19.131  0.00  0.00    -0.271 OA
HETATM    2  H           1     -27.202  -7.747 -17.989  0.00  0.00     0.163 HD
HETATM    3  N           1     -27.239  -6.864 -18.484  0.00  0.00    -0.343 N 
HETATM    4  C           1     -28.412  -6.160 -18.542  0.00  0.00     0.249 C 
ENDROOT
BRANCH   4   5
HETATM    5  C           1     -29.649  -6.699 -17.867  0.00  0.00     0.275 C 
BRANCH   5   6
HETATM    6  N           1     -29.369  -8.071 -17.330  0.00  0.00    -0.066 N 
HETATM    7  H           1     -28.839  -8.623 -18.042  0.00  0.00     0.275 HD
HETATM    8  H           1     -28.799  -7.993 -16.457  0.00  0.00     0.275 HD
HETATM    9  H           1     -30.272  -8.553 -17.117  0.00  0.00     0.275 HD
ENDBRANCH   5   6
BRANCH   5  10
HETATM   10  C           1     -30.046  -5.777 -16.721  0.00  0.00     0.053 C 
BRANCH  10  11
HETATM   11  C           1     -31.417  -5.177 -17.004  0.00  0.00     0.115 C 
BRANCH  11  12
HETATM   12  C           1     -31.262  -3.728 -17.392  0.00  0.00     0.172 C 
HETATM   13  O           1     -32.266  -3.057 -17.720  0.00  0.00    -0.648 OA
HETATM   14  O           1     -30.130  -3.196 -17.385  0.00  0.00    -0.648 OA
ENDBRANCH  11  12
ENDBRANCH  10  11
ENDBRANCH   5  10
ENDBRANCH   4   5
BRANCH   3  15
HETATM   15  C           1     -26.050  -6.346 -19.132  0.00  0.00     0.214 C 
BRANCH  15  16
HETATM   16  C           1     -24.829  -6.658 -18.276  0.00  0.00     0.147 C 
HETATM   17  C           1     -25.271  -6.931 -16.844  0.00  0.00     0.042 C 
BRANCH  16  18
HETATM   18  O           1     -24.178  -7.789 -18.788  0.00  0.00    -0.393 OA
HETATM   19  H           1     -23.385  -7.487 -19.197  0.00  0.00     0.210 HD
ENDBRANCH  16  18
ENDBRANCH  15  16
BRANCH  15  20
HETATM   20  C           1     -25.894  -6.993 -20.486  0.00  0.00     0.199 C 
HETATM   21  O           1     -26.590  -7.986 -20.788  0.00  0.00    -0.646 OA
HETATM   22  O           1     -25.070  -6.534 -21.306  0.00  0.00    -0.646 OA
ENDBRANCH  15  20
ENDBRANCH   3  15
TORSDOF 9
ENDMDL
MODEL 6
REMARK VINA RESULT:      -6.0     12.348     15.017
REMARK  9 active torsions:
REMARK  status: ('A' for Active; 'I' for Inactive)
REMARK    1  A    between atoms: N_2  and  C_18 
REMARK    2  A    between atoms: N_9  and  C_10 
REMARK       I    between atoms: N_9  and  C_22 
REMARK    3  A    between atoms: C_10  and  C_17 
REMARK    4  A    between atoms: C_10  and  C_11 
REMARK    5  A    between atoms: C_15  and  C_21 
REMARK    6  A    between atoms: O_16  and  C_17 
REMARK    7  A    between atoms: C_18  and  C_22 
REMARK    8  A    between atoms: C_18  and  C_19 
REMARK    9  A    between atoms: C_19  and  C_21 
ROOT
HETATM    1  O           1     -21.069  -7.701  -6.244  0.00  0.00    -0.271 OA
HETATM    2  H           1     -22.337  -5.045  -5.160  0.00  0.00     0.163 HD
HETATM    3  N           1     -21.889  -5.668  -5.819  0.00  0.00    -0.343 N 
HETATM    4  C           1     -21.603  -6.958  -5.457  0.00  0.00     0.249 C 
ENDROOT
BRANCH   4   5
HETATM    5  C           1     -21.958  -7.449  -4.076  0.00  0.00     0.275 C 
BRANCH   5   6
HETATM    6  N           1     -21.527  -8.878  -3.927  0.00  0.00    -0.066 N 
HETATM    7  H           1     -20.668  -9.045  -4.498  0.00  0.00     0.275 HD
HETATM    8  H           1     -21.321  -9.077  -2.922  0.00  0.00     0.275 HD
HETATM    9  H           1     -22.293  -9.509  -4.258  0.00  0.00     0.275 HD
ENDBRANCH   5   6
BRANCH   5  10
HETATM   10  C           1     -21.248  -6.595  -3.034  0.00  0.00     0.053 C 
BRANCH  10  11
HETATM   11  C           1     -22.233  -6.206  -1.939  0.00  0.00     0.115 C 
BRANCH  11  12
HETATM   12  C           1     -22.215  -7.251  -0.852  0.00  0.00     0.172 C 
HETATM   13  O           1     -21.246  -8.035  -0.752  0.00  0.00    -0.648 OA
HETATM   14  O           1     -23.170  -7.335  -0.049  0.00  0.00    -0.648 OA
ENDBRANCH  11  12
ENDBRANCH  10  11
ENDBRANCH   5  10
ENDBRANCH   4   5
BRANCH   3  15
HETATM   15  C           1     -21.548  -5.196  -7.147  0.00  0.00     0.214 C 
BRANCH  15  16
HETATM   16  C           1     -22.618  -4.226  -7.630  0.00  0.00     0.147 C 
HETATM   17  C           1     -22.956  -4.526  -9.084  0.00  0.00     0.042 C 
BRANCH  16  18
HETATM   18  O           1     -23.769  -4.370  -6.842  0.00  0.00    -0.393 OA
HETATM   19  H           1     -24.415  -3.781  -7.192  0.00  0.00     0.210 HD
ENDBRANCH  16  18
ENDBRANCH  15  16
BRANCH  15  20
HETATM   20  C           1     -20.213  -4.493  -7.103  0.00  0.00     0.199 C 
HETATM   21  O           1     -19.789  -3.894  -8.115  0.00  0.00    -0.646 OA
HETATM   22  O           1     -19.534  -4.508  -6.054  0.00  0.00    -0.646 OA
ENDBRANCH  15  20
ENDBRANCH   3  15
TORSDOF 9
ENDMDL
MODEL 7
REMARK VINA RESULT:      -5.9     18.911     20.713
REMARK  9 active torsions:
REMARK  status: ('A' for Active; 'I' for Inactive)
REMARK    1  A    between atoms: N_2  and  C_18 
REMARK    2  A    between atoms: N_9  and  C_10 
REMARK       I    between atoms: N_9  and  C_22 
REMARK    3  A    between atoms: C_10  and  C_17 
REMARK    4  A    between atoms: C_10  and  C_11 
REMARK    5  A    between atoms: C_15  and  C_21 
REMARK    6  A    between atoms: O_16  and  C_17 
REMARK    7  A    between atoms: C_18  and  C_22 
REMARK    8  A    between atoms: C_18  and  C_19 
REMARK    9  A    between atoms: C_19  and  C_21 
ROOT
HETATM    1  O           1     -11.155   5.525 -18.759  0.00  0.00    -0.271 OA
HETATM    2  H           1     -10.847   7.026 -21.496  0.00  0.00     0.163 HD
HETATM    3  N           1     -10.929   6.913 -20.494  0.00  0.00    -0.343 N 
HETATM    4  C           1     -11.058   5.660 -19.954  0.00  0.00     0.249 C 
ENDROOT
BRANCH   4   5
HETATM    5  C           1     -11.078   4.450 -20.855  0.00  0.00     0.275 C 
BRANCH   5   6
HETATM    6  N           1     -11.130   3.206 -20.019  0.00  0.00    -0.066 N 
HETATM    7  H           1     -11.868   2.566 -20.390  0.00  0.00     0.275 HD
HETATM    8  H           1     -10.203   2.724 -20.053  0.00  0.00     0.275 HD
HETATM    9  H           1     -11.355   3.460 -19.030  0.00  0.00     0.275 HD
ENDBRANCH   5   6
BRANCH   5  10
HETATM   10  C           1     -12.305   4.507 -21.756  0.00  0.00     0.053 C 
BRANCH  10  11
HETATM   11  C           1     -13.505   3.931 -21.017  0.00  0.00     0.115 C 
BRANCH  11  12
HETATM   12  C           1     -14.510   5.026 -20.757  0.00  0.00     0.172 C 
HETATM   13  O           1     -14.571   5.565 -19.630  0.00  0.00    -0.648 OA
HETATM   14  O           1     -15.282   5.395 -21.668  0.00  0.00    -0.648 OA
ENDBRANCH  11  12
ENDBRANCH  10  11
ENDBRANCH   5  10
ENDBRANCH   4   5
BRANCH   3  15
HETATM   15  C           1     -10.909   8.076 -19.628  0.00  0.00     0.214 C 
BRANCH  15  16
HETATM   16  C           1      -9.952   9.115 -20.197  0.00  0.00     0.147 C 
HETATM   17  C           1      -8.981   8.438 -21.156  0.00  0.00     0.042 C 
BRANCH  16  18
HETATM   18  O           1     -10.682  10.095 -20.885  0.00  0.00    -0.393 OA
HETATM   19  H           1     -11.055   9.677 -21.642  0.00  0.00     0.210 HD
ENDBRANCH  16  18
ENDBRANCH  15  16
BRANCH  15  20
HETATM   20  C           1     -12.297   8.663 -19.544  0.00  0.00     0.199 C 
HETATM   21  O           1     -13.098   8.509 -20.491  0.00  0.00    -0.646 OA
HETATM   22  O           1     -12.645   9.300 -18.527  0.00  0.00    -0.646 OA
ENDBRANCH  15  20
ENDBRANCH   3  15
TORSDOF 9
ENDMDL
MODEL 8
REMARK VINA RESULT:      -5.9     10.452     13.623
REMARK  9 active torsions:
REMARK  status: ('A' for Active; 'I' for Inactive)
REMARK    1  A    between atoms: N_2  and  C_18 
REMARK    2  A    between atoms: N_9  and  C_10 
REMARK       I    between atoms: N_9  and  C_22 
REMARK    3  A    between atoms: C_10  and  C_17 
REMARK    4  A    between atoms: C_10  and  C_11 
REMARK    5  A    between atoms: C_15  and  C_21 
REMARK    6  A    between atoms: O_16  and  C_17 
REMARK    7  A    between atoms: C_18  and  C_22 
REMARK    8  A    between atoms: C_18  and  C_19 
REMARK    9  A    between atoms: C_19  and  C_21 
ROOT
HETATM    1  O           1     -19.696  -4.417  -6.609  0.00  0.00    -0.271 OA
HETATM    2  H           1     -22.261  -6.191  -6.947  0.00  0.00     0.163 HD
HETATM    3  N           1     -21.395  -5.864  -6.537  0.00  0.00    -0.343 N 
HETATM    4  C           1     -20.729  -4.807  -7.098  0.00  0.00     0.249 C 
ENDROOT
BRANCH   4   5
HETATM    5  C           1     -21.286  -4.130  -8.325  0.00  0.00     0.275 C 
BRANCH   5   6
HETATM    6  N           1     -20.342  -4.321  -9.474  0.00  0.00    -0.066 N 
HETATM    7  H           1     -20.856  -4.190 -10.374  0.00  0.00     0.275 HD
HETATM    8  H           1     -19.569  -3.620  -9.410  0.00  0.00     0.275 HD
HETATM    9  H           1     -19.941  -5.286  -9.439  0.00  0.00     0.275 HD
ENDBRANCH   5   6
BRANCH   5  10
HETATM   10  C           1     -22.638  -4.740  -8.673  0.00  0.00     0.053 C 
BRANCH  10  11
HETATM   11  C           1     -23.634  -3.628  -8.973  0.00  0.00     0.115 C 
BRANCH  11  12
HETATM   12  C           1     -23.942  -3.613 -10.450  0.00  0.00     0.172 C 
HETATM   13  O           1     -25.052  -3.203 -10.854  0.00  0.00    -0.648 OA
HETATM   14  O           1     -23.086  -4.011 -11.271  0.00  0.00    -0.648 OA
ENDBRANCH  11  12
ENDBRANCH  10  11
ENDBRANCH   5  10
ENDBRANCH   4   5
BRANCH   3  15
HETATM   15  C           1     -20.860  -6.515  -5.357  0.00  0.00     0.214 C 
BRANCH  15  16
HETATM   16  C           1     -21.987  -6.774  -4.366  0.00  0.00     0.147 C 
HETATM   17  C           1     -21.611  -6.195  -3.008  0.00  0.00     0.042 C 
BRANCH  16  18
HETATM   18  O           1     -23.162  -6.163  -4.826  0.00  0.00    -0.393 OA
HETATM   19  H           1     -23.883  -6.632  -4.441  0.00  0.00     0.210 HD
ENDBRANCH  16  18
ENDBRANCH  15  16
BRANCH  15  20
HETATM   20  C           1     -20.225  -7.827  -5.752  0.00  0.00     0.199 C 
HETATM   21  O           1     -19.113  -7.836  -6.322  0.00  0.00    -0.646 OA
HETATM   22  O           1     -20.811  -8.903  -5.506  0.00  0.00    -0.646 OA
ENDBRANCH  15  20
ENDBRANCH   3  15
TORSDOF 9
ENDMDL
MODEL 9
REMARK VINA RESULT:      -5.8      2.343      3.992
REMARK  9 active torsions:
REMARK  status: ('A' for Active; 'I' for Inactive)
REMARK    1  A    between atoms: N_2  and  C_18 
REMARK    2  A    between atoms: N_9  and  C_10 
REMARK       I    between atoms: N_9  and  C_22 
REMARK    3  A    between atoms: C_10  and  C_17 
REMARK    4  A    between atoms: C_10  and  C_11 
REMARK    5  A    between atoms: C_15  and  C_21 
REMARK    6  A    between atoms: O_16  and  C_17 
REMARK    7  A    between atoms: C_18  and  C_22 
REMARK    8  A    between atoms: C_18  and  C_19 
REMARK    9  A    between atoms: C_19  and  C_21 
ROOT
HETATM    1  O           1     -29.106  -7.897 -16.962  0.00  0.00    -0.271 OA
HETATM    2  H           1     -27.932  -5.271 -18.214  0.00  0.00     0.163 HD
HETATM    3  N           1     -27.929  -6.202 -17.815  0.00  0.00    -0.343 N 
HETATM    4  C           1     -29.108  -6.788 -17.437  0.00  0.00     0.249 C 
ENDROOT
BRANCH   4   5
HETATM    5  C           1     -30.410  -6.047 -17.616  0.00  0.00     0.275 C 
BRANCH   5   6
HETATM    6  N           1     -31.552  -6.942 -17.235  0.00  0.00    -0.066 N 
HETATM    7  H           1     -31.393  -7.897 -17.629  0.00  0.00     0.275 HD
HETATM    8  H           1     -31.615  -7.001 -16.194  0.00  0.00     0.275 HD
HETATM    9  H           1     -32.443  -6.551 -17.618  0.00  0.00     0.275 HD
ENDBRANCH   5   6
BRANCH   5  10
HETATM   10  C           1     -30.417  -4.810 -16.727  0.00  0.00     0.053 C 
BRANCH  10  11
HETATM   11  C           1     -30.363  -3.560 -17.595  0.00  0.00     0.115 C 
BRANCH  11  12
HETATM   12  C           1     -29.173  -2.722 -17.197  0.00  0.00     0.172 C 
HETATM   13  O           1     -29.243  -1.474 -17.244  0.00  0.00    -0.648 OA
HETATM   14  O           1     -28.117  -3.275 -16.820  0.00  0.00    -0.648 OA
ENDBRANCH  11  12
ENDBRANCH  10  11
ENDBRANCH   5  10
ENDBRANCH   4   5
BRANCH   3  15
HETATM   15  C           1     -26.678  -6.914 -17.643  0.00  0.00     0.214 C 
BRANCH  15  16
HETATM   16  C           1     -25.727  -6.548 -18.775  0.00  0.00     0.147 C 
HETATM   17  C           1     -24.367  -7.184 -18.520  0.00  0.00     0.042 C 
BRANCH  16  18
HETATM   18  O           1     -26.244  -7.020 -19.990  0.00  0.00    -0.393 OA
HETATM   19  H           1     -25.886  -7.880 -20.124  0.00  0.00     0.210 HD
ENDBRANCH  16  18
ENDBRANCH  15  16
BRANCH  15  20
HETATM   20  C           1     -26.060  -6.531 -16.321  0.00  0.00     0.199 C 
HETATM   21  O           1     -25.682  -5.356 -16.125  0.00  0.00    -0.646 OA
HETATM   22  O           1     -25.927  -7.388 -15.422  0.00  0.00    -0.646 OA
ENDBRANCH  15  20
ENDBRANCH   3  15
TORSDOF 9
ENDMDL
