MODEL 1
REMARK VINA RESULT:      -7.1      0.000      0.000
REMARK  7 active torsions:
REMARK  status: ('A' for Active; 'I' for Inactive)
REMARK       I    between atoms: C_1  and  N_17 
REMARK    1  A    between atoms: C_1  and  C_2 
REMARK       I    between atoms: N_3  and  C_15 
REMARK    2  A    between atoms: C_8  and  N_9 
REMARK    3  A    between atoms: C_8  and  C_10 
REMARK       I    between atoms: N_9  and  C_15 
REMARK    4  A    between atoms: C_10  and  C_11 
REMARK    5  A    between atoms: C_11  and  C_20 
REMARK    6  A    between atoms: N_17  and  C_20 
REMARK    7  A    between atoms: C_20  and  C_21 
ROOT
HETATM    1  C           1     -35.809  -0.888 -13.199  0.00  0.00     0.185 C 
ENDROOT
BRANCH   1   2
HETATM    2  C           1     -36.977  -0.242 -12.469  0.00  0.00     0.038 C 
BRANCH   2   3
HETATM    3  C           1     -36.930  -0.626 -10.995  0.00  0.00     0.023 C 
BRANCH   3   4
HETATM    4  C           1     -36.867   0.635 -10.143  0.00  0.00     0.138 C 
BRANCH   4   5
HETATM    5  N           1     -36.636   0.267  -8.739  0.00  0.00    -0.227 N 
HETATM    6  C           1     -36.971   1.063  -7.813  0.00  0.00     0.665 C 
HETATM    7  N           1     -36.766   0.738  -6.571  0.00  0.00    -0.235 N 
HETATM    8  N           1     -37.505   2.175  -8.097  0.00  0.00    -0.235 N 
HETATM    9  H           1     -36.326  -0.181  -6.337  0.00  0.00     0.174 HD
HETATM   10  H           1     -37.043   1.395  -5.807  0.00  0.00     0.174 HD
HETATM   11  H           1     -37.670   2.438  -9.099  0.00  0.00     0.174 HD
HETATM   12  H           1     -37.783   2.835  -7.328  0.00  0.00     0.174 HD
HETATM   13  H           1     -36.193  -0.655  -8.504  0.00  0.00     0.177 HD
ENDBRANCH   4   5
ENDBRANCH   3   4
ENDBRANCH   2   3
ENDBRANCH   1   2
BRANCH   1  14
HETATM   14  N           1     -34.867  -1.421 -12.234  0.00  0.00    -0.345 N 
HETATM   15  C           1     -34.206  -2.591 -12.497  0.00  0.00     0.251 C 
HETATM   16  O           1     -34.407  -3.178 -13.533  0.00  0.00    -0.271 OA
HETATM   17  H           1     -34.700  -0.929 -11.367  0.00  0.00     0.163 HD
BRANCH  15  18
HETATM   18  C           1     -33.227  -3.146 -11.492  0.00  0.00     0.311 C 
HETATM   19  N           1     -33.906  -3.506 -10.250  0.00  0.00     0.097 N 
HETATM   20  H           1     -33.235  -3.618  -9.491  0.00  0.00     0.317 HD
HETATM   21  C           1     -34.546  -4.789 -10.527  0.00  0.00     0.271 C 
HETATM   22  C           1     -33.511  -5.540 -11.347  0.00  0.00     0.033 C 
HETATM   23  C           1     -32.641  -4.461 -11.977  0.00  0.00     0.047 C 
ENDBRANCH  15  18
ENDBRANCH   1  14
BRANCH   1  24
HETATM   24  C           1     -35.119   0.145 -14.057  0.00  0.00     0.196 C 
HETATM   25  O           1     -34.841  -0.116 -15.247  0.00  0.00    -0.646 OA
HETATM   26  O           1     -34.824   1.260 -13.575  0.00  0.00    -0.646 OA
ENDBRANCH   1  24
TORSDOF 7
ENDMDL
MODEL 2
REMARK VINA RESULT:      -7.0      2.726      5.881
REMARK  7 active torsions:
REMARK  status: ('A' for Active; 'I' for Inactive)
REMARK       I    between atoms: C_1  and  N_17 
REMARK    1  A    between atoms: C_1  and  C_2 
REMARK       I    between atoms: N_3  and  C_15 
REMARK    2  A    between atoms: C_8  and  N_9 
REMARK    3  A    between atoms: C_8  and  C_10 
REMARK       I    between atoms: N_9  and  C_15 
REMARK    4  A    between atoms: C_10  and  C_11 
REMARK    5  A    between atoms: C_11  and  C_20 
REMARK    6  A    between atoms: N_17  and  C_20 
REMARK    7  A    between atoms: C_20  and  C_21 
ROOT
HETATM    1  C           1     -36.628  -0.952 -11.199  0.00  0.00     0.185 C 
ENDROOT
BRANCH   1   2
HETATM    2  C           1     -35.599  -1.975 -10.737  0.00  0.00     0.038 C 
BRANCH   2   3
HETATM    3  C           1     -34.284  -1.738 -11.468  0.00  0.00     0.023 C 
BRANCH   3   4
HETATM    4  C           1     -33.222  -2.684 -10.924  0.00  0.00     0.138 C 
BRANCH   4   5
HETATM    5  N           1     -33.793  -4.031 -10.779  0.00  0.00    -0.227 N 
HETATM    6  C           1     -33.295  -5.002 -11.422  0.00  0.00     0.665 C 
HETATM    7  N           1     -33.801  -6.192 -11.294  0.00  0.00    -0.235 N 
HETATM    8  N           1     -32.306  -4.812 -12.189  0.00  0.00    -0.235 N 
HETATM    9  H           1     -34.617  -6.349 -10.661  0.00  0.00     0.174 HD
HETATM   10  H           1     -33.389  -6.994 -11.825  0.00  0.00     0.174 HD
HETATM   11  H           1     -31.898  -3.851 -12.292  0.00  0.00     0.174 HD
HETATM   12  H           1     -31.893  -5.618 -12.722  0.00  0.00     0.174 HD
HETATM   13  H           1     -34.614  -4.187 -10.144  0.00  0.00     0.177 HD
ENDBRANCH   4   5
ENDBRANCH   3   4
ENDBRANCH   2   3
ENDBRANCH   1   2
BRANCH   1  14
HETATM   14  N           1     -36.123  -0.245 -12.360  0.00  0.00    -0.345 N 
HETATM   15  C           1     -36.873  -0.185 -13.504  0.00  0.00     0.251 C 
HETATM   16  O           1     -37.955  -0.720 -13.546  0.00  0.00    -0.271 OA
HETATM   17  H           1     -35.217   0.202 -12.324  0.00  0.00     0.163 HD
BRANCH  15  18
HETATM   18  C           1     -36.346   0.551 -14.712  0.00  0.00     0.311 C 
HETATM   19  N           1     -35.047   0.020 -15.117  0.00  0.00     0.097 N 
HETATM   20  H           1     -34.570   0.670 -15.741  0.00  0.00     0.317 HD
HETATM   21  C           1     -35.352  -1.213 -15.840  0.00  0.00     0.271 C 
HETATM   22  C           1     -36.579  -0.858 -16.661  0.00  0.00     0.033 C 
HETATM   23  C           1     -37.230   0.305 -15.923  0.00  0.00     0.047 C 
ENDBRANCH  15  18
ENDBRANCH   1  14
BRANCH   1  24
HETATM   24  C           1     -36.893   0.033 -10.087  0.00  0.00     0.196 C 
HETATM   25  O           1     -37.793   0.890 -10.213  0.00  0.00    -0.646 OA
HETATM   26  O           1     -36.211  -0.010  -9.040  0.00  0.00    -0.646 OA
ENDBRANCH   1  24
TORSDOF 7
ENDMDL
MODEL 3
REMARK VINA RESULT:      -6.8      2.757      4.742
REMARK  7 active torsions:
REMARK  status: ('A' for Active; 'I' for Inactive)
REMARK       I    between atoms: C_1  and  N_17 
REMARK    1  A    between atoms: C_1  and  C_2 
REMARK       I    between atoms: N_3  and  C_15 
REMARK    2  A    between atoms: C_8  and  N_9 
REMARK    3  A    between atoms: C_8  and  C_10 
REMARK       I    between atoms: N_9  and  C_15 
REMARK    4  A    between atoms: C_10  and  C_11 
REMARK    5  A    between atoms: C_11  and  C_20 
REMARK    6  A    between atoms: N_17  and  C_20 
REMARK    7  A    between atoms: C_20  and  C_21 
ROOT
HETATM    1  C           1     -36.755  -0.204 -10.991  0.00  0.00     0.185 C 
ENDROOT
BRANCH   1   2
HETATM    2  C           1     -38.067  -0.534 -11.689  0.00  0.00     0.038 C 
BRANCH   2   3
HETATM    3  C           1     -38.047   0.034 -13.103  0.00  0.00     0.023 C 
BRANCH   3   4
HETATM    4  C           1     -36.606   0.144 -13.585  0.00  0.00     0.138 C 
BRANCH   4   5
HETATM    5  N           1     -36.455  -0.590 -14.850  0.00  0.00    -0.227 N 
HETATM    6  C           1     -36.386   0.043 -15.945  0.00  0.00     0.665 C 
HETATM    7  N           1     -36.253  -0.607 -17.062  0.00  0.00    -0.235 N 
HETATM    8  N           1     -36.447   1.307 -15.949  0.00  0.00    -0.235 N 
HETATM    9  H           1     -36.202  -1.650 -17.059  0.00  0.00     0.174 HD
HETATM   10  H           1     -36.196  -0.084 -17.966  0.00  0.00     0.174 HD
HETATM   11  H           1     -36.555   1.832 -15.046  0.00  0.00     0.174 HD
HETATM   12  H           1     -36.390   1.832 -16.858  0.00  0.00     0.174 HD
HETATM   13  H           1     -36.405  -1.638 -14.845  0.00  0.00     0.177 HD
ENDBRANCH   4   5
ENDBRANCH   3   4
ENDBRANCH   2   3
ENDBRANCH   1   2
BRANCH   1  14
HETATM   14  N           1     -36.115  -1.430 -10.555  0.00  0.00    -0.345 N 
HETATM   15  C           1     -34.831  -1.706 -10.941  0.00  0.00     0.251 C 
HETATM   16  O           1     -34.231  -0.928 -11.644  0.00  0.00    -0.271 OA
HETATM   17  H           1     -36.618  -2.081  -9.966  0.00  0.00     0.163 HD
BRANCH  15  18
HETATM   18  C           1     -34.165  -2.982 -10.488  0.00  0.00     0.311 C 
HETATM   19  N           1     -35.003  -4.140 -10.792  0.00  0.00     0.097 N 
HETATM   20  H           1     -34.699  -4.954 -10.259  0.00  0.00     0.317 HD
HETATM   21  C           1     -34.802  -4.389 -12.216  0.00  0.00     0.271 C 
HETATM   22  C           1     -33.314  -4.160 -12.418  0.00  0.00     0.033 C 
HETATM   23  C           1     -32.894  -3.239 -11.280  0.00  0.00     0.047 C 
ENDBRANCH  15  18
ENDBRANCH   1  14
BRANCH   1  24
HETATM   24  C           1     -37.030   0.673  -9.793  0.00  0.00     0.196 C 
HETATM   25  O           1     -36.239   0.674  -8.825  0.00  0.00    -0.646 OA
HETATM   26  O           1     -38.049   1.397  -9.770  0.00  0.00    -0.646 OA
ENDBRANCH   1  24
TORSDOF 7
ENDMDL
MODEL 4
REMARK VINA RESULT:      -6.1     14.609     17.015
REMARK  7 active torsions:
REMARK  status: ('A' for Active; 'I' for Inactive)
REMARK       I    between atoms: C_1  and  N_17 
REMARK    1  A    between atoms: C_1  and  C_2 
REMARK       I    between atoms: N_3  and  C_15 
REMARK    2  A    between atoms: C_8  and  N_9 
REMARK    3  A    between atoms: C_8  and  C_10 
REMARK       I    between atoms: N_9  and  C_15 
REMARK    4  A    between atoms: C_10  and  C_11 
REMARK    5  A    between atoms: C_11  and  C_20 
REMARK    6  A    between atoms: N_17  and  C_20 
REMARK    7  A    between atoms: C_20  and  C_21 
ROOT
HETATM    1  C           1     -20.552  -6.781  -5.425  0.00  0.00     0.185 C 
ENDROOT
BRANCH   1   2
HETATM    2  C           1     -20.367  -6.096  -6.772  0.00  0.00     0.038 C 
BRANCH   2   3
HETATM    3  C           1     -19.911  -4.659  -6.552  0.00  0.00     0.023 C 
BRANCH   3   4
HETATM    4  C           1     -20.553  -3.756  -7.597  0.00  0.00     0.138 C 
BRANCH   4   5
HETATM    5  N           1     -22.014  -3.776  -7.432  0.00  0.00    -0.227 N 
HETATM    6  C           1     -22.762  -3.979  -8.433  0.00  0.00     0.665 C 
HETATM    7  N           1     -24.053  -3.995  -8.286  0.00  0.00    -0.235 N 
HETATM    8  N           1     -22.251  -4.165  -9.576  0.00  0.00    -0.235 N 
HETATM    9  H           1     -24.474  -3.842  -7.343  0.00  0.00     0.174 HD
HETATM   10  H           1     -24.670  -4.164  -9.114  0.00  0.00     0.174 HD
HETATM   11  H           1     -21.208  -4.151  -9.695  0.00  0.00     0.174 HD
HETATM   12  H           1     -22.872  -4.333 -10.407  0.00  0.00     0.174 HD
HETATM   13  H           1     -22.436  -3.621  -6.483  0.00  0.00     0.177 HD
ENDBRANCH   4   5
ENDBRANCH   3   4
ENDBRANCH   2   3
ENDBRANCH   1   2
BRANCH   1  14
HETATM   14  N           1     -20.729  -8.206  -5.627  0.00  0.00    -0.345 N 
HETATM   15  C           1     -20.153  -9.096  -4.760  0.00  0.00     0.251 C 
HETATM   16  O           1     -19.497  -8.694  -3.828  0.00  0.00    -0.271 OA
HETATM   17  H           1     -21.278  -8.543  -6.407  0.00  0.00     0.163 HD
BRANCH  15  18
HETATM   18  C           1     -20.336 -10.579  -4.970  0.00  0.00     0.311 C 
HETATM   19  N           1     -19.895 -10.972  -6.306  0.00  0.00     0.097 N 
HETATM   20  H           1     -20.260 -11.893  -6.550  0.00  0.00     0.317 HD
HETATM   21  C           1     -18.439 -11.034  -6.221  0.00  0.00     0.271 C 
HETATM   22  C           1     -18.181 -11.666  -4.864  0.00  0.00     0.033 C 
HETATM   23  C           1     -19.430 -11.372  -4.043  0.00  0.00     0.047 C 
ENDBRANCH  15  18
ENDBRANCH   1  14
BRANCH   1  24
HETATM   24  C           1     -21.771  -6.216  -4.737  0.00  0.00     0.196 C 
HETATM   25  O           1     -22.809  -5.986  -5.394  0.00  0.00    -0.646 OA
HETATM   26  O           1     -21.741  -5.978  -3.510  0.00  0.00    -0.646 OA
ENDBRANCH   1  24
TORSDOF 7
ENDMDL
MODEL 5
REMARK VINA RESULT:      -6.0     14.912     17.356
REMARK  7 active torsions:
REMARK  status: ('A' for Active; 'I' for Inactive)
REMARK       I    between atoms: C_1  and  N_17 
REMARK    1  A    between atoms: C_1  and  C_2 
REMARK       I    between atoms: N_3  and  C_15 
REMARK    2  A    between atoms: C_8  and  N_9 
REMARK    3  A    between atoms: C_8  and  C_10 
REMARK       I    between atoms: N_9  and  C_15 
REMARK    4  A    between atoms: C_10  and  C_11 
REMARK    5  A    between atoms: C_11  and  C_20 
REMARK    6  A    between atoms: N_17  and  C_20 
REMARK    7  A    between atoms: C_20  and  C_21 
ROOT
HETATM    1  C           1     -20.902  -7.929  -4.156  0.00  0.00     0.185 C 
ENDROOT
BRANCH   1   2
HETATM    2  C           1     -21.085  -6.432  -4.364  0.00  0.00     0.038 C 
BRANCH   2   3
HETATM    3  C           1     -22.234  -6.191  -5.335  0.00  0.00     0.023 C 
BRANCH   3   4
HETATM    4  C           1     -21.791  -5.211  -6.414  0.00  0.00     0.138 C 
BRANCH   4   5
HETATM    5  N           1     -22.959  -4.474  -6.917  0.00  0.00    -0.227 N 
HETATM    6  C           1     -23.093  -4.272  -8.159  0.00  0.00     0.665 C 
HETATM    7  N           1     -24.126  -3.620  -8.603  0.00  0.00    -0.235 N 
HETATM    8  N           1     -22.220  -4.705  -8.968  0.00  0.00    -0.235 N 
HETATM    9  H           1     -24.846  -3.263  -7.936  0.00  0.00     0.174 HD
HETATM   10  H           1     -24.236  -3.453  -9.630  0.00  0.00     0.174 HD
HETATM   11  H           1     -21.386  -5.231  -8.609  0.00  0.00     0.174 HD
HETATM   12  H           1     -22.332  -4.536  -9.999  0.00  0.00     0.174 HD
HETATM   13  H           1     -23.682  -4.116  -6.245  0.00  0.00     0.177 HD
ENDBRANCH   4   5
ENDBRANCH   3   4
ENDBRANCH   2   3
ENDBRANCH   1   2
BRANCH   1  14
HETATM   14  N           1     -20.840  -8.217  -2.736  0.00  0.00    -0.345 N 
HETATM   15  C           1     -21.538  -9.278  -2.223  0.00  0.00     0.251 C 
HETATM   16  O           1     -22.204  -9.973  -2.952  0.00  0.00    -0.271 OA
HETATM   17  H           1     -20.283  -7.635  -2.125  0.00  0.00     0.163 HD
BRANCH  15  18
HETATM   18  C           1     -21.475  -9.577  -0.745  0.00  0.00     0.311 C 
HETATM   19  N           1     -21.086  -8.389   0.009  0.00  0.00     0.097 N 
HETATM   20  H           1     -20.780  -8.642   0.949  0.00  0.00     0.317 HD
HETATM   21  C           1     -22.299  -7.581   0.094  0.00  0.00     0.271 C 
HETATM   22  C           1     -23.397  -8.600   0.344  0.00  0.00     0.033 C 
HETATM   23  C           1     -22.854  -9.914  -0.202  0.00  0.00     0.047 C 
ENDBRANCH  15  18
ENDBRANCH   1  14
BRANCH   1  24
HETATM   24  C           1     -19.619  -8.376  -4.815  0.00  0.00     0.196 C 
HETATM   25  O           1     -19.431  -8.152  -6.030  0.00  0.00    -0.646 OA
HETATM   26  O           1     -18.746  -8.969  -4.144  0.00  0.00    -0.646 OA
ENDBRANCH   1  24
TORSDOF 7
ENDMDL
MODEL 6
REMARK VINA RESULT:      -5.9     15.069     17.242
REMARK  7 active torsions:
REMARK  status: ('A' for Active; 'I' for Inactive)
REMARK       I    between atoms: C_1  and  N_17 
REMARK    1  A    between atoms: C_1  and  C_2 
REMARK       I    between atoms: N_3  and  C_15 
REMARK    2  A    between atoms: C_8  and  N_9 
REMARK    3  A    between atoms: C_8  and  C_10 
REMARK       I    between atoms: N_9  and  C_15 
REMARK    4  A    between atoms: C_10  and  C_11 
REMARK    5  A    between atoms: C_11  and  C_20 
REMARK    6  A    between atoms: N_17  and  C_20 
REMARK    7  A    between atoms: C_20  and  C_21 
ROOT
HETATM    1  C           1     -21.251  -6.385  -4.346  0.00  0.00     0.185 C 
ENDROOT
BRANCH   1   2
HETATM    2  C           1     -22.415  -6.531  -3.376  0.00  0.00     0.038 C 
BRANCH   2   3
HETATM    3  C           1     -21.999  -6.021  -2.002  0.00  0.00     0.023 C 
BRANCH   3   4
HETATM    4  C           1     -22.298  -7.085  -0.953  0.00  0.00     0.138 C 
BRANCH   4   5
HETATM    5  N           1     -21.678  -8.356  -1.353  0.00  0.00    -0.227 N 
HETATM    6  C           1     -21.161  -9.111  -0.477  0.00  0.00     0.665 C 
HETATM    7  N           1     -20.612 -10.234  -0.831  0.00  0.00    -0.235 N 
HETATM    8  N           1     -21.178  -8.770   0.742  0.00  0.00    -0.235 N 
HETATM    9  H           1     -20.598 -10.516  -1.837  0.00  0.00     0.174 HD
HETATM   10  H           1     -20.185 -10.857  -0.108  0.00  0.00     0.174 HD
HETATM   11  H           1     -21.621  -7.862   1.028  0.00  0.00     0.174 HD
HETATM   12  H           1     -20.749  -9.397   1.468  0.00  0.00     0.174 HD
HETATM   13  H           1     -21.663  -8.637  -2.364  0.00  0.00     0.177 HD
ENDBRANCH   4   5
ENDBRANCH   3   4
ENDBRANCH   2   3
ENDBRANCH   1   2
BRANCH   1  14
HETATM   14  N           1     -21.621  -5.478  -5.415  0.00  0.00    -0.345 N 
HETATM   15  C           1     -20.694  -4.610  -5.927  0.00  0.00     0.251 C 
HETATM   16  O           1     -19.569  -4.600  -5.488  0.00  0.00    -0.271 OA
HETATM   17  H           1     -22.563  -5.487  -5.782  0.00  0.00     0.163 HD
BRANCH  15  18
HETATM   18  C           1     -21.079  -3.666  -7.040  0.00  0.00     0.311 C 
HETATM   19  N           1     -20.082  -3.687  -8.106  0.00  0.00     0.097 N 
HETATM   20  H           1     -20.187  -2.875  -8.714  0.00  0.00     0.317 HD
HETATM   21  C           1     -20.366  -4.902  -8.865  0.00  0.00     0.271 C 
HETATM   22  C           1     -21.883  -4.947  -8.923  0.00  0.00     0.033 C 
HETATM   23  C           1     -22.352  -4.131  -7.726  0.00  0.00     0.047 C 
ENDBRANCH  15  18
ENDBRANCH   1  14
BRANCH   1  24
HETATM   24  C           1     -20.910  -7.735  -4.927  0.00  0.00     0.196 C 
HETATM   25  O           1     -20.341  -8.594  -4.220  0.00  0.00    -0.646 OA
HETATM   26  O           1     -21.196  -7.993  -6.117  0.00  0.00    -0.646 OA
ENDBRANCH   1  24
TORSDOF 7
ENDMDL
MODEL 7
REMARK VINA RESULT:      -5.8     15.235     17.643
REMARK  7 active torsions:
REMARK  status: ('A' for Active; 'I' for Inactive)
REMARK       I    between atoms: C_1  and  N_17 
REMARK    1  A    between atoms: C_1  and  C_2 
REMARK       I    between atoms: N_3  and  C_15 
REMARK    2  A    between atoms: C_8  and  N_9 
REMARK    3  A    between atoms: C_8  and  C_10 
REMARK       I    between atoms: N_9  and  C_15 
REMARK    4  A    between atoms: C_10  and  C_11 
REMARK    5  A    between atoms: C_11  and  C_20 
REMARK    6  A    between atoms: N_17  and  C_20 
REMARK    7  A    between atoms: C_20  and  C_21 
ROOT
HETATM    1  C           1     -21.400  -7.769  -2.960  0.00  0.00     0.185 C 
ENDROOT
BRANCH   1   2
HETATM    2  C           1     -21.800  -7.298  -4.351  0.00  0.00     0.038 C 
BRANCH   2   3
HETATM    3  C           1     -20.559  -6.843  -5.110  0.00  0.00     0.023 C 
BRANCH   3   4
HETATM    4  C           1     -20.767  -5.423  -5.619  0.00  0.00     0.138 C 
BRANCH   4   5
HETATM    5  N           1     -22.139  -5.279  -6.126  0.00  0.00    -0.227 N 
HETATM    6  C           1     -22.397  -4.420  -7.019  0.00  0.00     0.665 C 
HETATM    7  N           1     -23.610  -4.293  -7.467  0.00  0.00    -0.235 N 
HETATM    8  N           1     -21.473  -3.684  -7.476  0.00  0.00    -0.235 N 
HETATM    9  H           1     -24.373  -4.900  -7.091  0.00  0.00     0.174 HD
HETATM   10  H           1     -23.823  -3.583  -8.205  0.00  0.00     0.174 HD
HETATM   11  H           1     -20.493  -3.787  -7.114  0.00  0.00     0.174 HD
HETATM   12  H           1     -21.687  -2.971  -8.217  0.00  0.00     0.174 HD
HETATM   13  H           1     -22.904  -5.889  -5.747  0.00  0.00     0.177 HD
ENDBRANCH   4   5
ENDBRANCH   3   4
ENDBRANCH   2   3
ENDBRANCH   1   2
BRANCH   1  14
HETATM   14  N           1     -21.936  -9.096  -2.724  0.00  0.00    -0.345 N 
HETATM   15  C           1     -21.126 -10.083  -2.233  0.00  0.00     0.251 C 
HETATM   16  O           1     -19.965  -9.850  -1.995  0.00  0.00    -0.271 OA
HETATM   17  H           1     -22.908  -9.291  -2.924  0.00  0.00     0.163 HD
BRANCH  15  18
HETATM   18  C           1     -21.684 -11.464  -1.988  0.00  0.00     0.311 C 
HETATM   19  N           1     -21.340 -11.933  -0.649  0.00  0.00     0.097 N 
HETATM   20  H           1     -21.470 -12.942  -0.575  0.00  0.00     0.317 HD
HETATM   21  C           1     -22.278 -11.256   0.242  0.00  0.00     0.271 C 
HETATM   22  C           1     -23.593 -11.298  -0.517  0.00  0.00     0.033 C 
HETATM   23  C           1     -23.203 -11.440  -1.983  0.00  0.00     0.047 C 
ENDBRANCH  15  18
ENDBRANCH   1  14
BRANCH   1  24
HETATM   24  C           1     -21.950  -6.815  -1.928  0.00  0.00     0.196 C 
HETATM   25  O           1     -22.089  -5.605  -2.208  0.00  0.00    -0.646 OA
HETATM   26  O           1     -22.264  -7.235  -0.793  0.00  0.00    -0.646 OA
ENDBRANCH   1  24
TORSDOF 7
ENDMDL
MODEL 8
REMARK VINA RESULT:      -5.8     15.581     17.522
REMARK  7 active torsions:
REMARK  status: ('A' for Active; 'I' for Inactive)
REMARK       I    between atoms: C_1  and  N_17 
REMARK    1  A    between atoms: C_1  and  C_2 
REMARK       I    between atoms: N_3  and  C_15 
REMARK    2  A    between atoms: C_8  and  N_9 
REMARK    3  A    between atoms: C_8  and  C_10 
REMARK       I    between atoms: N_9  and  C_15 
REMARK    4  A    between atoms: C_10  and  C_11 
REMARK    5  A    between atoms: C_11  and  C_20 
REMARK    6  A    between atoms: N_17  and  C_20 
REMARK    7  A    between atoms: C_20  and  C_21 
ROOT
HETATM    1  C           1     -21.457  -7.311  -3.943  0.00  0.00     0.185 C 
ENDROOT
BRANCH   1   2
HETATM    2  C           1     -20.688  -8.624  -3.986  0.00  0.00     0.038 C 
BRANCH   2   3
HETATM    3  C           1     -21.666  -9.781  -4.140  0.00  0.00     0.023 C 
BRANCH   3   4
HETATM    4  C           1     -21.515 -10.735  -2.962  0.00  0.00     0.138 C 
BRANCH   4   5
HETATM    5  N           1     -22.744 -10.718  -2.156  0.00  0.00    -0.227 N 
HETATM    6  C           1     -22.690 -10.426  -0.925  0.00  0.00     0.665 C 
HETATM    7  N           1     -23.777 -10.412  -0.213  0.00  0.00    -0.235 N 
HETATM    8  N           1     -21.577 -10.148  -0.389  0.00  0.00    -0.235 N 
HETATM    9  H           1     -24.696 -10.640  -0.656  0.00  0.00     0.174 HD
HETATM   10  H           1     -23.732 -10.170   0.803  0.00  0.00     0.174 HD
HETATM   11  H           1     -20.699 -10.160  -0.965  0.00  0.00     0.174 HD
HETATM   12  H           1     -21.533  -9.906   0.632  0.00  0.00     0.174 HD
HETATM   13  H           1     -23.666 -10.949  -2.602  0.00  0.00     0.177 HD
ENDBRANCH   4   5
ENDBRANCH   3   4
ENDBRANCH   2   3
ENDBRANCH   1   2
BRANCH   1  14
HETATM   14  N           1     -20.709  -6.286  -4.644  0.00  0.00    -0.345 N 
HETATM   15  C           1     -21.350  -5.449  -5.518  0.00  0.00     0.251 C 
HETATM   16  O           1     -22.537  -5.564  -5.705  0.00  0.00    -0.271 OA
HETATM   17  H           1     -19.714  -6.190  -4.488  0.00  0.00     0.163 HD
BRANCH  15  18
HETATM   18  C           1     -20.570  -4.383  -6.249  0.00  0.00     0.311 C 
HETATM   19  N           1     -19.502  -4.977  -7.049  0.00  0.00     0.097 N 
HETATM   20  H           1     -18.818  -4.271  -7.319  0.00  0.00     0.317 HD
HETATM   21  C           1     -20.166  -5.492  -8.243  0.00  0.00     0.271 C 
HETATM   22  C           1     -21.182  -4.416  -8.586  0.00  0.00     0.033 C 
HETATM   23  C           1     -21.444  -3.683  -7.277  0.00  0.00     0.047 C 
ENDBRANCH  15  18
ENDBRANCH   1  14
BRANCH   1  24
HETATM   24  C           1     -21.657  -6.893  -2.507  0.00  0.00     0.196 C 
HETATM   25  O           1     -22.474  -5.989  -2.227  0.00  0.00    -0.646 OA
HETATM   26  O           1     -21.005  -7.451  -1.597  0.00  0.00    -0.646 OA
ENDBRANCH   1  24
TORSDOF 7
ENDMDL
MODEL 9
REMARK VINA RESULT:      -5.6     24.452     25.620
REMARK  7 active torsions:
REMARK  status: ('A' for Active; 'I' for Inactive)
REMARK       I    between atoms: C_1  and  N_17 
REMARK    1  A    between atoms: C_1  and  C_2 
REMARK       I    between atoms: N_3  and  C_15 
REMARK    2  A    between atoms: C_8  and  N_9 
REMARK    3  A    between atoms: C_8  and  C_10 
REMARK       I    between atoms: N_9  and  C_15 
REMARK    4  A    between atoms: C_10  and  C_11 
REMARK    5  A    between atoms: C_11  and  C_20 
REMARK    6  A    between atoms: N_17  and  C_20 
REMARK    7  A    between atoms: C_20  and  C_21 
ROOT
HETATM    1  C           1     -11.697   8.566 -20.322  0.00  0.00     0.185 C 
ENDROOT
BRANCH   1   2
HETATM    2  C           1     -12.480   9.818 -19.951  0.00  0.00     0.038 C 
BRANCH   2   3
HETATM    3  C           1     -13.272   9.563 -18.675  0.00  0.00     0.023 C 
BRANCH   3   4
HETATM    4  C           1     -14.230  10.721 -18.432  0.00  0.00     0.138 C 
BRANCH   4   5
HETATM    5  N           1     -14.764  10.637 -17.064  0.00  0.00    -0.227 N 
HETATM    6  C           1     -15.189  11.680 -16.486  0.00  0.00     0.665 C 
HETATM    7  N           1     -15.660  11.605 -15.277  0.00  0.00    -0.235 N 
HETATM    8  N           1     -15.153  12.795 -17.084  0.00  0.00    -0.235 N 
HETATM    9  H           1     -15.689  10.685 -14.783  0.00  0.00     0.174 HD
HETATM   10  H           1     -16.011  12.467 -14.799  0.00  0.00     0.174 HD
HETATM   11  H           1     -14.772  12.855 -18.061  0.00  0.00     0.174 HD
HETATM   12  H           1     -15.506  13.660 -16.604  0.00  0.00     0.174 HD
HETATM   13  H           1     -14.792   9.713 -16.569  0.00  0.00     0.177 HD
ENDBRANCH   4   5
ENDBRANCH   3   4
ENDBRANCH   2   3
ENDBRANCH   1   2
BRANCH   1  14
HETATM   14  N           1     -12.421   7.391 -19.877  0.00  0.00    -0.345 N 
HETATM   15  C           1     -12.266   6.202 -20.538  0.00  0.00     0.251 C 
HETATM   16  O           1     -11.527   6.131 -21.490  0.00  0.00    -0.271 OA
HETATM   17  H           1     -13.040   7.451 -19.079  0.00  0.00     0.163 HD
BRANCH  15  18
HETATM   18  C           1     -13.021   4.979 -20.075  0.00  0.00     0.311 C 
HETATM   19  N           1     -14.462   5.186 -20.186  0.00  0.00     0.097 N 
HETATM   20  H           1     -14.970   4.495 -19.634  0.00  0.00     0.317 HD
HETATM   21  C           1     -14.763   4.994 -21.602  0.00  0.00     0.271 C 
HETATM   22  C           1     -13.896   3.812 -22.001  0.00  0.00     0.033 C 
HETATM   23  C           1     -12.754   3.799 -20.994  0.00  0.00     0.047 C 
ENDBRANCH  15  18
ENDBRANCH   1  14
BRANCH   1  24
HETATM   24  C           1     -10.343   8.604 -19.656  0.00  0.00     0.196 C 
HETATM   25  O           1     -10.258   8.797 -18.424  0.00  0.00    -0.646 OA
HETATM   26  O           1      -9.307   8.443 -20.337  0.00  0.00    -0.646 OA
ENDBRANCH   1  24
TORSDOF 7
ENDMDL
