MODEL 1
REMARK VINA RESULT:      -5.7      0.000      0.000
REMARK  8 active torsions:
REMARK  status: ('A' for Active; 'I' for Inactive)
REMARK    1  A    between atoms: C_1  and  C_3 
REMARK    2  A    between atoms: C_1  and  C_15 
REMARK    3  A    between atoms: C_1  and  N_7 
REMARK    4  A    between atoms: C_2  and  C_14 
REMARK    5  A    between atoms: C_2  and  C_16 
REMARK    6  A    between atoms: C_2  and  N_4 
REMARK       I    between atoms: C_3  and  N_4 
REMARK    7  A    between atoms: C_6  and  C_14 
REMARK    8  A    between atoms: C_15  and  O_20 
ROOT
HETATM    1  C           1     -22.201  -4.253  -7.608  0.00  0.00     0.251 C 
HETATM    2  N           1     -23.063  -4.580  -8.621  0.00  0.00    -0.345 N 
HETATM    3  H           1     -23.711  -5.349  -8.505  0.00  0.00     0.163 HD
HETATM    4  O           1     -21.429  -3.334  -7.746  0.00  0.00    -0.271 OA
ENDROOT
BRANCH   1   5
HETATM    5  C           1     -22.216  -5.040  -6.321  0.00  0.00     0.297 C 
BRANCH   5   6
HETATM    6  C           1     -21.384  -6.305  -6.491  0.00  0.00     0.206 C 
BRANCH   6   7
HETATM    7  O           1     -20.469  -6.127  -7.537  0.00  0.00    -0.398 OA
HETATM    8  H           1     -20.613  -6.829  -8.150  0.00  0.00     0.209 HD
ENDBRANCH   6   7
ENDBRANCH   5   6
BRANCH   5   9
HETATM    9  N           1     -23.629  -5.415  -5.981  0.00  0.00    -0.064 N 
HETATM   10  H           1     -23.773  -5.330  -4.950  0.00  0.00     0.275 HD
HETATM   11  H           1     -24.287  -4.772  -6.478  0.00  0.00     0.275 HD
HETATM   12  H           1     -23.810  -6.399  -6.278  0.00  0.00     0.275 HD
ENDBRANCH   5   9
ENDBRANCH   1   5
BRANCH   2  13
HETATM   13  C           1     -23.049  -3.823  -9.858  0.00  0.00     0.185 C 
BRANCH  13  14
HETATM   14  C           1     -22.517  -4.700 -10.983  0.00  0.00     0.040 C 
BRANCH  14  15
HETATM   15  C           1     -21.192  -4.139 -11.482  0.00  0.00    -0.020 C 
HETATM   16  C           1     -20.053  -4.716 -10.651  0.00  0.00     0.009 C 
HETATM   17  C           1     -21.201  -2.622 -11.347  0.00  0.00     0.009 C 
ENDBRANCH  14  15
ENDBRANCH  13  14
BRANCH  13  18
HETATM   18  C           1     -24.451  -3.375 -10.188  0.00  0.00     0.196 C 
HETATM   19  O           1     -24.934  -3.612 -11.317  0.00  0.00    -0.646 OA
HETATM   20  O           1     -25.131  -2.767  -9.334  0.00  0.00    -0.646 OA
ENDBRANCH  13  18
ENDBRANCH   2  13
TORSDOF 8
ENDMDL
MODEL 2
REMARK VINA RESULT:      -5.1      2.060      4.946
REMARK  8 active torsions:
REMARK  status: ('A' for Active; 'I' for Inactive)
REMARK    1  A    between atoms: C_1  and  C_3 
REMARK    2  A    between atoms: C_1  and  C_15 
REMARK    3  A    between atoms: C_1  and  N_7 
REMARK    4  A    between atoms: C_2  and  C_14 
REMARK    5  A    between atoms: C_2  and  C_16 
REMARK    6  A    between atoms: C_2  and  N_4 
REMARK       I    between atoms: C_3  and  N_4 
REMARK    7  A    between atoms: C_6  and  C_14 
REMARK    8  A    between atoms: C_15  and  O_20 
ROOT
HETATM    1  C           1     -22.953  -4.113  -9.010  0.00  0.00     0.251 C 
HETATM    2  N           1     -22.142  -4.848  -8.187  0.00  0.00    -0.345 N 
HETATM    3  H           1     -22.295  -5.844  -8.084  0.00  0.00     0.163 HD
HETATM    4  O           1     -22.771  -2.926  -9.134  0.00  0.00    -0.271 OA
ENDROOT
BRANCH   1   5
HETATM    5  C           1     -24.076  -4.787  -9.761  0.00  0.00     0.297 C 
BRANCH   5   6
HETATM    6  C           1     -23.679  -4.956 -11.222  0.00  0.00     0.206 C 
BRANCH   6   7
HETATM    7  O           1     -22.312  -4.688 -11.370  0.00  0.00    -0.398 OA
HETATM    8  H           1     -22.075  -4.083 -10.686  0.00  0.00     0.209 HD
ENDBRANCH   6   7
ENDBRANCH   5   6
BRANCH   5   9
HETATM    9  N           1     -25.312  -3.942  -9.674  0.00  0.00    -0.064 N 
HETATM   10  H           1     -25.164  -3.052 -10.200  0.00  0.00     0.275 HD
HETATM   11  H           1     -26.118  -4.462 -10.090  0.00  0.00     0.275 HD
HETATM   12  H           1     -25.516  -3.724  -8.673  0.00  0.00     0.275 HD
ENDBRANCH   5   9
ENDBRANCH   1   5
BRANCH   2  13
HETATM   13  C           1     -21.063  -4.202  -7.466  0.00  0.00     0.185 C 
BRANCH  13  14
HETATM   14  C           1     -20.972  -4.782  -6.062  0.00  0.00     0.040 C 
BRANCH  14  15
HETATM   15  C           1     -21.358  -6.254  -6.093  0.00  0.00    -0.020 C 
HETATM   16  C           1     -22.443  -6.516  -5.057  0.00  0.00     0.009 C 
HETATM   17  C           1     -20.136  -7.106  -5.776  0.00  0.00     0.009 C 
ENDBRANCH  14  15
ENDBRANCH  13  14
BRANCH  13  18
HETATM   18  C           1     -19.762  -4.435  -8.193  0.00  0.00     0.196 C 
HETATM   19  O           1     -18.677  -4.339  -7.580  0.00  0.00    -0.646 OA
HETATM   20  O           1     -19.769  -4.725  -9.409  0.00  0.00    -0.646 OA
ENDBRANCH  13  18
ENDBRANCH   2  13
TORSDOF 8
ENDMDL
MODEL 3
REMARK VINA RESULT:      -4.8      3.097      6.706
REMARK  8 active torsions:
REMARK  status: ('A' for Active; 'I' for Inactive)
REMARK    1  A    between atoms: C_1  and  C_3 
REMARK    2  A    between atoms: C_1  and  C_15 
REMARK    3  A    between atoms: C_1  and  N_7 
REMARK    4  A    between atoms: C_2  and  C_14 
REMARK    5  A    between atoms: C_2  and  C_16 
REMARK    6  A    between atoms: C_2  and  N_4 
REMARK       I    between atoms: C_3  and  N_4 
REMARK    7  A    between atoms: C_6  and  C_14 
REMARK    8  A    between atoms: C_15  and  O_20 
ROOT
HETATM    1  C           1     -20.765  -4.835  -6.102  0.00  0.00     0.251 C 
HETATM    2  N           1     -21.186  -6.134  -6.011  0.00  0.00    -0.345 N 
HETATM    3  H           1     -21.841  -6.502  -6.690  0.00  0.00     0.163 HD
HETATM    4  O           1     -19.983  -4.395  -5.293  0.00  0.00    -0.271 OA
ENDROOT
BRANCH   1   5
HETATM    5  C           1     -21.279  -3.951  -7.212  0.00  0.00     0.297 C 
BRANCH   5   6
HETATM    6  C           1     -22.572  -4.535  -7.767  0.00  0.00     0.206 C 
BRANCH   6   7
HETATM    7  O           1     -23.586  -4.428  -6.805  0.00  0.00    -0.398 OA
HETATM    8  H           1     -23.910  -3.544  -6.846  0.00  0.00     0.209 HD
ENDBRANCH   6   7
ENDBRANCH   5   6
BRANCH   5   9
HETATM    9  N           1     -20.256  -3.876  -8.305  0.00  0.00    -0.064 N 
HETATM   10  H           1     -19.406  -3.378  -7.954  0.00  0.00     0.275 HD
HETATM   11  H           1     -19.994  -4.842  -8.603  0.00  0.00     0.275 HD
HETATM   12  H           1     -20.652  -3.355  -9.119  0.00  0.00     0.275 HD
ENDBRANCH   5   9
ENDBRANCH   1   5
BRANCH   2  13
HETATM   13  C           1     -20.691  -6.984  -4.946  0.00  0.00     0.185 C 
BRANCH  13  14
HETATM   14  C           1     -21.785  -7.181  -3.905  0.00  0.00     0.040 C 
BRANCH  14  15
HETATM   15  C           1     -21.209  -6.953  -2.513  0.00  0.00    -0.020 C 
HETATM   16  C           1     -20.841  -8.293  -1.890  0.00  0.00     0.009 C 
HETATM   17  C           1     -22.248  -6.257  -1.644  0.00  0.00     0.009 C 
ENDBRANCH  14  15
ENDBRANCH  13  14
BRANCH  13  18
HETATM   18  C           1     -20.291  -8.322  -5.515  0.00  0.00     0.196 C 
HETATM   19  O           1     -19.088  -8.565  -5.757  0.00  0.00    -0.646 OA
HETATM   20  O           1     -21.161  -9.189  -5.746  0.00  0.00    -0.646 OA
ENDBRANCH  13  18
ENDBRANCH   2  13
TORSDOF 8
ENDMDL
MODEL 4
REMARK VINA RESULT:      -4.7      2.860      4.383
REMARK  8 active torsions:
REMARK  status: ('A' for Active; 'I' for Inactive)
REMARK    1  A    between atoms: C_1  and  C_3 
REMARK    2  A    between atoms: C_1  and  C_15 
REMARK    3  A    between atoms: C_1  and  N_7 
REMARK    4  A    between atoms: C_2  and  C_14 
REMARK    5  A    between atoms: C_2  and  C_16 
REMARK    6  A    between atoms: C_2  and  N_4 
REMARK       I    between atoms: C_3  and  N_4 
REMARK    7  A    between atoms: C_6  and  C_14 
REMARK    8  A    between atoms: C_15  and  O_20 
ROOT
HETATM    1  C           1     -21.588  -6.804  -5.510  0.00  0.00     0.251 C 
HETATM    2  N           1     -21.693  -5.503  -5.923  0.00  0.00    -0.345 N 
HETATM    3  H           1     -22.098  -4.808  -5.309  0.00  0.00     0.163 HD
HETATM    4  O           1     -21.103  -7.634  -6.242  0.00  0.00    -0.271 OA
ENDROOT
BRANCH   1   5
HETATM    5  C           1     -22.079  -7.202  -4.139  0.00  0.00     0.297 C 
BRANCH   5   6
HETATM    6  C           1     -21.555  -6.214  -3.105  0.00  0.00     0.206 C 
BRANCH   6   7
HETATM    7  O           1     -22.589  -5.862  -2.227  0.00  0.00    -0.398 OA
HETATM    8  H           1     -23.265  -6.512  -2.326  0.00  0.00     0.209 HD
ENDBRANCH   6   7
ENDBRANCH   5   6
BRANCH   5   9
HETATM    9  N           1     -21.582  -8.579  -3.811  0.00  0.00    -0.064 N 
HETATM   10  H           1     -21.871  -8.831  -2.839  0.00  0.00     0.275 HD
HETATM   11  H           1     -21.991  -9.266  -4.484  0.00  0.00     0.275 HD
HETATM   12  H           1     -20.540  -8.599  -3.880  0.00  0.00     0.275 HD
ENDBRANCH   5   9
ENDBRANCH   1   5
BRANCH   2  13
HETATM   13  C           1     -21.220  -5.120  -7.239  0.00  0.00     0.185 C 
BRANCH  13  14
HETATM   14  C           1     -22.119  -4.028  -7.803  0.00  0.00     0.040 C 
BRANCH  14  15
HETATM   15  C           1     -22.658  -4.463  -9.159  0.00  0.00    -0.020 C 
HETATM   16  C           1     -21.823  -3.828 -10.264  0.00  0.00     0.009 C 
HETATM   17  C           1     -24.107  -4.015  -9.296  0.00  0.00     0.009 C 
ENDBRANCH  14  15
ENDBRANCH  13  14
BRANCH  13  18
HETATM   18  C           1     -19.807  -4.605  -7.135  0.00  0.00     0.196 C 
HETATM   19  O           1     -19.191  -4.253  -8.166  0.00  0.00    -0.646 OA
HETATM   20  O           1     -19.249  -4.529  -6.019  0.00  0.00    -0.646 OA
ENDBRANCH  13  18
ENDBRANCH   2  13
TORSDOF 8
ENDMDL
MODEL 5
REMARK VINA RESULT:      -4.6      6.771      8.811
REMARK  8 active torsions:
REMARK  status: ('A' for Active; 'I' for Inactive)
REMARK    1  A    between atoms: C_1  and  C_3 
REMARK    2  A    between atoms: C_1  and  C_15 
REMARK    3  A    between atoms: C_1  and  N_7 
REMARK    4  A    between atoms: C_2  and  C_14 
REMARK    5  A    between atoms: C_2  and  C_16 
REMARK    6  A    between atoms: C_2  and  N_4 
REMARK       I    between atoms: C_3  and  N_4 
REMARK    7  A    between atoms: C_6  and  C_14 
REMARK    8  A    between atoms: C_15  and  O_20 
ROOT
HETATM    1  C           1     -21.038  -9.592  -3.908  0.00  0.00     0.251 C 
HETATM    2  N           1     -20.681  -8.507  -3.152  0.00  0.00    -0.345 N 
HETATM    3  H           1     -19.750  -8.117  -3.235  0.00  0.00     0.163 HD
HETATM    4  O           1     -22.148 -10.057  -3.810  0.00  0.00    -0.271 OA
ENDROOT
BRANCH   1   5
HETATM    5  C           1     -20.043 -10.207  -4.862  0.00  0.00     0.297 C 
BRANCH   5   6
HETATM    6  C           1     -18.987  -9.172  -5.229  0.00  0.00     0.206 C 
BRANCH   6   7
HETATM    7  O           1     -19.608  -8.047  -5.787  0.00  0.00    -0.398 OA
HETATM    8  H           1     -18.958  -7.364  -5.821  0.00  0.00     0.209 HD
ENDBRANCH   6   7
ENDBRANCH   5   6
BRANCH   5   9
HETATM    9  N           1     -20.754 -10.656  -6.104  0.00  0.00    -0.064 N 
HETATM   10  H           1     -20.388 -11.590  -6.397  0.00  0.00     0.275 HD
HETATM   11  H           1     -21.779 -10.730  -5.910  0.00  0.00     0.275 HD
HETATM   12  H           1     -20.592  -9.964  -6.869  0.00  0.00     0.275 HD
ENDBRANCH   5   9
ENDBRANCH   1   5
BRANCH   2  13
HETATM   13  C           1     -21.636  -7.916  -2.236  0.00  0.00     0.185 C 
BRANCH  13  14
HETATM   14  C           1     -21.024  -7.838  -0.844  0.00  0.00     0.040 C 
BRANCH  14  15
HETATM   15  C           1     -21.811  -8.727   0.109  0.00  0.00    -0.020 C 
HETATM   16  C           1     -23.151  -8.073   0.421  0.00  0.00     0.009 C 
HETATM   17  C           1     -21.023  -8.911   1.399  0.00  0.00     0.009 C 
ENDBRANCH  14  15
ENDBRANCH  13  14
BRANCH  13  18
HETATM   18  C           1     -21.992  -6.528  -2.708  0.00  0.00     0.196 C 
HETATM   19  O           1     -22.111  -5.597  -1.881  0.00  0.00    -0.646 OA
HETATM   20  O           1     -22.169  -6.308  -3.925  0.00  0.00    -0.646 OA
ENDBRANCH  13  18
ENDBRANCH   2  13
TORSDOF 8
ENDMDL
MODEL 6
REMARK VINA RESULT:      -4.4      7.226      9.300
REMARK  8 active torsions:
REMARK  status: ('A' for Active; 'I' for Inactive)
REMARK    1  A    between atoms: C_1  and  C_3 
REMARK    2  A    between atoms: C_1  and  C_15 
REMARK    3  A    between atoms: C_1  and  N_7 
REMARK    4  A    between atoms: C_2  and  C_14 
REMARK    5  A    between atoms: C_2  and  C_16 
REMARK    6  A    between atoms: C_2  and  N_4 
REMARK       I    between atoms: C_3  and  N_4 
REMARK    7  A    between atoms: C_6  and  C_14 
REMARK    8  A    between atoms: C_15  and  O_20 
ROOT
HETATM    1  C           1     -19.815  -9.581  -2.353  0.00  0.00     0.251 C 
HETATM    2  N           1     -20.161  -8.333  -1.908  0.00  0.00    -0.345 N 
HETATM    3  H           1     -19.441  -7.675  -1.638  0.00  0.00     0.163 HD
HETATM    4  O           1     -20.673 -10.367  -2.676  0.00  0.00    -0.271 OA
ENDROOT
BRANCH   1   5
HETATM    5  C           1     -18.360  -9.975  -2.436  0.00  0.00     0.297 C 
BRANCH   5   6
HETATM    6  C           1     -17.815  -9.613  -3.812  0.00  0.00     0.206 C 
BRANCH   6   7
HETATM    7  O           1     -18.794  -8.920  -4.536  0.00  0.00    -0.398 OA
HETATM    8  H           1     -18.348  -8.451  -5.221  0.00  0.00     0.209 HD
ENDBRANCH   6   7
ENDBRANCH   5   6
BRANCH   5   9
HETATM    9  N           1     -18.231 -11.454  -2.222  0.00  0.00    -0.064 N 
HETATM   10  H           1     -17.366 -11.652  -1.670  0.00  0.00     0.275 HD
HETATM   11  H           1     -19.065 -11.804  -1.699  0.00  0.00     0.275 HD
HETATM   12  H           1     -18.170 -11.936  -3.147  0.00  0.00     0.275 HD
ENDBRANCH   5   9
ENDBRANCH   1   5
BRANCH   2  13
HETATM   13  C           1     -21.558  -7.954  -1.828  0.00  0.00     0.185 C 
BRANCH  13  14
HETATM   14  C           1     -21.820  -7.260  -0.498  0.00  0.00     0.040 C 
BRANCH  14  15
HETATM   15  C           1     -22.337  -8.275   0.512  0.00  0.00    -0.020 C 
HETATM   16  C           1     -21.179  -8.780   1.362  0.00  0.00     0.009 C 
HETATM   17  C           1     -22.974  -9.445  -0.225  0.00  0.00     0.009 C 
ENDBRANCH  14  15
ENDBRANCH  13  14
BRANCH  13  18
HETATM   18  C           1     -21.890  -7.014  -2.960  0.00  0.00     0.196 C 
HETATM   19  O           1     -21.538  -7.292  -4.128  0.00  0.00    -0.646 OA
HETATM   20  O           1     -22.516  -5.957  -2.732  0.00  0.00    -0.646 OA
ENDBRANCH  13  18
ENDBRANCH   2  13
TORSDOF 8
ENDMDL
MODEL 7
REMARK VINA RESULT:      -4.4     17.689     19.778
REMARK  8 active torsions:
REMARK  status: ('A' for Active; 'I' for Inactive)
REMARK    1  A    between atoms: C_1  and  C_3 
REMARK    2  A    between atoms: C_1  and  C_15 
REMARK    3  A    between atoms: C_1  and  N_7 
REMARK    4  A    between atoms: C_2  and  C_14 
REMARK    5  A    between atoms: C_2  and  C_16 
REMARK    6  A    between atoms: C_2  and  N_4 
REMARK       I    between atoms: C_3  and  N_4 
REMARK    7  A    between atoms: C_6  and  C_14 
REMARK    8  A    between atoms: C_15  and  O_20 
ROOT
HETATM    1  C           1     -12.820   5.336 -21.526  0.00  0.00     0.251 C 
HETATM    2  N           1     -12.374   6.191 -20.554  0.00  0.00    -0.345 N 
HETATM    3  H           1     -12.963   6.404 -19.758  0.00  0.00     0.163 HD
HETATM    4  O           1     -12.118   5.081 -22.475  0.00  0.00    -0.271 OA
ENDROOT
BRANCH   1   5
HETATM    5  C           1     -14.190   4.713 -21.411  0.00  0.00     0.297 C 
BRANCH   5   6
HETATM    6  C           1     -15.130   5.366 -22.417  0.00  0.00     0.206 C 
BRANCH   6   7
HETATM    7  O           1     -14.723   6.687 -22.648  0.00  0.00    -0.398 OA
HETATM    8  H           1     -14.434   7.033 -21.821  0.00  0.00     0.209 HD
ENDBRANCH   6   7
ENDBRANCH   5   6
BRANCH   5   9
HETATM    9  N           1     -14.720   4.924 -20.024  0.00  0.00    -0.064 N 
HETATM   10  H           1     -15.658   5.382 -20.075  0.00  0.00     0.275 HD
HETATM   11  H           1     -14.811   4.000 -19.543  0.00  0.00     0.275 HD
HETATM   12  H           1     -14.063   5.534 -19.489  0.00  0.00     0.275 HD
ENDBRANCH   5   9
ENDBRANCH   1   5
BRANCH   2  13
HETATM   13  C           1     -11.058   6.789 -20.663  0.00  0.00     0.185 C 
BRANCH  13  14
HETATM   14  C           1     -11.144   8.271 -20.325  0.00  0.00     0.040 C 
BRANCH  14  15
HETATM   15  C           1     -10.560   9.089 -21.469  0.00  0.00    -0.020 C 
HETATM   16  C           1     -10.895   8.417 -22.795  0.00  0.00     0.009 C 
HETATM   17  C           1      -9.048   9.176 -21.311  0.00  0.00     0.009 C 
ENDBRANCH  14  15
ENDBRANCH  13  14
BRANCH  13  18
HETATM   18  C           1     -10.115   6.108 -19.703  0.00  0.00     0.196 C 
HETATM   19  O           1     -10.554   5.605 -18.645  0.00  0.00    -0.646 OA
HETATM   20  O           1      -8.894   6.046 -19.963  0.00  0.00    -0.646 OA
ENDBRANCH  13  18
ENDBRANCH   2  13
TORSDOF 8
ENDMDL
MODEL 8
REMARK VINA RESULT:      -4.3      4.924      8.584
REMARK  8 active torsions:
REMARK  status: ('A' for Active; 'I' for Inactive)
REMARK    1  A    between atoms: C_1  and  C_3 
REMARK    2  A    between atoms: C_1  and  C_15 
REMARK    3  A    between atoms: C_1  and  N_7 
REMARK    4  A    between atoms: C_2  and  C_14 
REMARK    5  A    between atoms: C_2  and  C_16 
REMARK    6  A    between atoms: C_2  and  N_4 
REMARK       I    between atoms: C_3  and  N_4 
REMARK    7  A    between atoms: C_6  and  C_14 
REMARK    8  A    between atoms: C_15  and  O_20 
ROOT
HETATM    1  C           1     -20.799  -7.887  -4.578  0.00  0.00     0.251 C 
HETATM    2  N           1     -21.547  -8.384  -3.545  0.00  0.00    -0.345 N 
HETATM    3  H           1     -22.532  -8.160  -3.480  0.00  0.00     0.163 HD
HETATM    4  O           1     -19.624  -8.155  -4.657  0.00  0.00    -0.271 OA
ENDROOT
BRANCH   1   5
HETATM    5  C           1     -21.442  -7.003  -5.619  0.00  0.00     0.297 C 
BRANCH   5   6
HETATM    6  C           1     -20.421  -5.997  -6.132  0.00  0.00     0.206 C 
BRANCH   6   7
HETATM    7  O           1     -19.659  -6.581  -7.153  0.00  0.00    -0.398 OA
HETATM    8  H           1     -19.982  -7.460  -7.266  0.00  0.00     0.209 HD
ENDBRANCH   6   7
ENDBRANCH   5   6
BRANCH   5   9
HETATM    9  N           1     -22.599  -6.272  -5.005  0.00  0.00    -0.064 N 
HETATM   10  H           1     -23.067  -5.686  -5.734  0.00  0.00     0.275 HD
HETATM   11  H           1     -23.284  -6.962  -4.623  0.00  0.00     0.275 HD
HETATM   12  H           1     -22.254  -5.657  -4.234  0.00  0.00     0.275 HD
ENDBRANCH   5   9
ENDBRANCH   1   5
BRANCH   2  13
HETATM   13  C           1     -20.929  -9.234  -2.545  0.00  0.00     0.185 C 
BRANCH  13  14
HETATM   14  C           1     -20.867  -8.492  -1.217  0.00  0.00     0.040 C 
BRANCH  14  15
HETATM   15  C           1     -22.233  -7.897  -0.902  0.00  0.00    -0.020 C 
HETATM   16  C           1     -22.212  -6.401  -1.188  0.00  0.00     0.009 C 
HETATM   17  C           1     -22.561  -8.129   0.566  0.00  0.00     0.009 C 
ENDBRANCH  14  15
ENDBRANCH  13  14
BRANCH  13  18
HETATM   18  C           1     -21.745 -10.492  -2.382  0.00  0.00     0.196 C 
HETATM   19  O           1     -21.494 -11.283  -1.447  0.00  0.00    -0.646 OA
HETATM   20  O           1     -22.672 -10.745  -3.181  0.00  0.00    -0.646 OA
ENDBRANCH  13  18
ENDBRANCH   2  13
TORSDOF 8
ENDMDL
MODEL 9
REMARK VINA RESULT:      -4.3      7.335      9.233
REMARK  8 active torsions:
REMARK  status: ('A' for Active; 'I' for Inactive)
REMARK    1  A    between atoms: C_1  and  C_3 
REMARK    2  A    between atoms: C_1  and  C_15 
REMARK    3  A    between atoms: C_1  and  N_7 
REMARK    4  A    between atoms: C_2  and  C_14 
REMARK    5  A    between atoms: C_2  and  C_16 
REMARK    6  A    between atoms: C_2  and  N_4 
REMARK       I    between atoms: C_3  and  N_4 
REMARK    7  A    between atoms: C_6  and  C_14 
REMARK    8  A    between atoms: C_15  and  O_20 
ROOT
HETATM    1  C           1     -21.666 -10.118  -0.679  0.00  0.00     0.251 C 
HETATM    2  N           1     -21.904  -9.303  -1.753  0.00  0.00    -0.345 N 
HETATM    3  H           1     -22.572  -9.580  -2.461  0.00  0.00     0.163 HD
HETATM    4  O           1     -20.870  -9.787   0.166  0.00  0.00    -0.271 OA
ENDROOT
BRANCH   1   5
HETATM    5  C           1     -22.399 -11.432  -0.553  0.00  0.00     0.297 C 
BRANCH   5   6
HETATM    6  C           1     -23.843 -11.170  -0.145  0.00  0.00     0.206 C 
BRANCH   6   7
HETATM    7  O           1     -23.999  -9.816   0.182  0.00  0.00    -0.398 OA
HETATM    8  H           1     -24.573  -9.779   0.929  0.00  0.00     0.209 HD
ENDBRANCH   6   7
ENDBRANCH   5   6
BRANCH   5   9
HETATM    9  N           1     -21.731 -12.277   0.491  0.00  0.00    -0.064 N 
HETATM   10  H           1     -22.206 -13.206   0.543  0.00  0.00     0.275 HD
HETATM   11  H           1     -20.727 -12.415   0.236  0.00  0.00     0.275 HD
HETATM   12  H           1     -21.794 -11.801   1.418  0.00  0.00     0.275 HD
ENDBRANCH   5   9
ENDBRANCH   1   5
BRANCH   2  13
HETATM   13  C           1     -21.201  -8.040  -1.875  0.00  0.00     0.185 C 
BRANCH  13  14
HETATM   14  C           1     -20.700  -7.874  -3.303  0.00  0.00     0.040 C 
BRANCH  14  15
HETATM   15  C           1     -19.824  -9.061  -3.677  0.00  0.00    -0.020 C 
HETATM   16  C           1     -18.635  -9.133  -2.726  0.00  0.00     0.009 C 
HETATM   17  C           1     -19.322  -8.892  -5.105  0.00  0.00     0.009 C 
ENDBRANCH  14  15
ENDBRANCH  13  14
BRANCH  13  18
HETATM   18  C           1     -22.138  -6.909  -1.534  0.00  0.00     0.196 C 
HETATM   19  O           1     -22.204  -5.905  -2.278  0.00  0.00    -0.646 OA
HETATM   20  O           1     -22.849  -6.973  -0.509  0.00  0.00    -0.646 OA
ENDBRANCH  13  18
ENDBRANCH   2  13
TORSDOF 8
ENDMDL
