MODEL 1
REMARK VINA RESULT:      -5.4      0.000      0.000
REMARK  6 active torsions:
REMARK  status: ('A' for Active; 'I' for Inactive)
REMARK       I    between atoms: C_1  and  N_3 
REMARK    1  A    between atoms: C_1  and  C_2 
REMARK    2  A    between atoms: C_2  and  C_9 
REMARK    3  A    between atoms: C_2  and  N_6 
REMARK    4  A    between atoms: N_3  and  C_4 
REMARK    5  A    between atoms: C_4  and  C_14 
REMARK    6  A    between atoms: C_9  and  O_11 
ROOT
HETATM    1  C           1     -30.531  -5.833 -17.450  0.00  0.00     0.302 C 
ENDROOT
BRANCH   1   2
HETATM    2  C           1     -29.513  -6.802 -16.903  0.00  0.00     0.251 C 
HETATM    3  N           1     -28.592  -6.380 -15.981  0.00  0.00    -0.349 N 
HETATM    4  H           1     -28.595  -5.418 -15.668  0.00  0.00     0.163 HD
HETATM    5  O           1     -29.510  -7.950 -17.278  0.00  0.00    -0.271 OA
BRANCH   3   6
HETATM    6  C           1     -27.614  -7.311 -15.456  0.00  0.00     0.235 C 
BRANCH   6   7
HETATM    7  C           1     -26.226  -6.834 -15.805  0.00  0.00     0.191 C 
HETATM    8  O           1     -25.227  -7.493 -15.441  0.00  0.00    -0.647 OA
HETATM    9  O           1     -26.073  -5.779 -16.459  0.00  0.00    -0.647 OA
ENDBRANCH   6   7
ENDBRANCH   3   6
ENDBRANCH   1   2
BRANCH   1  10
HETATM   10  C           1     -29.825  -4.763 -18.272  0.00  0.00     0.153 C 
HETATM   11  C           1     -29.853  -3.442 -17.517  0.00  0.00     0.042 C 
BRANCH  10  12
HETATM   12  O           1     -28.495  -5.146 -18.494  0.00  0.00    -0.393 OA
HETATM   13  H           1     -28.501  -5.756 -19.211  0.00  0.00     0.210 HD
ENDBRANCH  10  12
ENDBRANCH   1  10
BRANCH   1  14
HETATM   14  N           1     -31.266  -5.185 -16.314  0.00  0.00    -0.064 N 
HETATM   15  H           1     -30.770  -4.310 -16.032  0.00  0.00     0.275 HD
HETATM   16  H           1     -32.239  -4.952 -16.616  0.00  0.00     0.275 HD
HETATM   17  H           1     -31.301  -5.843 -15.503  0.00  0.00     0.275 HD
ENDBRANCH   1  14
TORSDOF 6
ENDMDL
MODEL 2
REMARK VINA RESULT:      -5.4      1.529      2.005
REMARK  6 active torsions:
REMARK  status: ('A' for Active; 'I' for Inactive)
REMARK       I    between atoms: C_1  and  N_3 
REMARK    1  A    between atoms: C_1  and  C_2 
REMARK    2  A    between atoms: C_2  and  C_9 
REMARK    3  A    between atoms: C_2  and  N_6 
REMARK    4  A    between atoms: N_3  and  C_4 
REMARK    5  A    between atoms: C_4  and  C_14 
REMARK    6  A    between atoms: C_9  and  O_11 
ROOT
HETATM    1  C           1     -29.486  -6.404 -16.586  0.00  0.00     0.302 C 
ENDROOT
BRANCH   1   2
HETATM    2  C           1     -28.113  -6.044 -16.074  0.00  0.00     0.251 C 
HETATM    3  N           1     -27.060  -6.895 -16.280  0.00  0.00    -0.349 N 
HETATM    4  H           1     -27.203  -7.765 -16.776  0.00  0.00     0.163 HD
HETATM    5  O           1     -27.943  -5.006 -15.482  0.00  0.00    -0.271 OA
BRANCH   3   6
HETATM    6  C           1     -25.742  -6.549 -15.788  0.00  0.00     0.235 C 
BRANCH   6   7
HETATM    7  C           1     -24.694  -7.248 -16.619  0.00  0.00     0.191 C 
HETATM    8  O           1     -24.208  -8.333 -16.230  0.00  0.00    -0.647 OA
HETATM    9  O           1     -24.311  -6.742 -17.696  0.00  0.00    -0.647 OA
ENDBRANCH   6   7
ENDBRANCH   3   6
ENDBRANCH   1   2
BRANCH   1  10
HETATM   10  C           1     -29.510  -6.282 -18.104  0.00  0.00     0.153 C 
HETATM   11  C           1     -29.216  -4.842 -18.501  0.00  0.00     0.042 C 
BRANCH  10  12
HETATM   12  O           1     -28.538  -7.126 -18.657  0.00  0.00    -0.393 OA
HETATM   13  H           1     -28.989  -7.888 -18.980  0.00  0.00     0.210 HD
ENDBRANCH  10  12
ENDBRANCH   1  10
BRANCH   1  14
HETATM   14  N           1     -30.501  -5.473 -15.994  0.00  0.00    -0.064 N 
HETATM   15  H           1     -30.889  -5.890 -15.118  0.00  0.00     0.275 HD
HETATM   16  H           1     -30.046  -4.558 -15.771  0.00  0.00     0.275 HD
HETATM   17  H           1     -31.275  -5.320 -16.680  0.00  0.00     0.275 HD
ENDBRANCH   1  14
TORSDOF 6
ENDMDL
MODEL 3
REMARK VINA RESULT:      -5.0      3.195      4.188
REMARK  6 active torsions:
REMARK  status: ('A' for Active; 'I' for Inactive)
REMARK       I    between atoms: C_1  and  N_3 
REMARK    1  A    between atoms: C_1  and  C_2 
REMARK    2  A    between atoms: C_2  and  C_9 
REMARK    3  A    between atoms: C_2  and  N_6 
REMARK    4  A    between atoms: N_3  and  C_4 
REMARK    5  A    between atoms: C_4  and  C_14 
REMARK    6  A    between atoms: C_9  and  O_11 
ROOT
HETATM    1  C           1     -29.129  -6.527 -17.336  0.00  0.00     0.302 C 
ENDROOT
BRANCH   1   2
HETATM    2  C           1     -28.380  -6.177 -18.598  0.00  0.00     0.251 C 
HETATM    3  N           1     -27.478  -7.062 -19.126  0.00  0.00    -0.349 N 
HETATM    4  H           1     -27.315  -7.950 -18.670  0.00  0.00     0.163 HD
HETATM    5  O           1     -28.575  -5.117 -19.142  0.00  0.00    -0.271 OA
BRANCH   3   6
HETATM    6  C           1     -26.757  -6.726 -20.338  0.00  0.00     0.235 C 
BRANCH   6   7
HETATM    7  C           1     -26.493  -7.982 -21.132  0.00  0.00     0.191 C 
HETATM    8  O           1     -27.439  -8.743 -21.431  0.00  0.00    -0.647 OA
HETATM    9  O           1     -25.329  -8.260 -21.491  0.00  0.00    -0.647 OA
ENDBRANCH   6   7
ENDBRANCH   3   6
ENDBRANCH   1   2
BRANCH   1  10
HETATM   10  C           1     -28.313  -6.099 -16.124  0.00  0.00     0.153 C 
HETATM   11  C           1     -27.720  -7.330 -15.452  0.00  0.00     0.042 C 
BRANCH  10  12
HETATM   12  O           1     -27.278  -5.248 -16.534  0.00  0.00    -0.393 OA
HETATM   13  H           1     -27.203  -4.573 -15.881  0.00  0.00     0.210 HD
ENDBRANCH  10  12
ENDBRANCH   1  10
BRANCH   1  14
HETATM   14  N           1     -29.359  -8.008 -17.286  0.00  0.00    -0.064 N 
HETATM   15  H           1     -29.735  -8.335 -18.204  0.00  0.00     0.275 HD
HETATM   16  H           1     -28.455  -8.494 -17.087  0.00  0.00     0.275 HD
HETATM   17  H           1     -30.047  -8.228 -16.530  0.00  0.00     0.275 HD
ENDBRANCH   1  14
TORSDOF 6
ENDMDL
MODEL 4
REMARK VINA RESULT:      -5.0      9.082     11.392
REMARK  6 active torsions:
REMARK  status: ('A' for Active; 'I' for Inactive)
REMARK       I    between atoms: C_1  and  N_3 
REMARK    1  A    between atoms: C_1  and  C_2 
REMARK    2  A    between atoms: C_2  and  C_9 
REMARK    3  A    between atoms: C_2  and  N_6 
REMARK    4  A    between atoms: N_3  and  C_4 
REMARK    5  A    between atoms: C_4  and  C_14 
REMARK    6  A    between atoms: C_9  and  O_11 
ROOT
HETATM    1  C           1     -20.530  -5.095  -8.133  0.00  0.00     0.302 C 
ENDROOT
BRANCH   1   2
HETATM    2  C           1     -21.265  -4.517  -9.317  0.00  0.00     0.251 C 
HETATM    3  N           1     -22.528  -4.953  -9.618  0.00  0.00    -0.349 N 
HETATM    4  H           1     -22.968  -5.663  -9.046  0.00  0.00     0.163 HD
HETATM    5  O           1     -20.740  -3.670  -9.999  0.00  0.00    -0.271 OA
BRANCH   3   6
HETATM    6  C           1     -23.234  -4.398 -10.755  0.00  0.00     0.235 C 
BRANCH   6   7
HETATM    7  C           1     -24.382  -3.547 -10.270  0.00  0.00     0.191 C 
HETATM    8  O           1     -24.454  -3.223  -9.064  0.00  0.00    -0.647 OA
HETATM    9  O           1     -25.260  -3.165 -11.073  0.00  0.00    -0.647 OA
ENDBRANCH   6   7
ENDBRANCH   3   6
ENDBRANCH   1   2
BRANCH   1  10
HETATM   10  C           1     -21.343  -4.860  -6.866  0.00  0.00     0.153 C 
HETATM   11  C           1     -20.399  -4.613  -5.697  0.00  0.00     0.042 C 
BRANCH  10  12
HETATM   12  O           1     -22.171  -3.744  -7.042  0.00  0.00    -0.393 OA
HETATM   13  H           1     -22.289  -3.634  -7.970  0.00  0.00     0.210 HD
ENDBRANCH  10  12
ENDBRANCH   1  10
BRANCH   1  14
HETATM   14  N           1     -19.194  -4.427  -7.999  0.00  0.00    -0.064 N 
HETATM   15  H           1     -18.931  -4.369  -6.990  0.00  0.00     0.275 HD
HETATM   16  H           1     -18.474  -4.983  -8.514  0.00  0.00     0.275 HD
HETATM   17  H           1     -19.245  -3.464  -8.402  0.00  0.00     0.275 HD
ENDBRANCH   1  14
TORSDOF 6
ENDMDL
MODEL 5
REMARK VINA RESULT:      -4.9      9.574     11.847
REMARK  6 active torsions:
REMARK  status: ('A' for Active; 'I' for Inactive)
REMARK       I    between atoms: C_1  and  N_3 
REMARK    1  A    between atoms: C_1  and  C_2 
REMARK    2  A    between atoms: C_2  and  C_9 
REMARK    3  A    between atoms: C_2  and  N_6 
REMARK    4  A    between atoms: N_3  and  C_4 
REMARK    5  A    between atoms: C_4  and  C_14 
REMARK    6  A    between atoms: C_9  and  O_11 
ROOT
HETATM    1  C           1     -21.058  -4.502  -6.542  0.00  0.00     0.302 C 
ENDROOT
BRANCH   1   2
HETATM    2  C           1     -22.465  -4.466  -7.086  0.00  0.00     0.251 C 
HETATM    3  N           1     -22.709  -3.915  -8.315  0.00  0.00    -0.349 N 
HETATM    4  H           1     -21.946  -3.532  -8.858  0.00  0.00     0.163 HD
HETATM    5  O           1     -23.375  -4.924  -6.438  0.00  0.00    -0.271 OA
BRANCH   3   6
HETATM    6  C           1     -24.060  -3.880  -8.838  0.00  0.00     0.235 C 
BRANCH   6   7
HETATM    7  C           1     -24.031  -3.443 -10.282  0.00  0.00     0.191 C 
HETATM    8  O           1     -25.098  -3.173 -10.876  0.00  0.00    -0.647 OA
HETATM    9  O           1     -22.940  -3.351 -10.885  0.00  0.00    -0.647 OA
ENDBRANCH   6   7
ENDBRANCH   3   6
ENDBRANCH   1   2
BRANCH   1  10
HETATM   10  C           1     -20.121  -5.082  -7.593  0.00  0.00     0.153 C 
HETATM   11  C           1     -18.784  -4.356  -7.537  0.00  0.00     0.042 C 
BRANCH  10  12
HETATM   12  O           1     -19.921  -6.446  -7.340  0.00  0.00    -0.393 OA
HETATM   13  H           1     -20.733  -6.783  -6.999  0.00  0.00     0.210 HD
ENDBRANCH  10  12
ENDBRANCH   1  10
BRANCH   1  14
HETATM   14  N           1     -21.020  -5.359  -5.311  0.00  0.00    -0.064 N 
HETATM   15  H           1     -20.568  -4.831  -4.531  0.00  0.00     0.275 HD
HETATM   16  H           1     -21.994  -5.619  -5.037  0.00  0.00     0.275 HD
HETATM   17  H           1     -20.470  -6.227  -5.508  0.00  0.00     0.275 HD
ENDBRANCH   1  14
TORSDOF 6
ENDMDL
MODEL 6
REMARK VINA RESULT:      -4.8      2.918      3.767
REMARK  6 active torsions:
REMARK  status: ('A' for Active; 'I' for Inactive)
REMARK       I    between atoms: C_1  and  N_3 
REMARK    1  A    between atoms: C_1  and  C_2 
REMARK    2  A    between atoms: C_2  and  C_9 
REMARK    3  A    between atoms: C_2  and  N_6 
REMARK    4  A    between atoms: N_3  and  C_4 
REMARK    5  A    between atoms: C_4  and  C_14 
REMARK    6  A    between atoms: C_9  and  O_11 
ROOT
HETATM    1  C           1     -28.340  -5.507 -17.131  0.00  0.00     0.302 C 
ENDROOT
BRANCH   1   2
HETATM    2  C           1     -26.892  -5.888 -17.319  0.00  0.00     0.251 C 
HETATM    3  N           1     -26.494  -6.526 -18.464  0.00  0.00    -0.349 N 
HETATM    4  H           1     -27.172  -6.741 -19.184  0.00  0.00     0.163 HD
HETATM    5  O           1     -26.084  -5.631 -16.459  0.00  0.00    -0.271 OA
BRANCH   3   6
HETATM    6  C           1     -25.104  -6.892 -18.644  0.00  0.00     0.235 C 
BRANCH   6   7
HETATM    7  C           1     -24.824  -7.103 -20.112  0.00  0.00     0.191 C 
HETATM    8  O           1     -24.096  -8.050 -20.480  0.00  0.00    -0.647 OA
HETATM    9  O           1     -25.321  -6.331 -20.960  0.00  0.00    -0.647 OA
ENDBRANCH   6   7
ENDBRANCH   3   6
ENDBRANCH   1   2
BRANCH   1  10
HETATM   10  C           1     -29.116  -6.705 -16.602  0.00  0.00     0.153 C 
HETATM   11  C           1     -30.011  -7.257 -17.704  0.00  0.00     0.042 C 
BRANCH  10  12
HETATM   12  O           1     -28.219  -7.699 -16.189  0.00  0.00    -0.393 OA
HETATM   13  H           1     -28.321  -7.790 -15.256  0.00  0.00     0.210 HD
ENDBRANCH  10  12
ENDBRANCH   1  10
BRANCH   1  14
HETATM   14  N           1     -28.918  -5.079 -18.447  0.00  0.00    -0.064 N 
HETATM   15  H           1     -29.512  -5.847 -18.834  0.00  0.00     0.275 HD
HETATM   16  H           1     -29.503  -4.224 -18.309  0.00  0.00     0.275 HD
HETATM   17  H           1     -28.143  -4.867 -19.116  0.00  0.00     0.275 HD
ENDBRANCH   1  14
TORSDOF 6
ENDMDL
MODEL 7
REMARK VINA RESULT:      -4.8      9.581     11.508
REMARK  6 active torsions:
REMARK  status: ('A' for Active; 'I' for Inactive)
REMARK       I    between atoms: C_1  and  N_3 
REMARK    1  A    between atoms: C_1  and  C_2 
REMARK    2  A    between atoms: C_2  and  C_9 
REMARK    3  A    between atoms: C_2  and  N_6 
REMARK    4  A    between atoms: N_3  and  C_4 
REMARK    5  A    between atoms: C_4  and  C_14 
REMARK    6  A    between atoms: C_9  and  O_11 
ROOT
HETATM    1  C           1     -22.116  -3.620  -9.303  0.00  0.00     0.302 C 
ENDROOT
BRANCH   1   2
HETATM    2  C           1     -21.463  -4.084  -8.025  0.00  0.00     0.251 C 
HETATM    3  N           1     -21.053  -5.384  -7.899  0.00  0.00    -0.349 N 
HETATM    4  H           1     -21.188  -6.034  -8.663  0.00  0.00     0.163 HD
HETATM    5  O           1     -21.301  -3.309  -7.113  0.00  0.00    -0.271 OA
BRANCH   3   6
HETATM    6  C           1     -20.425  -5.831  -6.671  0.00  0.00     0.235 C 
BRANCH   6   7
HETATM    7  C           1     -21.411  -6.640  -5.865  0.00  0.00     0.191 C 
HETATM    8  O           1     -22.269  -6.062  -5.163  0.00  0.00    -0.647 OA
HETATM    9  O           1     -21.370  -7.889  -5.900  0.00  0.00    -0.647 OA
ENDBRANCH   6   7
ENDBRANCH   3   6
ENDBRANCH   1   2
BRANCH   1  10
HETATM   10  C           1     -23.628  -3.762  -9.182  0.00  0.00     0.153 C 
HETATM   11  C           1     -24.118  -4.820 -10.161  0.00  0.00     0.042 C 
BRANCH  10  12
HETATM   12  O           1     -23.958  -4.147  -7.875  0.00  0.00    -0.393 OA
HETATM   13  H           1     -24.852  -3.886  -7.731  0.00  0.00     0.210 HD
ENDBRANCH  10  12
ENDBRANCH   1  10
BRANCH   1  14
HETATM   14  N           1     -21.626  -4.457 -10.447  0.00  0.00    -0.064 N 
HETATM   15  H           1     -20.685  -4.119 -10.749  0.00  0.00     0.275 HD
HETATM   16  H           1     -21.557  -5.455 -10.144  0.00  0.00     0.275 HD
HETATM   17  H           1     -22.297  -4.380 -11.246  0.00  0.00     0.275 HD
ENDBRANCH   1  14
TORSDOF 6
ENDMDL
MODEL 8
REMARK VINA RESULT:      -4.8      9.563     11.921
REMARK  6 active torsions:
REMARK  status: ('A' for Active; 'I' for Inactive)
REMARK       I    between atoms: C_1  and  N_3 
REMARK    1  A    between atoms: C_1  and  C_2 
REMARK    2  A    between atoms: C_2  and  C_9 
REMARK    3  A    between atoms: C_2  and  N_6 
REMARK    4  A    between atoms: N_3  and  C_4 
REMARK    5  A    between atoms: C_4  and  C_14 
REMARK    6  A    between atoms: C_9  and  O_11 
ROOT
HETATM    1  C           1     -20.963  -5.682  -7.130  0.00  0.00     0.302 C 
ENDROOT
BRANCH   1   2
HETATM    2  C           1     -21.680  -4.492  -7.719  0.00  0.00     0.251 C 
HETATM    3  N           1     -22.512  -4.657  -8.794  0.00  0.00    -0.349 N 
HETATM    4  H           1     -22.646  -5.577  -9.193  0.00  0.00     0.163 HD
HETATM    5  O           1     -21.521  -3.394  -7.242  0.00  0.00    -0.271 OA
BRANCH   3   6
HETATM    6  C           1     -23.201  -3.514  -9.359  0.00  0.00     0.235 C 
BRANCH   6   7
HETATM    7  C           1     -24.087  -3.969 -10.493  0.00  0.00     0.191 C 
HETATM    8  O           1     -25.056  -3.265 -10.852  0.00  0.00    -0.647 OA
HETATM    9  O           1     -23.851  -5.051 -11.074  0.00  0.00    -0.647 OA
ENDBRANCH   6   7
ENDBRANCH   3   6
ENDBRANCH   1   2
BRANCH   1  10
HETATM   10  C           1     -21.685  -6.138  -5.869  0.00  0.00     0.153 C 
HETATM   11  C           1     -20.862  -5.753  -4.647  0.00  0.00     0.042 C 
BRANCH  10  12
HETATM   12  O           1     -22.941  -5.520  -5.800  0.00  0.00    -0.393 OA
HETATM   13  H           1     -23.100  -5.325  -4.891  0.00  0.00     0.210 HD
ENDBRANCH  10  12
ENDBRANCH   1  10
BRANCH   1  14
HETATM   14  N           1     -19.554  -5.297  -6.788  0.00  0.00    -0.064 N 
HETATM   15  H           1     -18.894  -5.772  -7.443  0.00  0.00     0.275 HD
HETATM   16  H           1     -19.445  -4.261  -6.874  0.00  0.00     0.275 HD
HETATM   17  H           1     -19.343  -5.590  -5.807  0.00  0.00     0.275 HD
ENDBRANCH   1  14
TORSDOF 6
ENDMDL
MODEL 9
REMARK VINA RESULT:      -4.7     21.365     22.656
REMARK  6 active torsions:
REMARK  status: ('A' for Active; 'I' for Inactive)
REMARK       I    between atoms: C_1  and  N_3 
REMARK    1  A    between atoms: C_1  and  C_2 
REMARK    2  A    between atoms: C_2  and  C_9 
REMARK    3  A    between atoms: C_2  and  N_6 
REMARK    4  A    between atoms: N_3  and  C_4 
REMARK    5  A    between atoms: C_4  and  C_14 
REMARK    6  A    between atoms: C_9  and  O_11 
ROOT
HETATM    1  C           1      -9.687   8.638 -20.699  0.00  0.00     0.302 C 
ENDROOT
BRANCH   1   2
HETATM    2  C           1      -9.672   7.134 -20.816  0.00  0.00     0.251 C 
HETATM    3  N           1     -10.817   6.462 -21.153  0.00  0.00    -0.349 N 
HETATM    4  H           1     -11.673   6.975 -21.323  0.00  0.00     0.163 HD
HETATM    5  O           1      -8.651   6.523 -20.613  0.00  0.00    -0.271 OA
BRANCH   3   6
HETATM    6  C           1     -10.803   5.017 -21.266  0.00  0.00     0.235 C 
BRANCH   6   7
HETATM    7  C           1     -11.327   4.407 -19.989  0.00  0.00     0.191 C 
HETATM    8  O           1     -11.753   5.143 -19.072  0.00  0.00    -0.647 OA
HETATM    9  O           1     -11.335   3.165 -19.848  0.00  0.00    -0.647 OA
ENDBRANCH   6   7
ENDBRANCH   3   6
ENDBRANCH   1   2
BRANCH   1  10
HETATM   10  C           1     -10.339   9.039 -19.383  0.00  0.00     0.153 C 
HETATM   11  C           1     -11.781   9.458 -19.637  0.00  0.00     0.042 C 
BRANCH  10  12
HETATM   12  O           1     -10.318   7.951 -18.500  0.00  0.00    -0.393 OA
HETATM   13  H           1      -9.617   7.386 -18.778  0.00  0.00     0.210 HD
ENDBRANCH  10  12
ENDBRANCH   1  10
BRANCH   1  14
HETATM   14  N           1     -10.467   9.221 -21.840  0.00  0.00    -0.064 N 
HETATM   15  H           1     -11.443   8.847 -21.823  0.00  0.00     0.275 HD
HETATM   16  H           1     -10.491  10.262 -21.750  0.00  0.00     0.275 HD
HETATM   17  H           1     -10.010   8.959 -22.743  0.00  0.00     0.275 HD
ENDBRANCH   1  14
TORSDOF 6
ENDMDL
