MODEL 1
REMARK VINA RESULT:      -6.0      0.000      0.000
REMARK  6 active torsions:
REMARK  status: ('A' for Active; 'I' for Inactive)
REMARK    1  A    between atoms: C_2  and  C_4 
REMARK    2  A    between atoms: C_2  and  C_16 
REMARK    3  A    between atoms: C_2  and  N_6 
REMARK    4  A    between atoms: O_3  and  C_4 
REMARK       I    between atoms: N_6  and  C_11 
REMARK    5  A    between atoms: C_10  and  C_11 
REMARK    6  A    between atoms: C_10  and  N_18 
ROOT
HETATM    1  N           1     -22.072  -4.704  -9.029  0.00  0.00    -0.343 N 
HETATM    2  C           1     -21.640  -4.393  -7.768  0.00  0.00     0.248 C 
HETATM    3  H           1     -22.052  -5.664  -9.348  0.00  0.00     0.163 HD
HETATM    4  O           1     -21.664  -3.246  -7.388  0.00  0.00    -0.271 OA
ENDROOT
BRANCH   1   5
HETATM    5  C           1     -22.558  -3.658  -9.908  0.00  0.00     0.214 C 
BRANCH   5   6
HETATM    6  C           1     -21.747  -3.663 -11.197  0.00  0.00     0.147 C 
HETATM    7  C           1     -20.405  -4.339 -10.949  0.00  0.00     0.042 C 
BRANCH   6   8
HETATM    8  O           1     -22.448  -4.364 -12.187  0.00  0.00    -0.393 OA
HETATM    9  H           1     -21.993  -5.177 -12.323  0.00  0.00     0.210 HD
ENDBRANCH   6   8
ENDBRANCH   5   6
BRANCH   5  10
HETATM   10  C           1     -24.012  -3.904 -10.226  0.00  0.00     0.199 C 
HETATM   11  O           1     -24.713  -2.983 -10.697  0.00  0.00    -0.646 OA
HETATM   12  O           1     -24.515  -5.029 -10.019  0.00  0.00    -0.646 OA
ENDBRANCH   5  10
ENDBRANCH   1   5
BRANCH   2  13
HETATM   13  C           1     -21.135  -5.482  -6.853  0.00  0.00     0.270 C 
HETATM   14  C           1     -20.564  -4.857  -5.586  0.00  0.00     0.050 C 
BRANCH  13  15
HETATM   15  N           1     -20.062  -6.262  -7.552  0.00  0.00    -0.067 N 
HETATM   16  H           1     -19.273  -5.624  -7.800  0.00  0.00     0.275 HD
HETATM   17  H           1     -20.453  -6.688  -8.423  0.00  0.00     0.275 HD
HETATM   18  H           1     -19.714  -7.018  -6.921  0.00  0.00     0.275 HD
ENDBRANCH  13  15
ENDBRANCH   2  13
TORSDOF 6
ENDMDL
MODEL 2
REMARK VINA RESULT:      -5.0      1.638      2.506
REMARK  6 active torsions:
REMARK  status: ('A' for Active; 'I' for Inactive)
REMARK    1  A    between atoms: C_2  and  C_4 
REMARK    2  A    between atoms: C_2  and  C_16 
REMARK    3  A    between atoms: C_2  and  N_6 
REMARK    4  A    between atoms: O_3  and  C_4 
REMARK       I    between atoms: N_6  and  C_11 
REMARK    5  A    between atoms: C_10  and  C_11 
REMARK    6  A    between atoms: C_10  and  N_18 
ROOT
HETATM    1  N           1     -22.288  -4.371  -8.789  0.00  0.00    -0.343 N 
HETATM    2  C           1     -21.428  -5.004  -7.933  0.00  0.00     0.248 C 
HETATM    3  H           1     -22.906  -3.648  -8.442  0.00  0.00     0.163 HD
HETATM    4  O           1     -20.690  -5.867  -8.347  0.00  0.00    -0.271 OA
ENDROOT
BRANCH   1   5
HETATM    5  C           1     -22.314  -4.736 -10.192  0.00  0.00     0.214 C 
BRANCH   5   6
HETATM    6  C           1     -23.751  -4.704 -10.697  0.00  0.00     0.147 C 
HETATM    7  C           1     -24.507  -3.578 -10.004  0.00  0.00     0.042 C 
BRANCH   6   8
HETATM    8  O           1     -23.755  -4.488 -12.081  0.00  0.00    -0.393 OA
HETATM    9  H           1     -24.648  -4.567 -12.369  0.00  0.00     0.210 HD
ENDBRANCH   6   8
ENDBRANCH   5   6
BRANCH   5  10
HETATM   10  C           1     -21.481  -3.757 -10.981  0.00  0.00     0.199 C 
HETATM   11  O           1     -21.954  -2.644 -11.295  0.00  0.00    -0.646 OA
HETATM   12  O           1     -20.316  -4.059 -11.321  0.00  0.00    -0.646 OA
ENDBRANCH   5  10
ENDBRANCH   1   5
BRANCH   2  13
HETATM   13  C           1     -21.400  -4.624  -6.472  0.00  0.00     0.270 C 
HETATM   14  C           1     -19.969  -4.691  -5.956  0.00  0.00     0.050 C 
BRANCH  13  15
HETATM   15  N           1     -22.257  -5.578  -5.693  0.00  0.00    -0.067 N 
HETATM   16  H           1     -21.668  -6.362  -5.335  0.00  0.00     0.275 HD
HETATM   17  H           1     -23.007  -5.959  -6.314  0.00  0.00     0.275 HD
HETATM   18  H           1     -22.694  -5.075  -4.889  0.00  0.00     0.275 HD
ENDBRANCH  13  15
ENDBRANCH   2  13
TORSDOF 6
ENDMDL
MODEL 3
REMARK VINA RESULT:      -4.8      1.692      2.660
REMARK  6 active torsions:
REMARK  status: ('A' for Active; 'I' for Inactive)
REMARK    1  A    between atoms: C_2  and  C_4 
REMARK    2  A    between atoms: C_2  and  C_16 
REMARK    3  A    between atoms: C_2  and  N_6 
REMARK    4  A    between atoms: O_3  and  C_4 
REMARK       I    between atoms: N_6  and  C_11 
REMARK    5  A    between atoms: C_10  and  C_11 
REMARK    6  A    between atoms: C_10  and  N_18 
ROOT
HETATM    1  N           1     -21.273  -4.309  -8.891  0.00  0.00    -0.343 N 
HETATM    2  C           1     -20.970  -5.214  -7.909  0.00  0.00     0.248 C 
HETATM    3  H           1     -20.627  -3.559  -9.104  0.00  0.00     0.163 HD
HETATM    4  O           1     -21.741  -6.109  -7.655  0.00  0.00    -0.271 OA
ENDROOT
BRANCH   1   5
HETATM    5  C           1     -22.518  -4.424  -9.624  0.00  0.00     0.214 C 
BRANCH   5   6
HETATM    6  C           1     -23.580  -3.559  -8.959  0.00  0.00     0.147 C 
HETATM    7  C           1     -24.797  -3.458  -9.870  0.00  0.00     0.042 C 
BRANCH   6   8
HETATM    8  O           1     -23.956  -4.137  -7.738  0.00  0.00    -0.393 OA
HETATM    9  H           1     -24.894  -4.226  -7.754  0.00  0.00     0.210 HD
ENDBRANCH   6   8
ENDBRANCH   5   6
BRANCH   5  10
HETATM   10  C           1     -22.309  -3.962 -11.045  0.00  0.00     0.199 C 
HETATM   11  O           1     -21.749  -2.868 -11.270  0.00  0.00    -0.646 OA
HETATM   12  O           1     -22.696  -4.673 -11.998  0.00  0.00    -0.646 OA
ENDBRANCH   5  10
ENDBRANCH   1   5
BRANCH   2  13
HETATM   13  C           1     -19.674  -5.094  -7.146  0.00  0.00     0.270 C 
HETATM   14  C           1     -19.969  -4.717  -5.699  0.00  0.00     0.050 C 
BRANCH  13  15
HETATM   15  N           1     -18.822  -4.032  -7.774  0.00  0.00    -0.067 N 
HETATM   16  H           1     -19.075  -3.101  -7.376  0.00  0.00     0.275 HD
HETATM   17  H           1     -18.980  -4.025  -8.808  0.00  0.00     0.275 HD
HETATM   18  H           1     -17.815  -4.233  -7.579  0.00  0.00     0.275 HD
ENDBRANCH  13  15
ENDBRANCH   2  13
TORSDOF 6
ENDMDL
MODEL 4
REMARK VINA RESULT:      -4.7     17.232     18.728
REMARK  6 active torsions:
REMARK  status: ('A' for Active; 'I' for Inactive)
REMARK    1  A    between atoms: C_2  and  C_4 
REMARK    2  A    between atoms: C_2  and  C_16 
REMARK    3  A    between atoms: C_2  and  N_6 
REMARK    4  A    between atoms: O_3  and  C_4 
REMARK       I    between atoms: N_6  and  C_11 
REMARK    5  A    between atoms: C_10  and  C_11 
REMARK    6  A    between atoms: C_10  and  N_18 
ROOT
HETATM    1  N           1     -12.067   5.648 -20.957  0.00  0.00    -0.343 N 
HETATM    2  C           1     -13.267   4.990 -20.938  0.00  0.00     0.248 C 
HETATM    3  H           1     -11.569   5.767 -21.831  0.00  0.00     0.163 HD
HETATM    4  O           1     -13.861   4.849 -19.896  0.00  0.00    -0.271 OA
ENDROOT
BRANCH   1   5
HETATM    5  C           1     -11.509   6.176 -19.727  0.00  0.00     0.214 C 
BRANCH   5   6
HETATM    6  C           1     -10.110   5.610 -19.522  0.00  0.00     0.147 C 
HETATM    7  C           1      -9.167   6.200 -20.561  0.00  0.00     0.042 C 
BRANCH   6   8
HETATM    8  O           1      -9.657   5.940 -18.237  0.00  0.00    -0.393 OA
HETATM    9  H           1      -9.123   5.222 -17.942  0.00  0.00     0.210 HD
ENDBRANCH   6   8
ENDBRANCH   5   6
BRANCH   5  10
HETATM   10  C           1     -11.437   7.680 -19.813  0.00  0.00     0.199 C 
HETATM   11  O           1     -11.022   8.343 -18.838  0.00  0.00    -0.646 OA
HETATM   12  O           1     -11.791   8.265 -20.860  0.00  0.00    -0.646 OA
ENDBRANCH   5  10
ENDBRANCH   1   5
BRANCH   2  13
HETATM   13  C           1     -13.847   4.441 -22.218  0.00  0.00     0.270 C 
HETATM   14  C           1     -15.272   4.953 -22.392  0.00  0.00     0.050 C 
BRANCH  13  15
HETATM   15  N           1     -13.860   2.943 -22.158  0.00  0.00    -0.067 N 
HETATM   16  H           1     -14.802   2.614 -21.850  0.00  0.00     0.275 HD
HETATM   17  H           1     -13.136   2.616 -21.478  0.00  0.00     0.275 HD
HETATM   18  H           1     -13.648   2.554 -23.104  0.00  0.00     0.275 HD
ENDBRANCH  13  15
ENDBRANCH   2  13
TORSDOF 6
ENDMDL
MODEL 5
REMARK VINA RESULT:      -4.7     17.450     19.167
REMARK  6 active torsions:
REMARK  status: ('A' for Active; 'I' for Inactive)
REMARK    1  A    between atoms: C_2  and  C_4 
REMARK    2  A    between atoms: C_2  and  C_16 
REMARK    3  A    between atoms: C_2  and  N_6 
REMARK    4  A    between atoms: O_3  and  C_4 
REMARK       I    between atoms: N_6  and  C_11 
REMARK    5  A    between atoms: C_10  and  C_11 
REMARK    6  A    between atoms: C_10  and  N_18 
ROOT
HETATM    1  N           1     -12.304   6.668 -20.419  0.00  0.00    -0.343 N 
HETATM    2  C           1     -12.693   5.951 -21.519  0.00  0.00     0.248 C 
HETATM    3  H           1     -12.957   6.825 -19.661  0.00  0.00     0.163 HD
HETATM    4  O           1     -11.914   5.764 -22.423  0.00  0.00    -0.271 OA
ENDROOT
BRANCH   1   5
HETATM    5  C           1     -10.959   7.203 -20.340  0.00  0.00     0.214 C 
BRANCH   5   6
HETATM    6  C           1     -10.988   8.540 -19.611  0.00  0.00     0.147 C 
HETATM    7  C           1     -12.432   8.930 -19.324  0.00  0.00     0.042 C 
BRANCH   6   8
HETATM    8  O           1     -10.285   8.428 -18.404  0.00  0.00    -0.393 OA
HETATM    9  H           1     -10.594   9.118 -17.841  0.00  0.00     0.210 HD
ENDBRANCH   6   8
ENDBRANCH   5   6
BRANCH   5  10
HETATM   10  C           1     -10.078   6.237 -19.587  0.00  0.00     0.199 C 
HETATM   11  O           1      -8.868   6.132 -19.883  0.00  0.00    -0.646 OA
HETATM   12  O           1     -10.558   5.541 -18.665  0.00  0.00    -0.646 OA
ENDBRANCH   5  10
ENDBRANCH   1   5
BRANCH   2  13
HETATM   13  C           1     -14.093   5.394 -21.601  0.00  0.00     0.270 C 
HETATM   14  C           1     -14.542   4.939 -20.218  0.00  0.00     0.050 C 
BRANCH  13  15
HETATM   15  N           1     -14.110   4.226 -22.541  0.00  0.00    -0.067 N 
HETATM   16  H           1     -14.109   3.337 -21.992  0.00  0.00     0.275 HD
HETATM   17  H           1     -13.263   4.259 -23.153  0.00  0.00     0.275 HD
HETATM   18  H           1     -14.969   4.268 -23.134  0.00  0.00     0.275 HD
ENDBRANCH  13  15
ENDBRANCH   2  13
TORSDOF 6
ENDMDL
MODEL 6
REMARK VINA RESULT:      -4.7      2.523      3.770
REMARK  6 active torsions:
REMARK  status: ('A' for Active; 'I' for Inactive)
REMARK    1  A    between atoms: C_2  and  C_4 
REMARK    2  A    between atoms: C_2  and  C_16 
REMARK    3  A    between atoms: C_2  and  N_6 
REMARK    4  A    between atoms: O_3  and  C_4 
REMARK       I    between atoms: N_6  and  C_11 
REMARK    5  A    between atoms: C_10  and  C_11 
REMARK    6  A    between atoms: C_10  and  N_18 
ROOT
HETATM    1  N           1     -21.423  -5.092  -6.665  0.00  0.00    -0.343 N 
HETATM    2  C           1     -21.193  -6.295  -6.054  0.00  0.00     0.248 C 
HETATM    3  H           1     -21.491  -4.248  -6.110  0.00  0.00     0.163 HD
HETATM    4  O           1     -21.112  -7.303  -6.717  0.00  0.00    -0.271 OA
ENDROOT
BRANCH   1   5
HETATM    5  C           1     -21.569  -5.026  -8.106  0.00  0.00     0.214 C 
BRANCH   5   6
HETATM    6  C           1     -22.734  -4.110  -8.456  0.00  0.00     0.147 C 
HETATM    7  C           1     -23.330  -4.534  -9.791  0.00  0.00     0.042 C 
BRANCH   6   8
HETATM    8  O           1     -23.713  -4.197  -7.457  0.00  0.00    -0.393 OA
HETATM    9  H           1     -23.619  -3.435  -6.912  0.00  0.00     0.210 HD
ENDBRANCH   6   8
ENDBRANCH   5   6
BRANCH   5  10
HETATM   10  C           1     -20.300  -4.483  -8.715  0.00  0.00     0.199 C 
HETATM   11  O           1     -19.586  -3.688  -8.068  0.00  0.00    -0.646 OA
HETATM   12  O           1     -19.962  -4.829  -9.869  0.00  0.00    -0.646 OA
ENDBRANCH   5  10
ENDBRANCH   1   5
BRANCH   2  13
HETATM   13  C           1     -21.041  -6.364  -4.554  0.00  0.00     0.270 C 
HETATM   14  C           1     -20.506  -7.734  -4.159  0.00  0.00     0.050 C 
BRANCH  13  15
HETATM   15  N           1     -22.376  -6.145  -3.908  0.00  0.00    -0.067 N 
HETATM   16  H           1     -23.048  -6.872  -4.240  0.00  0.00     0.275 HD
HETATM   17  H           1     -22.735  -5.196  -4.161  0.00  0.00     0.275 HD
HETATM   18  H           1     -22.276  -6.212  -2.870  0.00  0.00     0.275 HD
ENDBRANCH  13  15
ENDBRANCH   2  13
TORSDOF 6
ENDMDL
MODEL 7
REMARK VINA RESULT:      -4.6     16.958     18.385
REMARK  6 active torsions:
REMARK  status: ('A' for Active; 'I' for Inactive)
REMARK    1  A    between atoms: C_2  and  C_4 
REMARK    2  A    between atoms: C_2  and  C_16 
REMARK    3  A    between atoms: C_2  and  N_6 
REMARK    4  A    between atoms: O_3  and  C_4 
REMARK       I    between atoms: N_6  and  C_11 
REMARK    5  A    between atoms: C_10  and  C_11 
REMARK    6  A    between atoms: C_10  and  N_18 
ROOT
HETATM    1  N           1     -11.940   5.408 -20.730  0.00  0.00    -0.343 N 
HETATM    2  C           1     -11.391   6.635 -20.988  0.00  0.00     0.248 C 
HETATM    3  H           1     -11.607   4.859 -19.947  0.00  0.00     0.163 HD
HETATM    4  O           1     -11.789   7.289 -21.923  0.00  0.00    -0.271 OA
ENDROOT
BRANCH   1   5
HETATM    5  C           1     -12.998   4.894 -21.578  0.00  0.00     0.214 C 
BRANCH   5   6
HETATM    6  C           1     -12.684   3.453 -21.962  0.00  0.00     0.147 C 
HETATM    7  C           1     -11.710   2.861 -20.952  0.00  0.00     0.042 C 
BRANCH   6   8
HETATM    8  O           1     -13.867   2.703 -21.967  0.00  0.00    -0.393 OA
HETATM    9  H           1     -14.565   3.288 -21.726  0.00  0.00     0.210 HD
ENDBRANCH   6   8
ENDBRANCH   5   6
BRANCH   5  10
HETATM   10  C           1     -14.308   4.942 -20.832  0.00  0.00     0.199 C 
HETATM   11  O           1     -15.355   5.278 -21.427  0.00  0.00    -0.646 OA
HETATM   12  O           1     -14.347   4.646 -19.618  0.00  0.00    -0.646 OA
ENDBRANCH   5  10
ENDBRANCH   1   5
BRANCH   2  13
HETATM   13  C           1     -10.290   7.170 -20.106  0.00  0.00     0.270 C 
HETATM   14  C           1      -9.419   8.131 -20.905  0.00  0.00     0.050 C 
BRANCH  13  15
HETATM   15  N           1      -9.451   6.031 -19.610  0.00  0.00    -0.067 N 
HETATM   16  H           1      -8.766   5.755 -20.349  0.00  0.00     0.275 HD
HETATM   17  H           1     -10.067   5.218 -19.383  0.00  0.00     0.275 HD
HETATM   18  H           1      -8.935   6.327 -18.750  0.00  0.00     0.275 HD
ENDBRANCH  13  15
ENDBRANCH   2  13
TORSDOF 6
ENDMDL
MODEL 8
REMARK VINA RESULT:      -4.3     17.605     19.325
REMARK  6 active torsions:
REMARK  status: ('A' for Active; 'I' for Inactive)
REMARK    1  A    between atoms: C_2  and  C_4 
REMARK    2  A    between atoms: C_2  and  C_16 
REMARK    3  A    between atoms: C_2  and  N_6 
REMARK    4  A    between atoms: O_3  and  C_4 
REMARK       I    between atoms: N_6  and  C_11 
REMARK    5  A    between atoms: C_10  and  C_11 
REMARK    6  A    between atoms: C_10  and  N_18 
ROOT
HETATM    1  N           1     -11.448   5.694 -20.378  0.00  0.00    -0.343 N 
HETATM    2  C           1     -11.862   4.726 -21.254  0.00  0.00     0.248 C 
HETATM    3  H           1     -11.413   5.496 -19.386  0.00  0.00     0.163 HD
HETATM    4  O           1     -11.904   4.962 -22.438  0.00  0.00    -0.271 OA
ENDROOT
BRANCH   1   5
HETATM    5  C           1     -11.061   7.001 -20.872  0.00  0.00     0.214 C 
BRANCH   5   6
HETATM    6  C           1     -11.909   8.069 -20.193  0.00  0.00     0.147 C 
HETATM    7  C           1     -12.520   8.979 -21.250  0.00  0.00     0.042 C 
BRANCH   6   8
HETATM    8  O           1     -12.931   7.456 -19.456  0.00  0.00    -0.393 OA
HETATM    9  H           1     -13.620   7.247 -20.063  0.00  0.00     0.210 HD
ENDBRANCH   6   8
ENDBRANCH   5   6
BRANCH   5  10
HETATM   10  C           1      -9.604   7.243 -20.564  0.00  0.00     0.199 C 
HETATM   11  O           1      -8.848   6.279 -20.319  0.00  0.00    -0.646 OA
HETATM   12  O           1      -9.153   8.409 -20.555  0.00  0.00    -0.646 OA
ENDBRANCH   5  10
ENDBRANCH   1   5
BRANCH   2  13
HETATM   13  C           1     -12.264   3.365 -20.740  0.00  0.00     0.270 C 
HETATM   14  C           1     -11.043   2.455 -20.700  0.00  0.00     0.050 C 
BRANCH  13  15
HETATM   15  N           1     -13.297   2.774 -21.653  0.00  0.00    -0.067 N 
HETATM   16  H           1     -13.581   3.484 -22.364  0.00  0.00     0.275 HD
HETATM   17  H           1     -14.132   2.487 -21.093  0.00  0.00     0.275 HD
HETATM   18  H           1     -12.898   1.937 -22.135  0.00  0.00     0.275 HD
ENDBRANCH  13  15
ENDBRANCH   2  13
TORSDOF 6
ENDMDL
MODEL 9
REMARK VINA RESULT:      -4.3      3.407      6.049
REMARK  6 active torsions:
REMARK  status: ('A' for Active; 'I' for Inactive)
REMARK    1  A    between atoms: C_2  and  C_4 
REMARK    2  A    between atoms: C_2  and  C_16 
REMARK    3  A    between atoms: C_2  and  N_6 
REMARK    4  A    between atoms: O_3  and  C_4 
REMARK       I    between atoms: N_6  and  C_11 
REMARK    5  A    between atoms: C_10  and  C_11 
REMARK    6  A    between atoms: C_10  and  N_18 
ROOT
HETATM    1  N           1     -21.111  -6.558  -6.500  0.00  0.00    -0.343 N 
HETATM    2  C           1     -20.990  -5.248  -6.880  0.00  0.00     0.248 C 
HETATM    3  H           1     -21.497  -7.238  -7.144  0.00  0.00     0.163 HD
HETATM    4  O           1     -20.531  -4.437  -6.111  0.00  0.00    -0.271 OA
ENDROOT
BRANCH   1   5
HETATM    5  C           1     -20.689  -6.971  -5.176  0.00  0.00     0.214 C 
BRANCH   5   6
HETATM    6  C           1     -21.870  -6.887  -4.218  0.00  0.00     0.147 C 
HETATM    7  C           1     -21.442  -6.163  -2.948  0.00  0.00     0.042 C 
BRANCH   6   8
HETATM    8  O           1     -22.916  -6.182  -4.828  0.00  0.00    -0.393 OA
HETATM    9  H           1     -23.719  -6.507  -4.459  0.00  0.00     0.210 HD
ENDBRANCH   6   8
ENDBRANCH   5   6
BRANCH   5  10
HETATM   10  C           1     -20.185  -8.392  -5.230  0.00  0.00     0.199 C 
HETATM   11  O           1     -19.091  -8.689  -4.702  0.00  0.00    -0.646 OA
HETATM   12  O           1     -20.862  -9.274  -5.803  0.00  0.00    -0.646 OA
ENDBRANCH   5  10
ENDBRANCH   1   5
BRANCH   2  13
HETATM   13  C           1     -21.430  -4.818  -8.258  0.00  0.00     0.270 C 
HETATM   14  C           1     -20.208  -4.446  -9.088  0.00  0.00     0.050 C 
BRANCH  13  15
HETATM   15  N           1     -22.337  -3.629  -8.143  0.00  0.00    -0.067 N 
HETATM   16  H           1     -22.800  -3.455  -9.062  0.00  0.00     0.275 HD
HETATM   17  H           1     -21.777  -2.790  -7.869  0.00  0.00     0.275 HD
HETATM   18  H           1     -23.064  -3.814  -7.416  0.00  0.00     0.275 HD
ENDBRANCH  13  15
ENDBRANCH   2  13
TORSDOF 6
ENDMDL
