MODEL 1
REMARK VINA RESULT:      -8.0      0.000      0.000
REMARK  8 active torsions:
REMARK  status: ('A' for Active; 'I' for Inactive)
REMARK    1  A    between atoms: C_2  and  C_3 
REMARK    2  A    between atoms: C_2  and  C_22 
REMARK    3  A    between atoms: C_2  and  N_23 
REMARK    4  A    between atoms: C_3  and  O_26 
REMARK    5  A    between atoms: C_4  and  C_5 
REMARK    6  A    between atoms: C_5  and  C_18 
REMARK    7  A    between atoms: N_11  and  C_18 
REMARK    8  A    between atoms: C_18  and  C_21 
REMARK       I    between atoms: C_21  and  N_23 
ROOT
HETATM    1  C           1     -21.149  -5.901  -7.014  0.00  0.00     0.278 C 
ENDROOT
BRANCH   1   2
HETATM    2  C           1     -21.326  -5.612  -5.529  0.00  0.00     0.083 C 
BRANCH   2   3
HETATM    3  C           1     -21.350  -6.900  -4.768  0.00  0.00    -0.028 A 
HETATM    4  C           1     -21.090  -8.151  -5.281  0.00  0.00     0.096 A 
HETATM    5  N           1     -21.216  -9.056  -4.261  0.00  0.00    -0.365 N 
HETATM    6  C           1     -21.553  -8.413  -3.091  0.00  0.00     0.042 A 
HETATM    7  H           1     -21.075 -10.092  -4.358  0.00  0.00     0.165 HD
HETATM    8  C           1     -21.782  -8.927  -1.809  0.00  0.00     0.030 A 
HETATM    9  C           1     -21.643  -7.052  -3.384  0.00  0.00    -0.002 A 
HETATM   10  C           1     -22.114  -8.019  -0.799  0.00  0.00     0.002 A 
HETATM   11  C           1     -22.211  -6.655  -1.063  0.00  0.00     0.001 A 
HETATM   12  C           1     -21.979  -6.157  -2.351  0.00  0.00     0.014 A 
ENDBRANCH   2   3
ENDBRANCH   1   2
BRANCH   1  13
HETATM   13  N           1     -19.693  -6.103  -7.313  0.00  0.00    -0.066 N 
HETATM   14  H           1     -19.223  -6.536  -6.486  0.00  0.00     0.275 HD
HETATM   15  H           1     -19.592  -6.734  -8.140  0.00  0.00     0.275 HD
HETATM   16  H           1     -19.249  -5.181  -7.521  0.00  0.00     0.275 HD
ENDBRANCH   1  13
BRANCH   1  17
HETATM   17  C           1     -21.670  -4.736  -7.819  0.00  0.00     0.249 C 
HETATM   18  O           1     -21.945  -3.696  -7.270  0.00  0.00    -0.271 OA
HETATM   19  N           1     -21.831  -4.859  -9.174  0.00  0.00    -0.343 N 
HETATM   20  H           1     -21.600  -5.729  -9.634  0.00  0.00     0.163 HD
BRANCH  19  21
HETATM   21  C           1     -22.331  -3.740  -9.948  0.00  0.00     0.209 C 
BRANCH  21  22
HETATM   22  C           1     -21.521  -3.604 -11.230  0.00  0.00     0.200 C 
BRANCH  22  23
HETATM   23  O           1     -22.217  -4.202 -12.290  0.00  0.00    -0.398 OA
HETATM   24  H           1     -23.135  -4.058 -12.129  0.00  0.00     0.209 HD
ENDBRANCH  22  23
ENDBRANCH  21  22
BRANCH  21  25
HETATM   25  C           1     -23.782  -3.976 -10.293  0.00  0.00     0.198 C 
HETATM   26  O           1     -24.256  -5.130 -10.240  0.00  0.00    -0.646 OA
HETATM   27  O           1     -24.507  -3.016 -10.634  0.00  0.00    -0.646 OA
ENDBRANCH  21  25
ENDBRANCH  19  21
ENDBRANCH   1  17
TORSDOF 8
ENDMDL
MODEL 2
REMARK VINA RESULT:      -7.1      3.601      7.605
REMARK  8 active torsions:
REMARK  status: ('A' for Active; 'I' for Inactive)
REMARK    1  A    between atoms: C_2  and  C_3 
REMARK    2  A    between atoms: C_2  and  C_22 
REMARK    3  A    between atoms: C_2  and  N_23 
REMARK    4  A    between atoms: C_3  and  O_26 
REMARK    5  A    between atoms: C_4  and  C_5 
REMARK    6  A    between atoms: C_5  and  C_18 
REMARK    7  A    between atoms: N_11  and  C_18 
REMARK    8  A    between atoms: C_18  and  C_21 
REMARK       I    between atoms: C_21  and  N_23 
ROOT
HETATM    1  C           1     -21.213  -5.994  -5.398  0.00  0.00     0.278 C 
ENDROOT
BRANCH   1   2
HETATM    2  C           1     -20.809  -4.749  -6.178  0.00  0.00     0.083 C 
BRANCH   2   3
HETATM    3  C           1     -21.799  -4.501  -7.272  0.00  0.00    -0.028 A 
HETATM    4  C           1     -23.162  -4.378  -7.121  0.00  0.00     0.096 A 
HETATM    5  N           1     -23.702  -4.158  -8.361  0.00  0.00    -0.365 N 
HETATM    6  C           1     -22.710  -4.136  -9.316  0.00  0.00     0.042 A 
HETATM    7  H           1     -24.726  -4.024  -8.554  0.00  0.00     0.165 HD
HETATM    8  C           1     -22.792  -3.945 -10.701  0.00  0.00     0.030 A 
HETATM    9  C           1     -21.500  -4.350  -8.655  0.00  0.00    -0.002 A 
HETATM   10  C           1     -21.598  -3.975 -11.428  0.00  0.00     0.002 A 
HETATM   11  C           1     -20.376  -4.187 -10.794  0.00  0.00     0.001 A 
HETATM   12  C           1     -20.312  -4.376  -9.409  0.00  0.00     0.014 A 
ENDBRANCH   2   3
ENDBRANCH   1   2
BRANCH   1  13
HETATM   13  N           1     -21.223  -5.682  -3.930  0.00  0.00    -0.066 N 
HETATM   14  H           1     -20.593  -6.347  -3.428  0.00  0.00     0.275 HD
HETATM   15  H           1     -20.888  -4.704  -3.780  0.00  0.00     0.275 HD
HETATM   16  H           1     -22.196  -5.778  -3.561  0.00  0.00     0.275 HD
ENDBRANCH   1  13
BRANCH   1  17
HETATM   17  C           1     -20.225  -7.101  -5.670  0.00  0.00     0.249 C 
HETATM   18  O           1     -19.593  -7.108  -6.699  0.00  0.00    -0.271 OA
HETATM   19  N           1     -20.046  -8.099  -4.750  0.00  0.00    -0.343 N 
HETATM   20  H           1     -20.574  -8.093  -3.887  0.00  0.00     0.163 HD
BRANCH  19  21
HETATM   21  C           1     -19.096  -9.163  -5.011  0.00  0.00     0.209 C 
BRANCH  21  22
HETATM   22  C           1     -18.289  -9.447  -3.750  0.00  0.00     0.200 C 
BRANCH  22  23
HETATM   23  O           1     -18.416 -10.801  -3.409  0.00  0.00    -0.398 OA
HETATM   24  H           1     -18.559 -10.835  -2.478  0.00  0.00     0.209 HD
ENDBRANCH  22  23
ENDBRANCH  21  22
BRANCH  21  25
HETATM   25  C           1     -19.839 -10.410  -5.422  0.00  0.00     0.198 C 
HETATM   26  O           1     -20.922 -10.702  -4.873  0.00  0.00    -0.646 OA
HETATM   27  O           1     -19.370 -11.151  -6.313  0.00  0.00    -0.646 OA
ENDBRANCH  21  25
ENDBRANCH  19  21
ENDBRANCH   1  17
TORSDOF 8
ENDMDL
MODEL 3
REMARK VINA RESULT:      -7.0      1.775      2.589
REMARK  8 active torsions:
REMARK  status: ('A' for Active; 'I' for Inactive)
REMARK    1  A    between atoms: C_2  and  C_3 
REMARK    2  A    between atoms: C_2  and  C_22 
REMARK    3  A    between atoms: C_2  and  N_23 
REMARK    4  A    between atoms: C_3  and  O_26 
REMARK    5  A    between atoms: C_4  and  C_5 
REMARK    6  A    between atoms: C_5  and  C_18 
REMARK    7  A    between atoms: N_11  and  C_18 
REMARK    8  A    between atoms: C_18  and  C_21 
REMARK       I    between atoms: C_21  and  N_23 
ROOT
HETATM    1  C           1     -20.468  -5.851  -5.227  0.00  0.00     0.278 C 
ENDROOT
BRANCH   1   2
HETATM    2  C           1     -21.511  -6.118  -4.150  0.00  0.00     0.083 C 
BRANCH   2   3
HETATM    3  C           1     -21.083  -7.285  -3.318  0.00  0.00    -0.028 A 
HETATM    4  C           1     -20.222  -8.287  -3.707  0.00  0.00     0.096 A 
HETATM    5  N           1     -20.093  -9.159  -2.659  0.00  0.00    -0.365 N 
HETATM    6  C           1     -20.857  -8.739  -1.593  0.00  0.00     0.042 A 
HETATM    7  H           1     -19.496 -10.023  -2.666  0.00  0.00     0.165 HD
HETATM    8  C           1     -21.034  -9.309  -0.326  0.00  0.00     0.030 A 
HETATM    9  C           1     -21.492  -7.559  -1.983  0.00  0.00    -0.002 A 
HETATM   10  C           1     -21.885  -8.649   0.566  0.00  0.00     0.002 A 
HETATM   11  C           1     -22.531  -7.470   0.203  0.00  0.00     0.001 A 
HETATM   12  C           1     -22.344  -6.914  -1.068  0.00  0.00     0.014 A 
ENDBRANCH   2   3
ENDBRANCH   1   2
BRANCH   1  13
HETATM   13  N           1     -19.906  -4.471  -5.048  0.00  0.00    -0.066 N 
HETATM   14  H           1     -18.871  -4.529  -4.923  0.00  0.00     0.275 HD
HETATM   15  H           1     -20.124  -3.894  -5.891  0.00  0.00     0.275 HD
HETATM   16  H           1     -20.334  -4.029  -4.203  0.00  0.00     0.275 HD
ENDBRANCH   1  13
BRANCH   1  17
HETATM   17  C           1     -21.111  -5.958  -6.588  0.00  0.00     0.249 C 
HETATM   18  O           1     -21.324  -7.043  -7.072  0.00  0.00    -0.271 OA
HETATM   19  N           1     -21.453  -4.823  -7.275  0.00  0.00    -0.343 N 
HETATM   20  H           1     -21.276  -3.913  -6.869  0.00  0.00     0.163 HD
BRANCH  19  21
HETATM   21  C           1     -22.071  -4.926  -8.582  0.00  0.00     0.209 C 
BRANCH  21  22
HETATM   22  C           1     -23.397  -4.176  -8.579  0.00  0.00     0.200 C 
BRANCH  22  23
HETATM   23  O           1     -23.909  -4.135  -7.275  0.00  0.00    -0.398 OA
HETATM   24  H           1     -24.654  -3.558  -7.292  0.00  0.00     0.209 HD
ENDBRANCH  22  23
ENDBRANCH  21  22
BRANCH  21  25
HETATM   25  C           1     -21.155  -4.323  -9.619  0.00  0.00     0.198 C 
HETATM   26  O           1     -21.598  -3.481 -10.429  0.00  0.00    -0.646 OA
HETATM   27  O           1     -19.954  -4.668  -9.668  0.00  0.00    -0.646 OA
ENDBRANCH  21  25
ENDBRANCH  19  21
ENDBRANCH   1  17
TORSDOF 8
ENDMDL
MODEL 4
REMARK VINA RESULT:      -6.9      3.321      7.771
REMARK  8 active torsions:
REMARK  status: ('A' for Active; 'I' for Inactive)
REMARK    1  A    between atoms: C_2  and  C_3 
REMARK    2  A    between atoms: C_2  and  C_22 
REMARK    3  A    between atoms: C_2  and  N_23 
REMARK    4  A    between atoms: C_3  and  O_26 
REMARK    5  A    between atoms: C_4  and  C_5 
REMARK    6  A    between atoms: C_5  and  C_18 
REMARK    7  A    between atoms: N_11  and  C_18 
REMARK    8  A    between atoms: C_18  and  C_21 
REMARK       I    between atoms: C_21  and  N_23 
ROOT
HETATM    1  C           1     -20.222  -5.863  -5.970  0.00  0.00     0.278 C 
ENDROOT
BRANCH   1   2
HETATM    2  C           1     -20.658  -4.413  -6.137  0.00  0.00     0.083 C 
BRANCH   2   3
HETATM    3  C           1     -21.697  -4.323  -7.210  0.00  0.00    -0.028 A 
HETATM    4  C           1     -23.060  -4.384  -7.027  0.00  0.00     0.096 A 
HETATM    5  N           1     -23.653  -4.264  -8.255  0.00  0.00    -0.365 N 
HETATM    6  C           1     -22.696  -4.125  -9.235  0.00  0.00     0.042 A 
HETATM    7  H           1     -24.690  -4.275  -8.425  0.00  0.00     0.165 HD
HETATM    8  C           1     -22.834  -3.973 -10.621  0.00  0.00     0.030 A 
HETATM    9  C           1     -21.453  -4.159  -8.602  0.00  0.00    -0.002 A 
HETATM   10  C           1     -21.665  -3.854 -11.377  0.00  0.00     0.002 A 
HETATM   11  C           1     -20.411  -3.884 -10.772  0.00  0.00     0.001 A 
HETATM   12  C           1     -20.291  -4.037  -9.385  0.00  0.00     0.014 A 
ENDBRANCH   2   3
ENDBRANCH   1   2
BRANCH   1  13
HETATM   13  N           1     -20.625  -6.648  -7.183  0.00  0.00    -0.066 N 
HETATM   14  H           1     -21.492  -7.193  -6.974  0.00  0.00     0.275 HD
HETATM   15  H           1     -20.808  -5.993  -7.977  0.00  0.00     0.275 HD
HETATM   16  H           1     -19.856  -7.305  -7.444  0.00  0.00     0.275 HD
ENDBRANCH   1  13
BRANCH   1  17
HETATM   17  C           1     -20.883  -6.450  -4.748  0.00  0.00     0.249 C 
HETATM   18  O           1     -21.573  -5.755  -4.041  0.00  0.00    -0.271 OA
HETATM   19  N           1     -20.701  -7.772  -4.440  0.00  0.00    -0.343 N 
HETATM   20  H           1     -20.124  -8.355  -5.033  0.00  0.00     0.163 HD
BRANCH  19  21
HETATM   21  C           1     -21.337  -8.337  -3.267  0.00  0.00     0.209 C 
BRANCH  21  22
HETATM   22  C           1     -21.848  -9.735  -3.586  0.00  0.00     0.200 C 
BRANCH  22  23
HETATM   23  O           1     -21.778 -10.534  -2.436  0.00  0.00    -0.398 OA
HETATM   24  H           1     -20.996 -11.055  -2.513  0.00  0.00     0.209 HD
ENDBRANCH  22  23
ENDBRANCH  21  22
BRANCH  21  25
HETATM   25  C           1     -20.335  -8.414  -2.140  0.00  0.00     0.198 C 
HETATM   26  O           1     -20.638  -7.993  -1.004  0.00  0.00    -0.646 OA
HETATM   27  O           1     -19.201  -8.900  -2.346  0.00  0.00    -0.646 OA
ENDBRANCH  21  25
ENDBRANCH  19  21
ENDBRANCH   1  17
TORSDOF 8
ENDMDL
MODEL 5
REMARK VINA RESULT:      -6.8      1.927      2.994
REMARK  8 active torsions:
REMARK  status: ('A' for Active; 'I' for Inactive)
REMARK    1  A    between atoms: C_2  and  C_3 
REMARK    2  A    between atoms: C_2  and  C_22 
REMARK    3  A    between atoms: C_2  and  N_23 
REMARK    4  A    between atoms: C_3  and  O_26 
REMARK    5  A    between atoms: C_4  and  C_5 
REMARK    6  A    between atoms: C_5  and  C_18 
REMARK    7  A    between atoms: N_11  and  C_18 
REMARK    8  A    between atoms: C_18  and  C_21 
REMARK       I    between atoms: C_21  and  N_23 
ROOT
HETATM    1  C           1     -21.438  -7.066  -5.129  0.00  0.00     0.278 C 
ENDROOT
BRANCH   1   2
HETATM    2  C           1     -20.441  -7.271  -3.997  0.00  0.00     0.083 C 
BRANCH   2   3
HETATM    3  C           1     -21.159  -7.239  -2.685  0.00  0.00    -0.028 A 
HETATM    4  C           1     -21.998  -6.240  -2.243  0.00  0.00     0.096 A 
HETATM    5  N           1     -22.449  -6.592  -0.999  0.00  0.00    -0.365 N 
HETATM    6  C           1     -21.917  -7.806  -0.625  0.00  0.00     0.042 A 
HETATM    7  H           1     -23.108  -6.019  -0.415  0.00  0.00     0.165 HD
HETATM    8  C           1     -22.095  -8.549   0.549  0.00  0.00     0.030 A 
HETATM    9  C           1     -21.100  -8.235  -1.671  0.00  0.00    -0.002 A 
HETATM   10  C           1     -21.415  -9.766   0.652  0.00  0.00     0.002 A 
HETATM   11  C           1     -20.593 -10.219  -0.377  0.00  0.00     0.001 A 
HETATM   12  C           1     -20.426  -9.464  -1.544  0.00  0.00     0.014 A 
ENDBRANCH   2   3
ENDBRANCH   1   2
BRANCH   1  13
HETATM   13  N           1     -21.328  -8.202  -6.103  0.00  0.00    -0.066 N 
HETATM   14  H           1     -20.350  -8.254  -6.470  0.00  0.00     0.275 HD
HETATM   15  H           1     -21.567  -9.098  -5.622  0.00  0.00     0.275 HD
HETATM   16  H           1     -21.989  -8.045  -6.897  0.00  0.00     0.275 HD
ENDBRANCH   1  13
BRANCH   1  17
HETATM   17  C           1     -21.138  -5.767  -5.836  0.00  0.00     0.249 C 
HETATM   18  O           1     -20.514  -4.902  -5.271  0.00  0.00    -0.271 OA
HETATM   19  N           1     -21.575  -5.570  -7.119  0.00  0.00    -0.343 N 
HETATM   20  H           1     -22.097  -6.295  -7.593  0.00  0.00     0.163 HD
BRANCH  19  21
HETATM   21  C           1     -21.286  -4.322  -7.798  0.00  0.00     0.209 C 
BRANCH  21  22
HETATM   22  C           1     -20.016  -4.473  -8.624  0.00  0.00     0.200 C 
BRANCH  22  23
HETATM   23  O           1     -18.899  -4.211  -7.817  0.00  0.00    -0.398 OA
HETATM   24  H           1     -18.142  -4.247  -8.378  0.00  0.00     0.209 HD
ENDBRANCH  22  23
ENDBRANCH  21  22
BRANCH  21  25
HETATM   25  C           1     -22.437  -3.968  -8.709  0.00  0.00     0.198 C 
HETATM   26  O           1     -23.613  -4.151  -8.329  0.00  0.00    -0.646 OA
HETATM   27  O           1     -22.213  -3.492  -9.843  0.00  0.00    -0.646 OA
ENDBRANCH  21  25
ENDBRANCH  19  21
ENDBRANCH   1  17
TORSDOF 8
ENDMDL
MODEL 6
REMARK VINA RESULT:      -6.8      1.377      2.345
REMARK  8 active torsions:
REMARK  status: ('A' for Active; 'I' for Inactive)
REMARK    1  A    between atoms: C_2  and  C_3 
REMARK    2  A    between atoms: C_2  and  C_22 
REMARK    3  A    between atoms: C_2  and  N_23 
REMARK    4  A    between atoms: C_3  and  O_26 
REMARK    5  A    between atoms: C_4  and  C_5 
REMARK    6  A    between atoms: C_5  and  C_18 
REMARK    7  A    between atoms: N_11  and  C_18 
REMARK    8  A    between atoms: C_18  and  C_21 
REMARK       I    between atoms: C_21  and  N_23 
ROOT
HETATM    1  C           1     -20.808  -5.353  -6.706  0.00  0.00     0.278 C 
ENDROOT
BRANCH   1   2
HETATM    2  C           1     -21.974  -6.074  -6.041  0.00  0.00     0.083 C 
BRANCH   2   3
HETATM    3  C           1     -21.526  -6.649  -4.734  0.00  0.00    -0.028 A 
HETATM    4  C           1     -21.985  -6.286  -3.488  0.00  0.00     0.096 A 
HETATM    5  N           1     -21.325  -7.047  -2.560  0.00  0.00    -0.365 N 
HETATM    6  C           1     -20.444  -7.901  -3.185  0.00  0.00     0.042 A 
HETATM    7  H           1     -21.472  -6.989  -1.522  0.00  0.00     0.165 HD
HETATM    8  C           1     -19.567  -8.850  -2.645  0.00  0.00     0.030 A 
HETATM    9  C           1     -20.551  -7.669  -4.556  0.00  0.00    -0.002 A 
HETATM   10  C           1     -18.779  -9.583  -3.537  0.00  0.00     0.002 A 
HETATM   11  C           1     -18.866  -9.373  -4.912  0.00  0.00     0.001 A 
HETATM   12  C           1     -19.747  -8.419  -5.435  0.00  0.00     0.014 A 
ENDBRANCH   2   3
ENDBRANCH   1   2
BRANCH   1  13
HETATM   13  N           1     -19.981  -4.669  -5.657  0.00  0.00    -0.066 N 
HETATM   14  H           1     -19.914  -3.649  -5.876  0.00  0.00     0.275 HD
HETATM   15  H           1     -20.430  -4.795  -4.722  0.00  0.00     0.275 HD
HETATM   16  H           1     -19.023  -5.086  -5.643  0.00  0.00     0.275 HD
ENDBRANCH   1  13
BRANCH   1  17
HETATM   17  C           1     -21.338  -4.327  -7.676  0.00  0.00     0.249 C 
HETATM   18  O           1     -21.495  -3.183  -7.321  0.00  0.00    -0.271 OA
HETATM   19  N           1     -21.642  -4.692  -8.961  0.00  0.00    -0.343 N 
HETATM   20  H           1     -21.510  -5.650  -9.259  0.00  0.00     0.163 HD
BRANCH  19  21
HETATM   21  C           1     -22.151  -3.706  -9.893  0.00  0.00     0.209 C 
BRANCH  21  22
HETATM   22  C           1     -21.319  -3.734 -11.169  0.00  0.00     0.200 C 
BRANCH  22  23
HETATM   23  O           1     -22.099  -4.228 -12.225  0.00  0.00    -0.398 OA
HETATM   24  H           1     -21.503  -4.605 -12.851  0.00  0.00     0.209 HD
ENDBRANCH  22  23
ENDBRANCH  21  22
BRANCH  21  25
HETATM   25  C           1     -23.589  -4.023 -10.225  0.00  0.00     0.198 C 
HETATM   26  O           1     -24.374  -3.105 -10.542  0.00  0.00    -0.646 OA
HETATM   27  O           1     -23.994  -5.206 -10.180  0.00  0.00    -0.646 OA
ENDBRANCH  21  25
ENDBRANCH  19  21
ENDBRANCH   1  17
TORSDOF 8
ENDMDL
MODEL 7
REMARK VINA RESULT:      -6.6      2.318      3.896
REMARK  8 active torsions:
REMARK  status: ('A' for Active; 'I' for Inactive)
REMARK    1  A    between atoms: C_2  and  C_3 
REMARK    2  A    between atoms: C_2  and  C_22 
REMARK    3  A    between atoms: C_2  and  N_23 
REMARK    4  A    between atoms: C_3  and  O_26 
REMARK    5  A    between atoms: C_4  and  C_5 
REMARK    6  A    between atoms: C_5  and  C_18 
REMARK    7  A    between atoms: N_11  and  C_18 
REMARK    8  A    between atoms: C_18  and  C_21 
REMARK       I    between atoms: C_21  and  N_23 
ROOT
HETATM    1  C           1     -21.065  -8.427  -5.018  0.00  0.00     0.278 C 
ENDROOT
BRANCH   1   2
HETATM    2  C           1     -20.256  -8.255  -3.739  0.00  0.00     0.083 C 
BRANCH   2   3
HETATM    3  C           1     -21.100  -7.587  -2.700  0.00  0.00    -0.028 A 
HETATM    4  C           1     -21.403  -6.245  -2.640  0.00  0.00     0.096 A 
HETATM    5  N           1     -22.196  -6.043  -1.542  0.00  0.00    -0.365 N 
HETATM    6  C           1     -22.415  -7.234  -0.887  0.00  0.00     0.042 A 
HETATM    7  H           1     -22.584  -5.113  -1.244  0.00  0.00     0.165 HD
HETATM    8  C           1     -23.155  -7.508   0.270  0.00  0.00     0.030 A 
HETATM    9  C           1     -21.734  -8.223  -1.596  0.00  0.00    -0.002 A 
HETATM   10  C           1     -23.198  -8.834   0.710  0.00  0.00     0.002 A 
HETATM   11  C           1     -22.528  -9.842   0.021  0.00  0.00     0.001 A 
HETATM   12  C           1     -21.792  -9.551  -1.134  0.00  0.00     0.014 A 
ENDBRANCH   2   3
ENDBRANCH   1   2
BRANCH   1  13
HETATM   13  N           1     -20.805  -9.788  -5.594  0.00  0.00    -0.066 N 
HETATM   14  H           1     -21.177 -10.518  -4.945  0.00  0.00     0.275 HD
HETATM   15  H           1     -21.281  -9.870  -6.521  0.00  0.00     0.275 HD
HETATM   16  H           1     -19.777  -9.923  -5.717  0.00  0.00     0.275 HD
ENDBRANCH   1  13
BRANCH   1  17
HETATM   17  C           1     -20.656  -7.373  -6.017  0.00  0.00     0.249 C 
HETATM   18  O           1     -19.541  -7.378  -6.480  0.00  0.00    -0.271 OA
HETATM   19  N           1     -21.551  -6.409  -6.400  0.00  0.00    -0.343 N 
HETATM   20  H           1     -22.486  -6.405  -6.013  0.00  0.00     0.163 HD
BRANCH  19  21
HETATM   21  C           1     -21.159  -5.396  -7.360  0.00  0.00     0.209 C 
BRANCH  21  22
HETATM   22  C           1     -22.364  -4.535  -7.714  0.00  0.00     0.200 C 
BRANCH  22  23
HETATM   23  O           1     -22.052  -3.184  -7.501  0.00  0.00    -0.398 OA
HETATM   24  H           1     -21.570  -2.893  -8.257  0.00  0.00     0.209 HD
ENDBRANCH  22  23
ENDBRANCH  21  22
BRANCH  21  25
HETATM   25  C           1     -20.079  -4.528  -6.761  0.00  0.00     0.198 C 
HETATM   26  O           1     -19.148  -4.105  -7.478  0.00  0.00    -0.646 OA
HETATM   27  O           1     -20.118  -4.232  -5.546  0.00  0.00    -0.646 OA
ENDBRANCH  21  25
ENDBRANCH  19  21
ENDBRANCH   1  17
TORSDOF 8
ENDMDL
MODEL 8
REMARK VINA RESULT:      -6.5      3.578      7.751
REMARK  8 active torsions:
REMARK  status: ('A' for Active; 'I' for Inactive)
REMARK    1  A    between atoms: C_2  and  C_3 
REMARK    2  A    between atoms: C_2  and  C_22 
REMARK    3  A    between atoms: C_2  and  N_23 
REMARK    4  A    between atoms: C_3  and  O_26 
REMARK    5  A    between atoms: C_4  and  C_5 
REMARK    6  A    between atoms: C_5  and  C_18 
REMARK    7  A    between atoms: N_11  and  C_18 
REMARK    8  A    between atoms: C_18  and  C_21 
REMARK       I    between atoms: C_21  and  N_23 
ROOT
HETATM    1  C           1     -21.646  -6.311  -5.905  0.00  0.00     0.278 C 
ENDROOT
BRANCH   1   2
HETATM    2  C           1     -20.884  -5.010  -6.120  0.00  0.00     0.083 C 
BRANCH   2   3
HETATM    3  C           1     -20.835  -4.695  -7.581  0.00  0.00    -0.028 A 
HETATM    4  C           1     -19.713  -4.712  -8.378  0.00  0.00     0.096 A 
HETATM    5  N           1     -20.094  -4.366  -9.647  0.00  0.00    -0.365 N 
HETATM    6  C           1     -21.449  -4.124  -9.688  0.00  0.00     0.042 A 
HETATM    7  H           1     -19.446  -4.296 -10.471  0.00  0.00     0.165 HD
HETATM    8  C           1     -22.269  -3.745 -10.758  0.00  0.00     0.030 A 
HETATM    9  C           1     -21.940  -4.324  -8.398  0.00  0.00    -0.002 A 
HETATM   10  C           1     -23.631  -3.568 -10.497  0.00  0.00     0.002 A 
HETATM   11  C           1     -24.149  -3.762  -9.219  0.00  0.00     0.001 A 
HETATM   12  C           1     -23.315  -4.139  -8.159  0.00  0.00     0.014 A 
ENDBRANCH   2   3
ENDBRANCH   1   2
BRANCH   1  13
HETATM   13  N           1     -22.825  -6.058  -5.012  0.00  0.00    -0.066 N 
HETATM   14  H           1     -22.776  -6.691  -4.182  0.00  0.00     0.275 HD
HETATM   15  H           1     -22.812  -5.063  -4.693  0.00  0.00     0.275 HD
HETATM   16  H           1     -23.707  -6.243  -5.540  0.00  0.00     0.275 HD
ENDBRANCH   1  13
BRANCH   1  17
HETATM   17  C           1     -20.736  -7.327  -5.259  0.00  0.00     0.249 C 
HETATM   18  O           1     -19.713  -7.658  -5.810  0.00  0.00    -0.271 OA
HETATM   19  N           1     -21.070  -7.873  -4.049  0.00  0.00    -0.343 N 
HETATM   20  H           1     -21.926  -7.595  -3.587  0.00  0.00     0.163 HD
BRANCH  19  21
HETATM   21  C           1     -20.195  -8.849  -3.429  0.00  0.00     0.209 C 
BRANCH  21  22
HETATM   22  C           1     -20.046  -8.531  -1.947  0.00  0.00     0.200 C 
BRANCH  22  23
HETATM   23  O           1     -20.503  -9.617  -1.187  0.00  0.00    -0.398 OA
HETATM   24  H           1     -21.029  -9.260  -0.489  0.00  0.00     0.209 HD
ENDBRANCH  22  23
ENDBRANCH  21  22
BRANCH  21  25
HETATM   25  C           1     -20.787 -10.228  -3.589  0.00  0.00     0.198 C 
HETATM   26  O           1     -22.026 -10.372  -3.653  0.00  0.00    -0.646 OA
HETATM   27  O           1     -20.036 -11.226  -3.656  0.00  0.00    -0.646 OA
ENDBRANCH  21  25
ENDBRANCH  19  21
ENDBRANCH   1  17
TORSDOF 8
ENDMDL
MODEL 9
REMARK VINA RESULT:      -6.5      4.718      8.016
REMARK  8 active torsions:
REMARK  status: ('A' for Active; 'I' for Inactive)
REMARK    1  A    between atoms: C_2  and  C_3 
REMARK    2  A    between atoms: C_2  and  C_22 
REMARK    3  A    between atoms: C_2  and  N_23 
REMARK    4  A    between atoms: C_3  and  O_26 
REMARK    5  A    between atoms: C_4  and  C_5 
REMARK    6  A    between atoms: C_5  and  C_18 
REMARK    7  A    between atoms: N_11  and  C_18 
REMARK    8  A    between atoms: C_18  and  C_21 
REMARK       I    between atoms: C_21  and  N_23 
ROOT
HETATM    1  C           1     -19.606  -8.483  -3.715  0.00  0.00     0.278 C 
ENDROOT
BRANCH   1   2
HETATM    2  C           1     -20.162  -8.555  -5.131  0.00  0.00     0.083 C 
BRANCH   2   3
HETATM    3  C           1     -20.997  -7.343  -5.402  0.00  0.00    -0.028 A 
HETATM    4  C           1     -22.252  -7.092  -4.894  0.00  0.00     0.096 A 
HETATM    5  N           1     -22.667  -5.882  -5.383  0.00  0.00    -0.365 N 
HETATM    6  C           1     -21.700  -5.342  -6.201  0.00  0.00     0.042 A 
HETATM    7  H           1     -23.590  -5.431  -5.164  0.00  0.00     0.165 HD
HETATM    8  C           1     -21.687  -4.135  -6.912  0.00  0.00     0.030 A 
HETATM    9  C           1     -20.637  -6.244  -6.230  0.00  0.00    -0.002 A 
HETATM   10  C           1     -20.551  -3.846  -7.673  0.00  0.00     0.002 A 
HETATM   11  C           1     -19.474  -4.728  -7.720  0.00  0.00     0.001 A 
HETATM   12  C           1     -19.504  -5.931  -7.004  0.00  0.00     0.014 A 
ENDBRANCH   2   3
ENDBRANCH   1   2
BRANCH   1  13
HETATM   13  N           1     -18.343  -9.290  -3.633  0.00  0.00    -0.066 N 
HETATM   14  H           1     -18.045  -9.570  -4.595  0.00  0.00     0.275 HD
HETATM   15  H           1     -17.592  -8.717  -3.188  0.00  0.00     0.275 HD
HETATM   16  H           1     -18.515 -10.147  -3.060  0.00  0.00     0.275 HD
ENDBRANCH   1  13
BRANCH   1  17
HETATM   17  C           1     -20.620  -9.039  -2.747  0.00  0.00     0.249 C 
HETATM   18  O           1     -21.316  -9.972  -3.069  0.00  0.00    -0.271 OA
HETATM   19  N           1     -20.754  -8.484  -1.502  0.00  0.00    -0.343 N 
HETATM   20  H           1     -20.171  -7.702  -1.231  0.00  0.00     0.163 HD
BRANCH  19  21
HETATM   21  C           1     -21.728  -9.018  -0.571  0.00  0.00     0.209 C 
BRANCH  21  22
HETATM   22  C           1     -21.016  -9.542   0.668  0.00  0.00     0.200 C 
BRANCH  22  23
HETATM   23  O           1     -21.003  -8.547   1.657  0.00  0.00    -0.398 OA
HETATM   24  H           1     -21.510  -8.875   2.381  0.00  0.00     0.209 HD
ENDBRANCH  22  23
ENDBRANCH  21  22
BRANCH  21  25
HETATM   25  C           1     -22.692  -7.926  -0.172  0.00  0.00     0.198 C 
HETATM   26  O           1     -23.611  -8.170   0.639  0.00  0.00    -0.646 OA
HETATM   27  O           1     -22.571  -6.779  -0.655  0.00  0.00    -0.646 OA
ENDBRANCH  21  25
ENDBRANCH  19  21
ENDBRANCH   1  17
TORSDOF 8
ENDMDL
