MODEL 1
REMARK VINA RESULT:      -6.9      0.000      0.000
REMARK  8 active torsions:
REMARK  status: ('A' for Active; 'I' for Inactive)
REMARK    1  A    between atoms: C_1  and  C_8 
REMARK    2  A    between atoms: C_1  and  C_2 
REMARK    3  A    between atoms: C_1  and  N_11 
REMARK    4  A    between atoms: C_2  and  C_18 
REMARK    5  A    between atoms: C_3  and  C_4 
REMARK    6  A    between atoms: C_4  and  C_5 
REMARK    7  A    between atoms: C_5  and  C_6 
REMARK    8  A    between atoms: C_5  and  N_13 
REMARK       I    between atoms: C_8  and  N_13 
ROOT
HETATM    1  C           1     -33.944  -4.509 -15.537  0.00  0.00     0.249 C 
HETATM    2  O           1     -35.013  -5.065 -15.454  0.00  0.00    -0.271 OA
HETATM    3  N           1     -33.378  -3.947 -14.424  0.00  0.00    -0.344 N 
HETATM    4  H           1     -32.482  -3.480 -14.492  0.00  0.00     0.163 HD
ENDROOT
BRANCH   1   5
HETATM    5  C           1     -33.233  -4.432 -16.865  0.00  0.00     0.278 C 
BRANCH   5   6
HETATM    6  C           1     -31.741  -4.656 -16.657  0.00  0.00     0.021 C 
HETATM    7  C           1     -31.376  -6.072 -17.085  0.00  0.00     0.012 C 
BRANCH   6   8
HETATM    8  C           1     -30.957  -3.655 -17.495  0.00  0.00     0.002 C 
HETATM    9  C           1     -29.716  -4.331 -18.065  0.00  0.00     0.005 C 
ENDBRANCH   6   8
ENDBRANCH   5   6
BRANCH   5  10
HETATM   10  N           1     -33.456  -3.079 -17.473  0.00  0.00    -0.066 N 
HETATM   11  H           1     -32.740  -2.909 -18.215  0.00  0.00     0.275 HD
HETATM   12  H           1     -34.411  -3.039 -17.894  0.00  0.00     0.275 HD
HETATM   13  H           1     -33.369  -2.347 -16.732  0.00  0.00     0.275 HD
ENDBRANCH   5  10
ENDBRANCH   1   5
BRANCH   3  14
HETATM   14  C           1     -34.060  -4.021 -13.146  0.00  0.00     0.189 C 
BRANCH  14  15
HETATM   15  C           1     -33.033  -4.140 -12.029  0.00  0.00     0.014 C 
HETATM   16  C           1     -33.231  -3.002 -11.036  0.00  0.00     0.012 C 
BRANCH  15  17
HETATM   17  C           1     -33.212  -5.473 -11.316  0.00  0.00     0.002 C 
HETATM   18  C           1     -34.385  -5.380 -10.349  0.00  0.00     0.005 C 
ENDBRANCH  15  17
ENDBRANCH  14  15
BRANCH  14  19
HETATM   19  C           1     -34.882  -2.771 -12.944  0.00  0.00     0.197 C 
HETATM   20  O           1     -34.729  -1.793 -13.706  0.00  0.00    -0.646 OA
HETATM   21  O           1     -35.715  -2.715 -12.013  0.00  0.00    -0.646 OA
ENDBRANCH  14  19
ENDBRANCH   3  14
TORSDOF 8
ENDMDL
MODEL 2
REMARK VINA RESULT:      -6.7      5.839      8.307
REMARK  8 active torsions:
REMARK  status: ('A' for Active; 'I' for Inactive)
REMARK    1  A    between atoms: C_1  and  C_8 
REMARK    2  A    between atoms: C_1  and  C_2 
REMARK    3  A    between atoms: C_1  and  N_11 
REMARK    4  A    between atoms: C_2  and  C_18 
REMARK    5  A    between atoms: C_3  and  C_4 
REMARK    6  A    between atoms: C_4  and  C_5 
REMARK    7  A    between atoms: C_5  and  C_6 
REMARK    8  A    between atoms: C_5  and  N_13 
REMARK       I    between atoms: C_8  and  N_13 
ROOT
HETATM    1  C           1     -25.955  -6.301 -17.715  0.00  0.00     0.249 C 
HETATM    2  O           1     -25.609  -5.921 -16.621  0.00  0.00    -0.271 OA
HETATM    3  N           1     -27.284  -6.484 -17.986  0.00  0.00    -0.344 N 
HETATM    4  H           1     -27.574  -6.802 -18.902  0.00  0.00     0.163 HD
ENDROOT
BRANCH   1   5
HETATM    5  C           1     -24.922  -6.574 -18.780  0.00  0.00     0.278 C 
BRANCH   5   6
HETATM    6  C           1     -25.616  -7.038 -20.054  0.00  0.00     0.021 C 
HETATM    7  C           1     -25.736  -5.868 -21.022  0.00  0.00     0.012 C 
BRANCH   6   8
HETATM    8  C           1     -24.800  -8.149 -20.700  0.00  0.00     0.002 C 
HETATM    9  C           1     -24.305  -7.688 -22.065  0.00  0.00     0.005 C 
ENDBRANCH   6   8
ENDBRANCH   5   6
BRANCH   5  10
HETATM   10  N           1     -23.984  -7.643 -18.304  0.00  0.00    -0.066 N 
HETATM   11  H           1     -23.840  -7.546 -17.273  0.00  0.00     0.275 HD
HETATM   12  H           1     -24.392  -8.582 -18.512  0.00  0.00     0.275 HD
HETATM   13  H           1     -23.067  -7.544 -18.794  0.00  0.00     0.275 HD
ENDBRANCH   5  10
ENDBRANCH   1   5
BRANCH   3  14
HETATM   14  C           1     -28.277  -6.220 -16.963  0.00  0.00     0.189 C 
BRANCH  14  15
HETATM   15  C           1     -29.562  -5.729 -17.617  0.00  0.00     0.014 C 
HETATM   16  C           1     -30.604  -5.456 -16.541  0.00  0.00     0.012 C 
BRANCH  15  17
HETATM   17  C           1     -29.279  -4.448 -18.388  0.00  0.00     0.002 C 
HETATM   18  C           1     -28.950  -3.327 -17.411  0.00  0.00     0.005 C 
ENDBRANCH  15  17
ENDBRANCH  14  15
BRANCH  14  19
HETATM   19  C           1     -28.556  -7.490 -16.196  0.00  0.00     0.197 C 
HETATM   20  O           1     -29.253  -8.390 -16.712  0.00  0.00    -0.646 OA
HETATM   21  O           1     -28.089  -7.642 -15.047  0.00  0.00    -0.646 OA
ENDBRANCH  14  19
ENDBRANCH   3  14
TORSDOF 8
ENDMDL
MODEL 3
REMARK VINA RESULT:      -6.5     14.414     15.386
REMARK  8 active torsions:
REMARK  status: ('A' for Active; 'I' for Inactive)
REMARK    1  A    between atoms: C_1  and  C_8 
REMARK    2  A    between atoms: C_1  and  C_2 
REMARK    3  A    between atoms: C_1  and  N_11 
REMARK    4  A    between atoms: C_2  and  C_18 
REMARK    5  A    between atoms: C_3  and  C_4 
REMARK    6  A    between atoms: C_4  and  C_5 
REMARK    7  A    between atoms: C_5  and  C_6 
REMARK    8  A    between atoms: C_5  and  N_13 
REMARK       I    between atoms: C_8  and  N_13 
ROOT
HETATM    1  C           1     -20.971  -5.363  -6.291  0.00  0.00     0.249 C 
HETATM    2  O           1     -19.813  -5.052  -6.147  0.00  0.00    -0.271 OA
HETATM    3  N           1     -21.477  -6.443  -5.619  0.00  0.00    -0.344 N 
HETATM    4  H           1     -22.448  -6.704  -5.739  0.00  0.00     0.163 HD
ENDROOT
BRANCH   1   5
HETATM    5  C           1     -21.859  -4.562  -7.211  0.00  0.00     0.278 C 
BRANCH   5   6
HETATM    6  C           1     -21.621  -4.995  -8.651  0.00  0.00     0.021 C 
HETATM    7  C           1     -22.860  -4.689  -9.484  0.00  0.00     0.012 C 
BRANCH   6   8
HETATM    8  C           1     -20.430  -4.235  -9.219  0.00  0.00     0.002 C 
HETATM    9  C           1     -20.521  -4.209 -10.739  0.00  0.00     0.005 C 
ENDBRANCH   6   8
ENDBRANCH   5   6
BRANCH   5  10
HETATM   10  N           1     -21.540  -3.103  -7.068  0.00  0.00    -0.066 N 
HETATM   11  H           1     -22.140  -2.550  -7.721  0.00  0.00     0.275 HD
HETATM   12  H           1     -21.725  -2.801  -6.085  0.00  0.00     0.275 HD
HETATM   13  H           1     -20.534  -2.944  -7.299  0.00  0.00     0.275 HD
ENDBRANCH   5  10
ENDBRANCH   1   5
BRANCH   3  14
HETATM   14  C           1     -20.624  -7.212  -4.735  0.00  0.00     0.189 C 
BRANCH  14  15
HETATM   15  C           1     -21.383  -7.539  -3.455  0.00  0.00     0.014 C 
HETATM   16  C           1     -20.456  -8.263  -2.488  0.00  0.00     0.012 C 
BRANCH  15  17
HETATM   17  C           1     -21.876  -6.248  -2.816  0.00  0.00     0.002 C 
HETATM   18  C           1     -22.271  -6.514  -1.369  0.00  0.00     0.005 C 
ENDBRANCH  15  17
ENDBRANCH  14  15
BRANCH  14  19
HETATM   19  C           1     -20.218  -8.494  -5.420  0.00  0.00     0.197 C 
HETATM   20  O           1     -19.014  -8.713  -5.672  0.00  0.00    -0.646 OA
HETATM   21  O           1     -21.086  -9.338  -5.733  0.00  0.00    -0.646 OA
ENDBRANCH  14  19
ENDBRANCH   3  14
TORSDOF 8
ENDMDL
MODEL 4
REMARK VINA RESULT:      -6.4     12.272     13.762
REMARK  8 active torsions:
REMARK  status: ('A' for Active; 'I' for Inactive)
REMARK    1  A    between atoms: C_1  and  C_8 
REMARK    2  A    between atoms: C_1  and  C_2 
REMARK    3  A    between atoms: C_1  and  N_11 
REMARK    4  A    between atoms: C_2  and  C_18 
REMARK    5  A    between atoms: C_3  and  C_4 
REMARK    6  A    between atoms: C_4  and  C_5 
REMARK    7  A    between atoms: C_5  and  C_6 
REMARK    8  A    between atoms: C_5  and  N_13 
REMARK       I    between atoms: C_8  and  N_13 
ROOT
HETATM    1  C           1     -22.074  -4.180  -7.360  0.00  0.00     0.249 C 
HETATM    2  O           1     -21.597  -3.078  -7.235  0.00  0.00    -0.271 OA
HETATM    3  N           1     -22.692  -4.529  -8.531  0.00  0.00    -0.344 N 
HETATM    4  H           1     -23.092  -5.453  -8.636  0.00  0.00     0.163 HD
ENDROOT
BRANCH   1   5
HETATM    5  C           1     -21.990  -5.172  -6.226  0.00  0.00     0.278 C 
BRANCH   5   6
HETATM    6  C           1     -21.207  -6.397  -6.680  0.00  0.00     0.021 C 
HETATM    7  C           1     -19.729  -6.043  -6.791  0.00  0.00     0.012 C 
BRANCH   6   8
HETATM    8  C           1     -21.384  -7.517  -5.663  0.00  0.00     0.002 C 
HETATM    9  C           1     -20.042  -7.830  -5.012  0.00  0.00     0.005 C 
ENDBRANCH   6   8
ENDBRANCH   5   6
BRANCH   5  10
HETATM   10  N           1     -23.374  -5.586  -5.821  0.00  0.00    -0.066 N 
HETATM   11  H           1     -23.338  -6.530  -5.374  0.00  0.00     0.275 HD
HETATM   12  H           1     -23.759  -4.893  -5.140  0.00  0.00     0.275 HD
HETATM   13  H           1     -23.987  -5.623  -6.666  0.00  0.00     0.275 HD
ENDBRANCH   5  10
ENDBRANCH   1   5
BRANCH   3  14
HETATM   14  C           1     -22.772  -3.576  -9.621  0.00  0.00     0.189 C 
BRANCH  14  15
HETATM   15  C           1     -21.902  -4.053 -10.776  0.00  0.00     0.014 C 
HETATM   16  C           1     -21.263  -2.850 -11.457  0.00  0.00     0.012 C 
BRANCH  15  17
HETATM   17  C           1     -20.813  -4.973 -10.244  0.00  0.00     0.002 C 
HETATM   18  C           1     -19.547  -4.167  -9.984  0.00  0.00     0.005 C 
ENDBRANCH  15  17
ENDBRANCH  14  15
BRANCH  14  19
HETATM   19  C           1     -24.204  -3.463 -10.083  0.00  0.00     0.197 C 
HETATM   20  O           1     -25.042  -2.858  -9.379  0.00  0.00    -0.646 OA
HETATM   21  O           1     -24.553  -3.973 -11.170  0.00  0.00    -0.646 OA
ENDBRANCH  14  19
ENDBRANCH   3  14
TORSDOF 8
ENDMDL
MODEL 5
REMARK VINA RESULT:      -6.2      5.974      8.251
REMARK  8 active torsions:
REMARK  status: ('A' for Active; 'I' for Inactive)
REMARK    1  A    between atoms: C_1  and  C_8 
REMARK    2  A    between atoms: C_1  and  C_2 
REMARK    3  A    between atoms: C_1  and  N_11 
REMARK    4  A    between atoms: C_2  and  C_18 
REMARK    5  A    between atoms: C_3  and  C_4 
REMARK    6  A    between atoms: C_4  and  C_5 
REMARK    7  A    between atoms: C_5  and  C_6 
REMARK    8  A    between atoms: C_5  and  N_13 
REMARK       I    between atoms: C_8  and  N_13 
ROOT
HETATM    1  C           1     -27.165  -6.647 -19.597  0.00  0.00     0.249 C 
HETATM    2  O           1     -27.453  -5.703 -20.294  0.00  0.00    -0.271 OA
HETATM    3  N           1     -27.605  -6.700 -18.302  0.00  0.00    -0.344 N 
HETATM    4  H           1     -27.364  -7.490 -17.717  0.00  0.00     0.163 HD
ENDROOT
BRANCH   1   5
HETATM    5  C           1     -26.320  -7.766 -20.153  0.00  0.00     0.278 C 
BRANCH   5   6
HETATM    6  C           1     -24.990  -7.205 -20.639  0.00  0.00     0.021 C 
HETATM    7  C           1     -24.084  -6.937 -19.443  0.00  0.00     0.012 C 
BRANCH   6   8
HETATM    8  C           1     -24.322  -8.214 -21.564  0.00  0.00     0.002 C 
HETATM    9  C           1     -23.824  -7.504 -22.816  0.00  0.00     0.005 C 
ENDBRANCH   6   8
ENDBRANCH   5   6
BRANCH   5  10
HETATM   10  N           1     -27.039  -8.413 -21.299  0.00  0.00    -0.066 N 
HETATM   11  H           1     -26.538  -9.288 -21.575  0.00  0.00     0.275 HD
HETATM   12  H           1     -28.015  -8.646 -21.011  0.00  0.00     0.275 HD
HETATM   13  H           1     -27.062  -7.754 -22.110  0.00  0.00     0.275 HD
ENDBRANCH   5  10
ENDBRANCH   1   5
BRANCH   3  14
HETATM   14  C           1     -28.418  -5.625 -17.767  0.00  0.00     0.189 C 
BRANCH  14  15
HETATM   15  C           1     -29.571  -6.212 -16.963  0.00  0.00     0.014 C 
HETATM   16  C           1     -30.820  -5.369 -17.180  0.00  0.00     0.012 C 
BRANCH  15  17
HETATM   17  C           1     -29.834  -7.639 -17.424  0.00  0.00     0.002 C 
HETATM   18  C           1     -30.932  -7.639 -18.480  0.00  0.00     0.005 C 
ENDBRANCH  15  17
ENDBRANCH  14  15
BRANCH  14  19
HETATM   19  C           1     -27.572  -4.754 -16.871  0.00  0.00     0.197 C 
HETATM   20  O           1     -26.480  -5.179 -16.437  0.00  0.00    -0.646 OA
HETATM   21  O           1     -27.963  -3.607 -16.564  0.00  0.00    -0.646 OA
ENDBRANCH  14  19
ENDBRANCH   3  14
TORSDOF 8
ENDMDL
MODEL 6
REMARK VINA RESULT:      -6.2     14.645     15.753
REMARK  8 active torsions:
REMARK  status: ('A' for Active; 'I' for Inactive)
REMARK    1  A    between atoms: C_1  and  C_8 
REMARK    2  A    between atoms: C_1  and  C_2 
REMARK    3  A    between atoms: C_1  and  N_11 
REMARK    4  A    between atoms: C_2  and  C_18 
REMARK    5  A    between atoms: C_3  and  C_4 
REMARK    6  A    between atoms: C_4  and  C_5 
REMARK    7  A    between atoms: C_5  and  C_6 
REMARK    8  A    between atoms: C_5  and  N_13 
REMARK       I    between atoms: C_8  and  N_13 
ROOT
HETATM    1  C           1     -21.648  -5.637  -5.656  0.00  0.00     0.249 C 
HETATM    2  O           1     -22.848  -5.767  -5.679  0.00  0.00    -0.271 OA
HETATM    3  N           1     -20.891  -6.418  -4.824  0.00  0.00    -0.344 N 
HETATM    4  H           1     -19.885  -6.310  -4.805  0.00  0.00     0.163 HD
ENDROOT
BRANCH   1   5
HETATM    5  C           1     -20.982  -4.613  -6.542  0.00  0.00     0.278 C 
BRANCH   5   6
HETATM    6  C           1     -21.337  -4.892  -7.997  0.00  0.00     0.021 C 
HETATM    7  C           1     -22.338  -3.850  -8.483  0.00  0.00     0.012 C 
BRANCH   6   8
HETATM    8  C           1     -20.078  -4.820  -8.849  0.00  0.00     0.002 C 
HETATM    9  C           1     -20.445  -4.394 -10.265  0.00  0.00     0.005 C 
ENDBRANCH   6   8
ENDBRANCH   5   6
BRANCH   5  10
HETATM   10  N           1     -19.494  -4.693  -6.367  0.00  0.00    -0.066 N 
HETATM   11  H           1     -19.252  -5.561  -5.838  0.00  0.00     0.275 HD
HETATM   12  H           1     -19.034  -4.717  -7.304  0.00  0.00     0.275 HD
HETATM   13  H           1     -19.162  -3.858  -5.835  0.00  0.00     0.275 HD
ENDBRANCH   5  10
ENDBRANCH   1   5
BRANCH   3  14
HETATM   14  C           1     -21.531  -7.402  -3.973  0.00  0.00     0.189 C 
BRANCH  14  15
HETATM   15  C           1     -20.707  -8.683  -3.971  0.00  0.00     0.014 C 
HETATM   16  C           1     -21.584  -9.850  -4.403  0.00  0.00     0.012 C 
BRANCH  15  17
HETATM   17  C           1     -19.542  -8.538  -4.941  0.00  0.00     0.002 C 
HETATM   18  C           1     -18.404  -9.453  -4.510  0.00  0.00     0.005 C 
ENDBRANCH  15  17
ENDBRANCH  14  15
BRANCH  14  19
HETATM   19  C           1     -21.626  -6.863  -2.567  0.00  0.00     0.197 C 
HETATM   20  O           1     -20.915  -7.350  -1.662  0.00  0.00    -0.646 OA
HETATM   21  O           1     -22.416  -5.929  -2.308  0.00  0.00    -0.646 OA
ENDBRANCH  14  19
ENDBRANCH   3  14
TORSDOF 8
ENDMDL
MODEL 7
REMARK VINA RESULT:      -6.1     16.328     18.287
REMARK  8 active torsions:
REMARK  status: ('A' for Active; 'I' for Inactive)
REMARK    1  A    between atoms: C_1  and  C_8 
REMARK    2  A    between atoms: C_1  and  C_2 
REMARK    3  A    between atoms: C_1  and  N_11 
REMARK    4  A    between atoms: C_2  and  C_18 
REMARK    5  A    between atoms: C_3  and  C_4 
REMARK    6  A    between atoms: C_4  and  C_5 
REMARK    7  A    between atoms: C_5  and  C_6 
REMARK    8  A    between atoms: C_5  and  N_13 
REMARK       I    between atoms: C_8  and  N_13 
ROOT
HETATM    1  C           1     -21.877 -10.357  -2.906  0.00  0.00     0.249 C 
HETATM    2  O           1     -22.588 -10.571  -3.858  0.00  0.00    -0.271 OA
HETATM    3  N           1     -20.858  -9.448  -3.004  0.00  0.00    -0.344 N 
HETATM    4  H           1     -20.262  -9.268  -2.206  0.00  0.00     0.163 HD
ENDROOT
BRANCH   1   5
HETATM    5  C           1     -22.110 -11.092  -1.609  0.00  0.00     0.278 C 
BRANCH   5   6
HETATM    6  C           1     -23.099 -10.311  -0.753  0.00  0.00     0.021 C 
HETATM    7  C           1     -23.957 -11.284   0.046  0.00  0.00     0.012 C 
BRANCH   6   8
HETATM    8  C           1     -22.335  -9.406   0.204  0.00  0.00     0.002 C 
HETATM    9  C           1     -23.197  -8.201   0.560  0.00  0.00     0.005 C 
ENDBRANCH   6   8
ENDBRANCH   5   6
BRANCH   5  10
HETATM   10  N           1     -20.811 -11.230  -0.873  0.00  0.00    -0.066 N 
HETATM   11  H           1     -20.106 -10.579  -1.285  0.00  0.00     0.275 HD
HETATM   12  H           1     -20.955 -10.995   0.135  0.00  0.00     0.275 HD
HETATM   13  H           1     -20.467 -12.214  -0.956  0.00  0.00     0.275 HD
ENDBRANCH   5  10
ENDBRANCH   1   5
BRANCH   3  14
HETATM   14  C           1     -20.634  -8.741  -4.250  0.00  0.00     0.189 C 
BRANCH  14  15
HETATM   15  C           1     -20.885  -7.253  -4.041  0.00  0.00     0.014 C 
HETATM   16  C           1     -22.190  -6.860  -4.720  0.00  0.00     0.012 C 
BRANCH  15  17
HETATM   17  C           1     -20.980  -6.960  -2.550  0.00  0.00     0.002 C 
HETATM   18  C           1     -22.203  -6.094  -2.278  0.00  0.00     0.005 C 
ENDBRANCH  15  17
ENDBRANCH  14  15
BRANCH  14  19
HETATM   19  C           1     -19.208  -8.952  -4.697  0.00  0.00     0.197 C 
HETATM   20  O           1     -18.919  -8.891  -5.911  0.00  0.00    -0.646 OA
HETATM   21  O           1     -18.317  -9.188  -3.853  0.00  0.00    -0.646 OA
ENDBRANCH  14  19
ENDBRANCH   3  14
TORSDOF 8
ENDMDL
MODEL 8
REMARK VINA RESULT:      -5.9     12.058     13.652
REMARK  8 active torsions:
REMARK  status: ('A' for Active; 'I' for Inactive)
REMARK    1  A    between atoms: C_1  and  C_8 
REMARK    2  A    between atoms: C_1  and  C_2 
REMARK    3  A    between atoms: C_1  and  N_11 
REMARK    4  A    between atoms: C_2  and  C_18 
REMARK    5  A    between atoms: C_3  and  C_4 
REMARK    6  A    between atoms: C_4  and  C_5 
REMARK    7  A    between atoms: C_5  and  C_6 
REMARK    8  A    between atoms: C_5  and  N_13 
REMARK       I    between atoms: C_8  and  N_13 
ROOT
HETATM    1  C           1     -21.697  -4.759  -7.727  0.00  0.00     0.249 C 
HETATM    2  O           1     -21.559  -3.694  -7.175  0.00  0.00    -0.271 OA
HETATM    3  N           1     -22.347  -4.827  -8.930  0.00  0.00    -0.344 N 
HETATM    4  H           1     -22.463  -5.720  -9.393  0.00  0.00     0.163 HD
ENDROOT
BRANCH   1   5
HETATM    5  C           1     -21.153  -6.015  -7.091  0.00  0.00     0.278 C 
BRANCH   5   6
HETATM    6  C           1     -21.380  -5.962  -5.586  0.00  0.00     0.021 C 
HETATM    7  C           1     -22.835  -6.293  -5.280  0.00  0.00     0.012 C 
BRANCH   6   8
HETATM    8  C           1     -20.474  -6.977  -4.901  0.00  0.00     0.002 C 
HETATM    9  C           1     -21.306  -8.162  -4.429  0.00  0.00     0.005 C 
ENDBRANCH   6   8
ENDBRANCH   5   6
BRANCH   5  10
HETATM   10  N           1     -19.683  -6.121  -7.372  0.00  0.00    -0.066 N 
HETATM   11  H           1     -19.300  -5.172  -7.582  0.00  0.00     0.275 HD
HETATM   12  H           1     -19.197  -6.516  -6.537  0.00  0.00     0.275 HD
HETATM   13  H           1     -19.532  -6.748  -8.194  0.00  0.00     0.275 HD
ENDBRANCH   5  10
ENDBRANCH   1   5
BRANCH   3  14
HETATM   14  C           1     -22.869  -3.621  -9.542  0.00  0.00     0.189 C 
BRANCH  14  15
HETATM   15  C           1     -22.337  -3.502 -10.964  0.00  0.00     0.014 C 
HETATM   16  C           1     -20.953  -2.867 -10.936  0.00  0.00     0.012 C 
BRANCH  15  17
HETATM   17  C           1     -22.246  -4.888 -11.588  0.00  0.00     0.002 C 
HETATM   18  C           1     -23.453  -5.122 -12.487  0.00  0.00     0.005 C 
ENDBRANCH  15  17
ENDBRANCH  14  15
BRANCH  14  19
HETATM   19  C           1     -24.376  -3.685  -9.573  0.00  0.00     0.197 C 
HETATM   20  O           1     -24.953  -4.794  -9.592  0.00  0.00    -0.646 OA
HETATM   21  O           1     -25.047  -2.631  -9.577  0.00  0.00    -0.646 OA
ENDBRANCH  14  19
ENDBRANCH   3  14
TORSDOF 8
ENDMDL
MODEL 9
REMARK VINA RESULT:      -5.9     17.400     18.872
REMARK  8 active torsions:
REMARK  status: ('A' for Active; 'I' for Inactive)
REMARK    1  A    between atoms: C_1  and  C_8 
REMARK    2  A    between atoms: C_1  and  C_2 
REMARK    3  A    between atoms: C_1  and  N_11 
REMARK    4  A    between atoms: C_2  and  C_18 
REMARK    5  A    between atoms: C_3  and  C_4 
REMARK    6  A    between atoms: C_4  and  C_5 
REMARK    7  A    between atoms: C_5  and  C_6 
REMARK    8  A    between atoms: C_5  and  N_13 
REMARK       I    between atoms: C_8  and  N_13 
ROOT
HETATM    1  C           1     -19.901 -10.739  -1.416  0.00  0.00     0.249 C 
HETATM    2  O           1     -19.676 -11.204  -0.324  0.00  0.00    -0.271 OA
HETATM    3  N           1     -21.062 -10.048  -1.639  0.00  0.00    -0.344 N 
HETATM    4  H           1     -21.251  -9.658  -2.554  0.00  0.00     0.163 HD
ENDROOT
BRANCH   1   5
HETATM    5  C           1     -18.905 -10.922  -2.534  0.00  0.00     0.278 C 
BRANCH   5   6
HETATM    6  C           1     -18.452  -9.558  -3.039  0.00  0.00     0.021 C 
HETATM    7  C           1     -16.941  -9.437  -2.887  0.00  0.00     0.012 C 
BRANCH   6   8
HETATM    8  C           1     -18.827  -9.412  -4.508  0.00  0.00     0.002 C 
HETATM    9  C           1     -19.839  -8.284  -4.665  0.00  0.00     0.005 C 
ENDBRANCH   6   8
ENDBRANCH   5   6
BRANCH   5  10
HETATM   10  N           1     -19.548 -11.682  -3.656  0.00  0.00    -0.066 N 
HETATM   11  H           1     -19.500 -11.116  -4.533  0.00  0.00     0.275 HD
HETATM   12  H           1     -19.044 -12.587  -3.798  0.00  0.00     0.275 HD
HETATM   13  H           1     -20.547 -11.873  -3.419  0.00  0.00     0.275 HD
ENDBRANCH   5  10
ENDBRANCH   1   5
BRANCH   3  14
HETATM   14  C           1     -22.019  -9.872  -0.565  0.00  0.00     0.189 C 
BRANCH  14  15
HETATM   15  C           1     -22.341  -8.391  -0.410  0.00  0.00     0.014 C 
HETATM   16  C           1     -22.063  -7.960   1.024  0.00  0.00     0.012 C 
BRANCH  15  17
HETATM   17  C           1     -21.471  -7.581  -1.361  0.00  0.00     0.002 C 
HETATM   18  C           1     -22.217  -6.324  -1.789  0.00  0.00     0.005 C 
ENDBRANCH  15  17
ENDBRANCH  14  15
BRANCH  14  19
HETATM   19  C           1     -23.283 -10.630  -0.890  0.00  0.00     0.197 C 
HETATM   20  O           1     -24.179 -10.750  -0.027  0.00  0.00    -0.646 OA
HETATM   21  O           1     -23.434 -11.137  -2.022  0.00  0.00    -0.646 OA
ENDBRANCH  14  19
ENDBRANCH   3  14
TORSDOF 8
ENDMDL
