MODEL 1
REMARK VINA RESULT:      -6.2      0.000      0.000
REMARK  13 active torsions:
REMARK  status: ('A' for Active; 'I' for Inactive)
REMARK    1  A    between atoms: C_2  and  C_28 
REMARK    2  A    between atoms: C_2  and  C_3 
REMARK    3  A    between atoms: C_3  and  C_4 
REMARK    4  A    between atoms: C_4  and  C_5 
REMARK    5  A    between atoms: C_5  and  N_27 
REMARK    6  A    between atoms: N_6  and  C_12 
REMARK       I    between atoms: N_6  and  C_7 
REMARK    7  A    between atoms: C_7  and  C_28 
REMARK       I    between atoms: C_9  and  N_17 
REMARK       I    between atoms: C_9  and  N_24 
REMARK    8  A    between atoms: C_12  and  C_14 
REMARK    9  A    between atoms: C_12  and  C_29 
REMARK   10  A    between atoms: C_14  and  C_30 
REMARK   11  A    between atoms: C_23  and  N_26 
REMARK   12  A    between atoms: C_23  and  C_30 
REMARK   13  A    between atoms: C_28  and  N_32 
ROOT
HETATM    1  H           1     -20.562  -4.571  -4.899  0.00  0.00     0.163 HD
HETATM    2  N           1     -21.076  -5.354  -5.281  0.00  0.00    -0.345 N 
HETATM    3  C           1     -21.535  -6.343  -4.453  0.00  0.00     0.249 C 
HETATM    4  O           1     -22.148  -7.278  -4.909  0.00  0.00    -0.271 OA
ENDROOT
BRANCH   2   5
HETATM    5  C           1     -21.327  -5.430  -6.707  0.00  0.00     0.185 C 
BRANCH   5   6
HETATM    6  C           1     -21.923  -4.113  -7.188  0.00  0.00     0.038 C 
BRANCH   6   7
HETATM    7  C           1     -23.255  -4.378  -7.877  0.00  0.00     0.023 C 
BRANCH   7   8
HETATM    8  C           1     -23.257  -3.718  -9.249  0.00  0.00     0.138 C 
BRANCH   8   9
HETATM    9  N           1     -21.875  -3.578  -9.730  0.00  0.00    -0.227 N 
HETATM   10  C           1     -21.562  -3.989 -10.885  0.00  0.00     0.665 C 
HETATM   11  N           1     -20.339  -3.865 -11.310  0.00  0.00    -0.235 N 
HETATM   12  N           1     -22.439  -4.521 -11.628  0.00  0.00    -0.235 N 
HETATM   13  H           1     -19.616  -3.426 -10.697  0.00  0.00     0.174 HD
HETATM   14  H           1     -20.081  -4.205 -12.264  0.00  0.00     0.174 HD
HETATM   15  H           1     -23.426  -4.621 -11.285  0.00  0.00     0.174 HD
HETATM   16  H           1     -22.179  -4.862 -12.586  0.00  0.00     0.174 HD
HETATM   17  H           1     -21.147  -3.137  -9.115  0.00  0.00     0.177 HD
ENDBRANCH   8   9
ENDBRANCH   7   8
ENDBRANCH   6   7
ENDBRANCH   5   6
BRANCH   5  18
HETATM   18  C           1     -20.030  -5.689  -7.433  0.00  0.00     0.196 C 
HETATM   19  O           1     -19.373  -6.726  -7.191  0.00  0.00    -0.646 OA
HETATM   20  O           1     -19.611  -4.867  -8.276  0.00  0.00    -0.646 OA
ENDBRANCH   5  18
ENDBRANCH   2   5
BRANCH   3  21
HETATM   21  C           1     -21.273  -6.265  -2.968  0.00  0.00     0.274 C 
BRANCH  21  22
HETATM   22  C           1     -20.863  -7.638  -2.451  0.00  0.00     0.042 C 
BRANCH  22  23
HETATM   23  C           1     -21.856  -8.100  -1.393  0.00  0.00     0.004 C 
BRANCH  23  24
HETATM   24  C           1     -21.133  -8.289  -0.066  0.00  0.00     0.027 C 
BRANCH  24  25
HETATM   25  C           1     -22.102  -8.033   1.081  0.00  0.00     0.229 C 
BRANCH  25  26
HETATM   26  N           1     -23.506  -8.017   0.557  0.00  0.00    -0.079 N 
HETATM   27  H           1     -23.760  -8.969   0.210  0.00  0.00     0.274 HD
HETATM   28  H           1     -24.162  -7.740   1.323  0.00  0.00     0.274 HD
HETATM   29  H           1     -23.578  -7.329  -0.227  0.00  0.00     0.274 HD
ENDBRANCH  25  26
ENDBRANCH  24  25
ENDBRANCH  23  24
ENDBRANCH  22  23
ENDBRANCH  21  22
BRANCH  21  30
HETATM   30  N           1     -22.521  -5.819  -2.265  0.00  0.00    -0.067 N 
HETATM   31  H           1     -22.426  -5.997  -1.239  0.00  0.00     0.275 HD
HETATM   32  H           1     -22.667  -4.797  -2.429  0.00  0.00     0.275 HD
HETATM   33  H           1     -23.340  -6.352  -2.636  0.00  0.00     0.275 HD
ENDBRANCH  21  30
ENDBRANCH   3  21
TORSDOF 13
ENDMDL
MODEL 2
REMARK VINA RESULT:      -6.0      1.339      2.226
REMARK  13 active torsions:
REMARK  status: ('A' for Active; 'I' for Inactive)
REMARK    1  A    between atoms: C_2  and  C_28 
REMARK    2  A    between atoms: C_2  and  C_3 
REMARK    3  A    between atoms: C_3  and  C_4 
REMARK    4  A    between atoms: C_4  and  C_5 
REMARK    5  A    between atoms: C_5  and  N_27 
REMARK    6  A    between atoms: N_6  and  C_12 
REMARK       I    between atoms: N_6  and  C_7 
REMARK    7  A    between atoms: C_7  and  C_28 
REMARK       I    between atoms: C_9  and  N_17 
REMARK       I    between atoms: C_9  and  N_24 
REMARK    8  A    between atoms: C_12  and  C_14 
REMARK    9  A    between atoms: C_12  and  C_29 
REMARK   10  A    between atoms: C_14  and  C_30 
REMARK   11  A    between atoms: C_23  and  N_26 
REMARK   12  A    between atoms: C_23  and  C_30 
REMARK   13  A    between atoms: C_28  and  N_32 
ROOT
HETATM    1  H           1     -20.644  -4.715  -4.831  0.00  0.00     0.163 HD
HETATM    2  N           1     -21.137  -5.470  -5.289  0.00  0.00    -0.345 N 
HETATM    3  C           1     -21.612  -6.524  -4.555  0.00  0.00     0.249 C 
HETATM    4  O           1     -22.199  -7.426  -5.103  0.00  0.00    -0.271 OA
ENDROOT
BRANCH   2   5
HETATM    5  C           1     -21.339  -5.438  -6.724  0.00  0.00     0.185 C 
BRANCH   5   6
HETATM    6  C           1     -21.822  -4.053  -7.137  0.00  0.00     0.038 C 
BRANCH   6   7
HETATM    7  C           1     -23.162  -4.173  -7.851  0.00  0.00     0.023 C 
BRANCH   7   8
HETATM    8  C           1     -22.929  -4.533  -9.312  0.00  0.00     0.138 C 
BRANCH   8   9
HETATM    9  N           1     -21.842  -3.704  -9.855  0.00  0.00    -0.227 N 
HETATM   10  C           1     -21.534  -3.788 -11.080  0.00  0.00     0.665 C 
HETATM   11  N           1     -20.573  -3.055 -11.559  0.00  0.00    -0.235 N 
HETATM   12  N           1     -22.161  -4.585 -11.838  0.00  0.00    -0.235 N 
HETATM   13  H           1     -20.056  -2.397 -10.934  0.00  0.00     0.174 HD
HETATM   14  H           1     -20.319  -3.124 -12.570  0.00  0.00     0.174 HD
HETATM   15  H           1     -22.937  -5.177 -11.450  0.00  0.00     0.174 HD
HETATM   16  H           1     -21.905  -4.654 -12.854  0.00  0.00     0.174 HD
HETATM   17  H           1     -21.322  -3.043  -9.227  0.00  0.00     0.177 HD
ENDBRANCH   8   9
ENDBRANCH   7   8
ENDBRANCH   6   7
ENDBRANCH   5   6
BRANCH   5  18
HETATM   18  C           1     -20.037  -5.745  -7.423  0.00  0.00     0.196 C 
HETATM   19  O           1     -19.411  -6.791  -7.148  0.00  0.00    -0.646 OA
HETATM   20  O           1     -19.585  -4.952  -8.277  0.00  0.00    -0.646 OA
ENDBRANCH   5  18
ENDBRANCH   2   5
BRANCH   3  21
HETATM   21  C           1     -21.401  -6.558  -3.061  0.00  0.00     0.274 C 
BRANCH  21  22
HETATM   22  C           1     -21.390  -8.004  -2.582  0.00  0.00     0.042 C 
BRANCH  22  23
HETATM   23  C           1     -20.018  -8.340  -2.011  0.00  0.00     0.004 C 
BRANCH  23  24
HETATM   24  C           1     -19.181  -9.033  -3.079  0.00  0.00     0.027 C 
BRANCH  24  25
HETATM   25  C           1     -20.089  -9.857  -3.981  0.00  0.00     0.229 C 
BRANCH  25  26
HETATM   26  N           1     -19.840  -9.490  -5.414  0.00  0.00    -0.079 N 
HETATM   27  H           1     -19.894  -8.452  -5.522  0.00  0.00     0.274 HD
HETATM   28  H           1     -18.890  -9.820  -5.699  0.00  0.00     0.274 HD
HETATM   29  H           1     -20.562  -9.942  -6.020  0.00  0.00     0.274 HD
ENDBRANCH  25  26
ENDBRANCH  24  25
ENDBRANCH  23  24
ENDBRANCH  22  23
ENDBRANCH  21  22
BRANCH  21  30
HETATM   30  N           1     -22.513  -5.815  -2.383  0.00  0.00    -0.067 N 
HETATM   31  H           1     -22.693  -6.238  -1.444  0.00  0.00     0.275 HD
HETATM   32  H           1     -22.243  -4.812  -2.267  0.00  0.00     0.275 HD
HETATM   33  H           1     -23.380  -5.878  -2.965  0.00  0.00     0.275 HD
ENDBRANCH  21  30
ENDBRANCH   3  21
TORSDOF 13
ENDMDL
MODEL 3
REMARK VINA RESULT:      -5.9      1.776      8.280
REMARK  13 active torsions:
REMARK  status: ('A' for Active; 'I' for Inactive)
REMARK    1  A    between atoms: C_2  and  C_28 
REMARK    2  A    between atoms: C_2  and  C_3 
REMARK    3  A    between atoms: C_3  and  C_4 
REMARK    4  A    between atoms: C_4  and  C_5 
REMARK    5  A    between atoms: C_5  and  N_27 
REMARK    6  A    between atoms: N_6  and  C_12 
REMARK       I    between atoms: N_6  and  C_7 
REMARK    7  A    between atoms: C_7  and  C_28 
REMARK       I    between atoms: C_9  and  N_17 
REMARK       I    between atoms: C_9  and  N_24 
REMARK    8  A    between atoms: C_12  and  C_14 
REMARK    9  A    between atoms: C_12  and  C_29 
REMARK   10  A    between atoms: C_14  and  C_30 
REMARK   11  A    between atoms: C_23  and  N_26 
REMARK   12  A    between atoms: C_23  and  C_30 
REMARK   13  A    between atoms: C_28  and  N_32 
ROOT
HETATM    1  H           1     -21.734  -7.113  -6.593  0.00  0.00     0.163 HD
HETATM    2  N           1     -21.232  -6.481  -5.984  0.00  0.00    -0.345 N 
HETATM    3  C           1     -20.936  -5.213  -6.406  0.00  0.00     0.249 C 
HETATM    4  O           1     -20.335  -4.458  -5.679  0.00  0.00    -0.271 OA
ENDROOT
BRANCH   2   5
HETATM    5  C           1     -20.824  -6.917  -4.663  0.00  0.00     0.185 C 
BRANCH   5   6
HETATM    6  C           1     -22.004  -6.804  -3.705  0.00  0.00     0.038 C 
BRANCH   6   7
HETATM    7  C           1     -21.578  -6.030  -2.464  0.00  0.00     0.023 C 
BRANCH   7   8
HETATM    8  C           1     -22.306  -6.583  -1.246  0.00  0.00     0.138 C 
BRANCH   8   9
HETATM    9  N           1     -22.072  -8.031  -1.148  0.00  0.00    -0.227 N 
HETATM   10  C           1     -22.659  -8.708  -0.255  0.00  0.00     0.665 C 
HETATM   11  N           1     -22.452  -9.988  -0.168  0.00  0.00    -0.235 N 
HETATM   12  N           1     -23.448  -8.138   0.556  0.00  0.00    -0.235 N 
HETATM   13  H           1     -21.801 -10.458  -0.837  0.00  0.00     0.174 HD
HETATM   14  H           1     -22.936 -10.547   0.570  0.00  0.00     0.174 HD
HETATM   15  H           1     -23.615  -7.104   0.487  0.00  0.00     0.174 HD
HETATM   16  H           1     -23.934  -8.700   1.298  0.00  0.00     0.174 HD
HETATM   17  H           1     -21.419  -8.503  -1.820  0.00  0.00     0.177 HD
ENDBRANCH   8   9
ENDBRANCH   7   8
ENDBRANCH   6   7
ENDBRANCH   5   6
BRANCH   5  18
HETATM   18  C           1     -20.366  -8.354  -4.727  0.00  0.00     0.196 C 
HETATM   19  O           1     -19.589  -8.723  -5.635  0.00  0.00    -0.646 OA
HETATM   20  O           1     -20.763  -9.174  -3.872  0.00  0.00    -0.646 OA
ENDBRANCH   5  18
ENDBRANCH   2   5
BRANCH   3  21
HETATM   21  C           1     -21.359  -4.758  -7.782  0.00  0.00     0.274 C 
BRANCH  21  22
HETATM   22  C           1     -20.150  -4.216  -8.534  0.00  0.00     0.042 C 
BRANCH  22  23
HETATM   23  C           1     -20.165  -4.739  -9.964  0.00  0.00     0.004 C 
BRANCH  23  24
HETATM   24  C           1     -20.543  -3.608 -10.913  0.00  0.00     0.027 C 
BRANCH  24  25
HETATM   25  C           1     -21.616  -4.093 -11.879  0.00  0.00     0.229 C 
BRANCH  25  26
HETATM   26  N           1     -22.796  -4.600 -11.104  0.00  0.00    -0.079 N 
HETATM   27  H           1     -23.476  -5.048 -11.758  0.00  0.00     0.274 HD
HETATM   28  H           1     -22.475  -5.304 -10.401  0.00  0.00     0.274 HD
HETATM   29  H           1     -23.258  -3.803 -10.611  0.00  0.00     0.274 HD
ENDBRANCH  25  26
ENDBRANCH  24  25
ENDBRANCH  23  24
ENDBRANCH  22  23
ENDBRANCH  21  22
BRANCH  21  30
HETATM   30  N           1     -22.392  -3.678  -7.654  0.00  0.00    -0.067 N 
HETATM   31  H           1     -22.331  -3.037  -8.477  0.00  0.00     0.275 HD
HETATM   32  H           1     -23.344  -4.108  -7.619  0.00  0.00     0.275 HD
HETATM   33  H           1     -22.222  -3.135  -6.777  0.00  0.00     0.275 HD
ENDBRANCH  21  30
ENDBRANCH   3  21
TORSDOF 13
ENDMDL
MODEL 4
REMARK VINA RESULT:      -5.9      1.977      8.032
REMARK  13 active torsions:
REMARK  status: ('A' for Active; 'I' for Inactive)
REMARK    1  A    between atoms: C_2  and  C_28 
REMARK    2  A    between atoms: C_2  and  C_3 
REMARK    3  A    between atoms: C_3  and  C_4 
REMARK    4  A    between atoms: C_4  and  C_5 
REMARK    5  A    between atoms: C_5  and  N_27 
REMARK    6  A    between atoms: N_6  and  C_12 
REMARK       I    between atoms: N_6  and  C_7 
REMARK    7  A    between atoms: C_7  and  C_28 
REMARK       I    between atoms: C_9  and  N_17 
REMARK       I    between atoms: C_9  and  N_24 
REMARK    8  A    between atoms: C_12  and  C_14 
REMARK    9  A    between atoms: C_12  and  C_29 
REMARK   10  A    between atoms: C_14  and  C_30 
REMARK   11  A    between atoms: C_23  and  N_26 
REMARK   12  A    between atoms: C_23  and  C_30 
REMARK   13  A    between atoms: C_28  and  N_32 
ROOT
HETATM    1  H           1     -21.890  -6.521  -6.650  0.00  0.00     0.163 HD
HETATM    2  N           1     -21.324  -6.121  -5.912  0.00  0.00    -0.345 N 
HETATM    3  C           1     -20.708  -4.913  -6.100  0.00  0.00     0.249 C 
HETATM    4  O           1     -20.033  -4.436  -5.220  0.00  0.00    -0.271 OA
ENDROOT
BRANCH   2   5
HETATM    5  C           1     -21.166  -6.828  -4.657  0.00  0.00     0.185 C 
BRANCH   5   6
HETATM    6  C           1     -22.225  -6.352  -3.670  0.00  0.00     0.038 C 
BRANCH   6   7
HETATM    7  C           1     -21.557  -5.953  -2.361  0.00  0.00     0.023 C 
BRANCH   7   8
HETATM    8  C           1     -22.325  -6.558  -1.193  0.00  0.00     0.138 C 
BRANCH   8   9
HETATM    9  N           1     -21.947  -7.970  -1.035  0.00  0.00    -0.227 N 
HETATM   10  C           1     -22.534  -8.690  -0.176  0.00  0.00     0.665 C 
HETATM   11  N           1     -22.199  -9.938  -0.036  0.00  0.00    -0.235 N 
HETATM   12  N           1     -23.447  -8.194   0.548  0.00  0.00    -0.235 N 
HETATM   13  H           1     -21.446 -10.347  -0.633  0.00  0.00     0.174 HD
HETATM   14  H           1     -22.684 -10.532   0.674  0.00  0.00     0.174 HD
HETATM   15  H           1     -23.718  -7.186   0.435  0.00  0.00     0.174 HD
HETATM   16  H           1     -23.934  -8.792   1.261  0.00  0.00     0.174 HD
HETATM   17  H           1     -21.190  -8.381  -1.635  0.00  0.00     0.177 HD
ENDBRANCH   8   9
ENDBRANCH   7   8
ENDBRANCH   6   7
ENDBRANCH   5   6
BRANCH   5  18
HETATM   18  C           1     -21.326  -8.310  -4.890  0.00  0.00     0.196 C 
HETATM   19  O           1     -21.106  -8.793  -6.022  0.00  0.00    -0.646 OA
HETATM   20  O           1     -21.680  -9.054  -3.950  0.00  0.00    -0.646 OA
ENDBRANCH   5  18
ENDBRANCH   2   5
BRANCH   3  21
HETATM   21  C           1     -20.873  -4.177  -7.408  0.00  0.00     0.274 C 
BRANCH  21  22
HETATM   22  C           1     -21.901  -4.897  -8.271  0.00  0.00     0.042 C 
BRANCH  22  23
HETATM   23  C           1     -21.756  -4.443  -9.718  0.00  0.00     0.004 C 
BRANCH  23  24
HETATM   24  C           1     -22.902  -3.505 -10.073  0.00  0.00     0.027 C 
BRANCH  24  25
HETATM   25  C           1     -24.026  -3.671  -9.058  0.00  0.00     0.229 C 
BRANCH  25  26
HETATM   26  N           1     -25.339  -3.766  -9.777  0.00  0.00    -0.079 N 
HETATM   27  H           1     -25.169  -3.934 -10.794  0.00  0.00     0.274 HD
HETATM   28  H           1     -25.896  -4.559  -9.382  0.00  0.00     0.274 HD
HETATM   29  H           1     -25.870  -2.874  -9.654  0.00  0.00     0.274 HD
ENDBRANCH  25  26
ENDBRANCH  24  25
ENDBRANCH  23  24
ENDBRANCH  22  23
ENDBRANCH  21  22
BRANCH  21  30
HETATM   30  N           1     -19.557  -4.137  -8.126  0.00  0.00    -0.067 N 
HETATM   31  H           1     -19.371  -3.165  -8.461  0.00  0.00     0.275 HD
HETATM   32  H           1     -18.795  -4.433  -7.475  0.00  0.00     0.275 HD
HETATM   33  H           1     -19.587  -4.787  -8.945  0.00  0.00     0.275 HD
ENDBRANCH  21  30
ENDBRANCH   3  21
TORSDOF 13
ENDMDL
MODEL 5
REMARK VINA RESULT:      -5.6      2.343      8.173
REMARK  13 active torsions:
REMARK  status: ('A' for Active; 'I' for Inactive)
REMARK    1  A    between atoms: C_2  and  C_28 
REMARK    2  A    between atoms: C_2  and  C_3 
REMARK    3  A    between atoms: C_3  and  C_4 
REMARK    4  A    between atoms: C_4  and  C_5 
REMARK    5  A    between atoms: C_5  and  N_27 
REMARK    6  A    between atoms: N_6  and  C_12 
REMARK       I    between atoms: N_6  and  C_7 
REMARK    7  A    between atoms: C_7  and  C_28 
REMARK       I    between atoms: C_9  and  N_17 
REMARK       I    between atoms: C_9  and  N_24 
REMARK    8  A    between atoms: C_12  and  C_14 
REMARK    9  A    between atoms: C_12  and  C_29 
REMARK   10  A    between atoms: C_14  and  C_30 
REMARK   11  A    between atoms: C_23  and  N_26 
REMARK   12  A    between atoms: C_23  and  C_30 
REMARK   13  A    between atoms: C_28  and  N_32 
ROOT
HETATM    1  H           1     -19.807  -6.821  -4.811  0.00  0.00     0.163 HD
HETATM    2  N           1     -20.815  -6.730  -4.790  0.00  0.00    -0.345 N 
HETATM    3  C           1     -21.443  -5.857  -5.636  0.00  0.00     0.249 C 
HETATM    4  O           1     -22.646  -5.749  -5.610  0.00  0.00    -0.271 OA
ENDROOT
BRANCH   2   5
HETATM    5  C           1     -21.594  -7.527  -3.862  0.00  0.00     0.185 C 
BRANCH   5   6
HETATM    6  C           1     -20.985  -8.919  -3.754  0.00  0.00     0.038 C 
BRANCH   6   7
HETATM    7  C           1     -22.088  -9.965  -3.846  0.00  0.00     0.023 C 
BRANCH   7   8
HETATM    8  C           1     -21.950 -10.953  -2.695  0.00  0.00     0.138 C 
BRANCH   8   9
HETATM    9  N           1     -21.394 -10.265  -1.521  0.00  0.00    -0.227 N 
HETATM   10  C           1     -22.109 -10.090  -0.492  0.00  0.00     0.665 C 
HETATM   11  N           1     -21.618  -9.482   0.546  0.00  0.00    -0.235 N 
HETATM   12  N           1     -23.305 -10.508  -0.474  0.00  0.00    -0.235 N 
HETATM   13  H           1     -20.631  -9.137   0.531  0.00  0.00     0.174 HD
HETATM   14  H           1     -22.209  -9.338   1.395  0.00  0.00     0.174 HD
HETATM   15  H           1     -23.702 -11.000  -1.312  0.00  0.00     0.174 HD
HETATM   16  H           1     -23.898 -10.364   0.380  0.00  0.00     0.174 HD
HETATM   17  H           1     -20.403  -9.918  -1.536  0.00  0.00     0.177 HD
ENDBRANCH   8   9
ENDBRANCH   7   8
ENDBRANCH   6   7
ENDBRANCH   5   6
BRANCH   5  18
HETATM   18  C           1     -21.587  -6.868  -2.505  0.00  0.00     0.196 C 
HETATM   19  O           1     -20.792  -7.260  -1.623  0.00  0.00    -0.646 OA
HETATM   20  O           1     -22.377  -5.930  -2.262  0.00  0.00    -0.646 OA
ENDBRANCH   5  18
ENDBRANCH   2   5
BRANCH   3  21
HETATM   21  C           1     -20.632  -5.027  -6.602  0.00  0.00     0.274 C 
BRANCH  21  22
HETATM   22  C           1     -21.555  -4.082  -7.361  0.00  0.00     0.042 C 
BRANCH  22  23
HETATM   23  C           1     -21.229  -4.139  -8.847  0.00  0.00     0.004 C 
BRANCH  23  24
HETATM   24  C           1     -22.492  -4.466  -9.632  0.00  0.00     0.027 C 
BRANCH  24  25
HETATM   25  C           1     -23.714  -4.042  -8.828  0.00  0.00     0.229 C 
BRANCH  25  26
HETATM   26  N           1     -24.957  -4.326  -9.617  0.00  0.00    -0.079 N 
HETATM   27  H           1     -24.748  -5.037 -10.353  0.00  0.00     0.274 HD
HETATM   28  H           1     -25.699  -4.693  -8.979  0.00  0.00     0.274 HD
HETATM   29  H           1     -25.292  -3.444 -10.069  0.00  0.00     0.274 HD
ENDBRANCH  25  26
ENDBRANCH  24  25
ENDBRANCH  23  24
ENDBRANCH  22  23
ENDBRANCH  21  22
BRANCH  21  30
HETATM   30  N           1     -19.935  -5.932  -7.574  0.00  0.00    -0.067 N 
HETATM   31  H           1     -20.004  -6.920  -7.241  0.00  0.00     0.275 HD
HETATM   32  H           1     -20.386  -5.849  -8.513  0.00  0.00     0.275 HD
HETATM   33  H           1     -18.929  -5.658  -7.645  0.00  0.00     0.275 HD
ENDBRANCH  21  30
ENDBRANCH   3  21
TORSDOF 13
ENDMDL
MODEL 6
REMARK VINA RESULT:      -5.5      2.701      3.718
REMARK  13 active torsions:
REMARK  status: ('A' for Active; 'I' for Inactive)
REMARK    1  A    between atoms: C_2  and  C_28 
REMARK    2  A    between atoms: C_2  and  C_3 
REMARK    3  A    between atoms: C_3  and  C_4 
REMARK    4  A    between atoms: C_4  and  C_5 
REMARK    5  A    between atoms: C_5  and  N_27 
REMARK    6  A    between atoms: N_6  and  C_12 
REMARK       I    between atoms: N_6  and  C_7 
REMARK    7  A    between atoms: C_7  and  C_28 
REMARK       I    between atoms: C_9  and  N_17 
REMARK       I    between atoms: C_9  and  N_24 
REMARK    8  A    between atoms: C_12  and  C_14 
REMARK    9  A    between atoms: C_12  and  C_29 
REMARK   10  A    between atoms: C_14  and  C_30 
REMARK   11  A    between atoms: C_23  and  N_26 
REMARK   12  A    between atoms: C_23  and  C_30 
REMARK   13  A    between atoms: C_28  and  N_32 
ROOT
HETATM    1  H           1     -21.616  -8.509  -6.330  0.00  0.00     0.163 HD
HETATM    2  N           1     -20.900  -8.189  -5.691  0.00  0.00    -0.345 N 
HETATM    3  C           1     -20.116  -9.097  -5.030  0.00  0.00     0.249 C 
HETATM    4  O           1     -19.261  -8.715  -4.266  0.00  0.00    -0.271 OA
ENDROOT
BRANCH   2   5
HETATM    5  C           1     -20.704  -6.769  -5.474  0.00  0.00     0.185 C 
BRANCH   5   6
HETATM    6  C           1     -20.716  -6.046  -6.815  0.00  0.00     0.038 C 
BRANCH   6   7
HETATM    7  C           1     -20.180  -4.632  -6.635  0.00  0.00     0.023 C 
BRANCH   7   8
HETATM    8  C           1     -20.749  -3.730  -7.722  0.00  0.00     0.138 C 
BRANCH   8   9
HETATM    9  N           1     -22.217  -3.726  -7.638  0.00  0.00    -0.227 N 
HETATM   10  C           1     -22.911  -3.759  -8.696  0.00  0.00     0.665 C 
HETATM   11  N           1     -24.209  -3.756  -8.623  0.00  0.00    -0.235 N 
HETATM   12  N           1     -22.341  -3.795  -9.827  0.00  0.00    -0.235 N 
HETATM   13  H           1     -24.679  -3.727  -7.690  0.00  0.00     0.174 HD
HETATM   14  H           1     -24.781  -3.783  -9.497  0.00  0.00     0.174 HD
HETATM   15  H           1     -21.292  -3.797  -9.886  0.00  0.00     0.174 HD
HETATM   16  H           1     -22.916  -3.822 -10.704  0.00  0.00     0.174 HD
HETATM   17  H           1     -22.690  -3.697  -6.702  0.00  0.00     0.177 HD
ENDBRANCH   8   9
ENDBRANCH   7   8
ENDBRANCH   6   7
ENDBRANCH   5   6
BRANCH   5  18
HETATM   18  C           1     -21.815  -6.235  -4.604  0.00  0.00     0.196 C 
HETATM   19  O           1     -22.973  -6.128  -5.063  0.00  0.00    -0.646 OA
HETATM   20  O           1     -21.576  -5.898  -3.425  0.00  0.00    -0.646 OA
ENDBRANCH   5  18
ENDBRANCH   2   5
BRANCH   3  21
HETATM   21  C           1     -20.320 -10.575  -5.254  0.00  0.00     0.274 C 
BRANCH  21  22
HETATM   22  C           1     -20.149 -11.319  -3.936  0.00  0.00     0.042 C 
BRANCH  22  23
HETATM   23  C           1     -21.432 -11.212  -3.122  0.00  0.00     0.004 C 
BRANCH  23  24
HETATM   24  C           1     -21.126 -10.570  -1.774  0.00  0.00     0.027 C 
BRANCH  24  25
HETATM   25  C           1     -21.755  -9.184  -1.718  0.00  0.00     0.229 C 
BRANCH  25  26
HETATM   26  N           1     -20.677  -8.149  -1.594  0.00  0.00    -0.079 N 
HETATM   27  H           1     -19.743  -8.605  -1.699  0.00  0.00     0.274 HD
HETATM   28  H           1     -20.798  -7.428  -2.341  0.00  0.00     0.274 HD
HETATM   29  H           1     -20.739  -7.692  -0.656  0.00  0.00     0.274 HD
ENDBRANCH  25  26
ENDBRANCH  24  25
ENDBRANCH  23  24
ENDBRANCH  22  23
ENDBRANCH  21  22
BRANCH  21  30
HETATM   30  N           1     -19.310 -11.074  -6.244  0.00  0.00    -0.067 N 
HETATM   31  H           1     -18.690 -11.779  -5.785  0.00  0.00     0.275 HD
HETATM   32  H           1     -19.802 -11.517  -7.052  0.00  0.00     0.275 HD
HETATM   33  H           1     -18.731 -10.273  -6.585  0.00  0.00     0.275 HD
ENDBRANCH  21  30
ENDBRANCH   3  21
TORSDOF 13
ENDMDL
MODEL 7
REMARK VINA RESULT:      -5.5      3.048      7.897
REMARK  13 active torsions:
REMARK  status: ('A' for Active; 'I' for Inactive)
REMARK    1  A    between atoms: C_2  and  C_28 
REMARK    2  A    between atoms: C_2  and  C_3 
REMARK    3  A    between atoms: C_3  and  C_4 
REMARK    4  A    between atoms: C_4  and  C_5 
REMARK    5  A    between atoms: C_5  and  N_27 
REMARK    6  A    between atoms: N_6  and  C_12 
REMARK       I    between atoms: N_6  and  C_7 
REMARK    7  A    between atoms: C_7  and  C_28 
REMARK       I    between atoms: C_9  and  N_17 
REMARK       I    between atoms: C_9  and  N_24 
REMARK    8  A    between atoms: C_12  and  C_14 
REMARK    9  A    between atoms: C_12  and  C_29 
REMARK   10  A    between atoms: C_14  and  C_30 
REMARK   11  A    between atoms: C_23  and  N_26 
REMARK   12  A    between atoms: C_23  and  C_30 
REMARK   13  A    between atoms: C_28  and  N_32 
ROOT
HETATM    1  H           1     -19.824  -6.369  -4.789  0.00  0.00     0.163 HD
HETATM    2  N           1     -20.832  -6.372  -4.873  0.00  0.00    -0.345 N 
HETATM    3  C           1     -21.453  -5.491  -5.716  0.00  0.00     0.249 C 
HETATM    4  O           1     -22.657  -5.495  -5.815  0.00  0.00    -0.271 OA
ENDROOT
BRANCH   2   5
HETATM    5  C           1     -21.620  -7.311  -4.098  0.00  0.00     0.185 C 
BRANCH   5   6
HETATM    6  C           1     -20.992  -8.696  -4.189  0.00  0.00     0.038 C 
BRANCH   6   7
HETATM    7  C           1     -19.628  -8.593  -4.858  0.00  0.00     0.023 C 
BRANCH   7   8
HETATM    8  C           1     -18.577  -9.252  -3.974  0.00  0.00     0.138 C 
BRANCH   8   9
HETATM    9  N           1     -19.186  -9.642  -2.695  0.00  0.00    -0.227 N 
HETATM   10  C           1     -18.890 -10.753  -2.165  0.00  0.00     0.665 C 
HETATM   11  N           1     -19.428 -11.099  -1.034  0.00  0.00    -0.235 N 
HETATM   12  N           1     -18.069 -11.529  -2.738  0.00  0.00    -0.235 N 
HETATM   13  H           1     -20.105 -10.459  -0.561  0.00  0.00     0.174 HD
HETATM   14  H           1     -19.183 -12.016  -0.597  0.00  0.00     0.174 HD
HETATM   15  H           1     -17.634 -11.250  -3.653  0.00  0.00     0.174 HD
HETATM   16  H           1     -17.823 -12.450  -2.299  0.00  0.00     0.174 HD
HETATM   17  H           1     -19.866  -9.000  -2.219  0.00  0.00     0.177 HD
ENDBRANCH   8   9
ENDBRANCH   7   8
ENDBRANCH   6   7
ENDBRANCH   5   6
BRANCH   5  18
HETATM   18  C           1     -21.654  -6.869  -2.655  0.00  0.00     0.196 C 
HETATM   19  O           1     -20.936  -7.442  -1.808  0.00  0.00    -0.646 OA
HETATM   20  O           1     -22.402  -5.929  -2.309  0.00  0.00    -0.646 OA
ENDBRANCH   5  18
ENDBRANCH   2   5
BRANCH   3  21
HETATM   21  C           1     -20.634  -4.513  -6.522  0.00  0.00     0.274 C 
BRANCH  21  22
HETATM   22  C           1     -21.540  -3.773  -7.498  0.00  0.00     0.042 C 
BRANCH  22  23
HETATM   23  C           1     -21.215  -4.207  -8.921  0.00  0.00     0.004 C 
BRANCH  23  24
HETATM   24  C           1     -22.500  -4.615  -9.633  0.00  0.00     0.027 C 
BRANCH  24  25
HETATM   25  C           1     -23.685  -3.916  -8.979  0.00  0.00     0.229 C 
BRANCH  25  26
HETATM   26  N           1     -24.961  -4.438  -9.569  0.00  0.00    -0.079 N 
HETATM   27  H           1     -25.058  -5.455  -9.348  0.00  0.00     0.274 HD
HETATM   28  H           1     -25.771  -3.916  -9.165  0.00  0.00     0.274 HD
HETATM   29  H           1     -24.945  -4.307 -10.606  0.00  0.00     0.274 HD
ENDBRANCH  25  26
ENDBRANCH  24  25
ENDBRANCH  23  24
ENDBRANCH  22  23
ENDBRANCH  21  22
BRANCH  21  30
HETATM   30  N           1     -19.579  -5.257  -7.286  0.00  0.00    -0.067 N 
HETATM   31  H           1     -18.778  -5.476  -6.651  0.00  0.00     0.275 HD
HETATM   32  H           1     -19.981  -6.146  -7.659  0.00  0.00     0.275 HD
HETATM   33  H           1     -19.242  -4.667  -8.080  0.00  0.00     0.275 HD
ENDBRANCH  21  30
ENDBRANCH   3  21
TORSDOF 13
ENDMDL
MODEL 8
REMARK VINA RESULT:      -5.2      2.886      4.220
REMARK  13 active torsions:
REMARK  status: ('A' for Active; 'I' for Inactive)
REMARK    1  A    between atoms: C_2  and  C_28 
REMARK    2  A    between atoms: C_2  and  C_3 
REMARK    3  A    between atoms: C_3  and  C_4 
REMARK    4  A    between atoms: C_4  and  C_5 
REMARK    5  A    between atoms: C_5  and  N_27 
REMARK    6  A    between atoms: N_6  and  C_12 
REMARK       I    between atoms: N_6  and  C_7 
REMARK    7  A    between atoms: C_7  and  C_28 
REMARK       I    between atoms: C_9  and  N_17 
REMARK       I    between atoms: C_9  and  N_24 
REMARK    8  A    between atoms: C_12  and  C_14 
REMARK    9  A    between atoms: C_12  and  C_29 
REMARK   10  A    between atoms: C_14  and  C_30 
REMARK   11  A    between atoms: C_23  and  N_26 
REMARK   12  A    between atoms: C_23  and  C_30 
REMARK   13  A    between atoms: C_28  and  N_32 
ROOT
HETATM    1  H           1     -22.874  -9.009  -4.056  0.00  0.00     0.163 HD
HETATM    2  N           1     -21.885  -8.873  -3.891  0.00  0.00    -0.345 N 
HETATM    3  C           1     -21.080  -9.949  -3.631  0.00  0.00     0.249 C 
HETATM    4  O           1     -19.899  -9.788  -3.434  0.00  0.00    -0.271 OA
ENDROOT
BRANCH   2   5
HETATM    5  C           1     -21.320  -7.539  -3.928  0.00  0.00     0.185 C 
BRANCH   5   6
HETATM    6  C           1     -21.972  -6.743  -5.053  0.00  0.00     0.038 C 
BRANCH   6   7
HETATM    7  C           1     -20.964  -6.529  -6.174  0.00  0.00     0.023 C 
BRANCH   7   8
HETATM    8  C           1     -20.994  -5.071  -6.612  0.00  0.00     0.138 C 
BRANCH   8   9
HETATM    9  N           1     -22.382  -4.666  -6.877  0.00  0.00    -0.227 N 
HETATM   10  C           1     -22.724  -4.302  -8.040  0.00  0.00     0.665 C 
HETATM   11  N           1     -23.952  -3.944  -8.274  0.00  0.00    -0.235 N 
HETATM   12  N           1     -21.871  -4.287  -8.975  0.00  0.00    -0.235 N 
HETATM   13  H           1     -24.656  -3.956  -7.502  0.00  0.00     0.174 HD
HETATM   14  H           1     -24.234  -3.644  -9.234  0.00  0.00     0.174 HD
HETATM   15  H           1     -20.879  -4.576  -8.786  0.00  0.00     0.174 HD
HETATM   16  H           1     -22.155  -3.985  -9.940  0.00  0.00     0.174 HD
HETATM   17  H           1     -23.090  -4.678  -6.102  0.00  0.00     0.177 HD
ENDBRANCH   8   9
ENDBRANCH   7   8
ENDBRANCH   6   7
ENDBRANCH   5   6
BRANCH   5  18
HETATM   18  C           1     -21.575  -6.847  -2.611  0.00  0.00     0.196 C 
HETATM   19  O           1     -20.924  -7.175  -1.595  0.00  0.00    -0.646 OA
HETATM   20  O           1     -22.439  -5.947  -2.536  0.00  0.00    -0.646 OA
ENDBRANCH   5  18
ENDBRANCH   2   5
BRANCH   3  21
HETATM   21  C           1     -21.668 -11.339  -3.592  0.00  0.00     0.274 C 
BRANCH  21  22
HETATM   22  C           1     -23.010 -11.304  -2.873  0.00  0.00     0.042 C 
BRANCH  22  23
HETATM   23  C           1     -22.825 -11.747  -1.428  0.00  0.00     0.004 C 
BRANCH  23  24
HETATM   24  C           1     -23.711 -10.904  -0.520  0.00  0.00     0.027 C 
BRANCH  24  25
HETATM   25  C           1     -23.040  -9.561  -0.261  0.00  0.00     0.229 C 
BRANCH  25  26
HETATM   26  N           1     -21.582  -9.775   0.016  0.00  0.00    -0.079 N 
HETATM   27  H           1     -21.361 -10.794  -0.047  0.00  0.00     0.274 HD
HETATM   28  H           1     -21.012  -9.252  -0.687  0.00  0.00     0.274 HD
HETATM   29  H           1     -21.355  -9.428   0.976  0.00  0.00     0.274 HD
ENDBRANCH  25  26
ENDBRANCH  24  25
ENDBRANCH  23  24
ENDBRANCH  22  23
ENDBRANCH  21  22
BRANCH  21  30
HETATM   30  N           1     -20.733 -12.255  -2.859  0.00  0.00    -0.067 N 
HETATM   31  H           1     -20.385 -12.994  -3.511  0.00  0.00     0.275 HD
HETATM   32  H           1     -19.923 -11.706  -2.492  0.00  0.00     0.275 HD
HETATM   33  H           1     -21.239 -12.705  -2.062  0.00  0.00     0.275 HD
ENDBRANCH  21  30
ENDBRANCH   3  21
TORSDOF 13
ENDMDL
MODEL 9
REMARK VINA RESULT:      -5.2      3.024      7.407
REMARK  13 active torsions:
REMARK  status: ('A' for Active; 'I' for Inactive)
REMARK    1  A    between atoms: C_2  and  C_28 
REMARK    2  A    between atoms: C_2  and  C_3 
REMARK    3  A    between atoms: C_3  and  C_4 
REMARK    4  A    between atoms: C_4  and  C_5 
REMARK    5  A    between atoms: C_5  and  N_27 
REMARK    6  A    between atoms: N_6  and  C_12 
REMARK       I    between atoms: N_6  and  C_7 
REMARK    7  A    between atoms: C_7  and  C_28 
REMARK       I    between atoms: C_9  and  N_17 
REMARK       I    between atoms: C_9  and  N_24 
REMARK    8  A    between atoms: C_12  and  C_14 
REMARK    9  A    between atoms: C_12  and  C_29 
REMARK   10  A    between atoms: C_14  and  C_30 
REMARK   11  A    between atoms: C_23  and  N_26 
REMARK   12  A    between atoms: C_23  and  C_30 
REMARK   13  A    between atoms: C_28  and  N_32 
ROOT
HETATM    1  H           1     -20.426  -5.677  -3.621  0.00  0.00     0.163 HD
HETATM    2  N           1     -20.795  -6.540  -3.998  0.00  0.00    -0.345 N 
HETATM    3  C           1     -20.866  -6.721  -5.353  0.00  0.00     0.249 C 
HETATM    4  O           1     -21.307  -7.752  -5.803  0.00  0.00    -0.271 OA
ENDROOT
BRANCH   2   5
HETATM    5  C           1     -21.250  -7.586  -3.102  0.00  0.00     0.185 C 
BRANCH   5   6
HETATM    6  C           1     -20.049  -8.365  -2.580  0.00  0.00     0.038 C 
BRANCH   6   7
HETATM    7  C           1     -20.305  -9.858  -2.737  0.00  0.00     0.023 C 
BRANCH   7   8
HETATM    8  C           1     -19.926 -10.293  -4.146  0.00  0.00     0.138 C 
BRANCH   8   9
HETATM    9  N           1     -18.464 -10.401  -4.252  0.00  0.00    -0.227 N 
HETATM   10  C           1     -17.859  -9.872  -5.229  0.00  0.00     0.665 C 
HETATM   11  N           1     -16.566  -9.967  -5.322  0.00  0.00    -0.235 N 
HETATM   12  N           1     -18.513  -9.250  -6.117  0.00  0.00    -0.235 N 
HETATM   13  H           1     -16.026 -10.481  -4.590  0.00  0.00     0.174 HD
HETATM   14  H           1     -16.067  -9.531  -6.130  0.00  0.00     0.174 HD
HETATM   15  H           1     -19.558  -9.173  -6.042  0.00  0.00     0.174 HD
HETATM   16  H           1     -18.012  -8.811  -6.928  0.00  0.00     0.174 HD
HETATM   17  H           1     -17.922 -10.917  -3.516  0.00  0.00     0.177 HD
ENDBRANCH   8   9
ENDBRANCH   7   8
ENDBRANCH   6   7
ENDBRANCH   5   6
BRANCH   5  18
HETATM   18  C           1     -21.991  -6.967  -1.942  0.00  0.00     0.196 C 
HETATM   19  O           1     -22.576  -5.872  -2.085  0.00  0.00    -0.646 OA
HETATM   20  O           1     -22.018  -7.552  -0.837  0.00  0.00    -0.646 OA
ENDBRANCH   5  18
ENDBRANCH   2   5
BRANCH   3  21
HETATM   21  C           1     -20.393  -5.632  -6.285  0.00  0.00     0.274 C 
BRANCH  21  22
HETATM   22  C           1     -21.584  -4.801  -6.742  0.00  0.00     0.042 C 
BRANCH  22  23
HETATM   23  C           1     -21.842  -5.052  -8.222  0.00  0.00     0.004 C 
BRANCH  23  24
HETATM   24  C           1     -21.902  -3.720  -8.959  0.00  0.00     0.027 C 
BRANCH  24  25
HETATM   25  C           1     -23.211  -3.626  -9.732  0.00  0.00     0.229 C 
BRANCH  25  26
HETATM   26  N           1     -24.363  -3.683  -8.774  0.00  0.00    -0.079 N 
HETATM   27  H           1     -24.252  -4.507  -8.142  0.00  0.00     0.274 HD
HETATM   28  H           1     -24.385  -2.807  -8.203  0.00  0.00     0.274 HD
HETATM   29  H           1     -25.257  -3.771  -9.309  0.00  0.00     0.274 HD
ENDBRANCH  25  26
ENDBRANCH  24  25
ENDBRANCH  23  24
ENDBRANCH  22  23
ENDBRANCH  21  22
BRANCH  21  30
HETATM   30  N           1     -19.729  -6.252  -7.479  0.00  0.00    -0.067 N 
HETATM   31  H           1     -18.692  -6.218  -7.358  0.00  0.00     0.275 HD
HETATM   32  H           1     -20.036  -7.247  -7.572  0.00  0.00     0.275 HD
HETATM   33  H           1     -19.996  -5.723  -8.340  0.00  0.00     0.275 HD
ENDBRANCH  21  30
ENDBRANCH   3  21
TORSDOF 13
ENDMDL
