MODEL 1
REMARK VINA RESULT:      -6.5      0.000      0.000
REMARK  8 active torsions:
REMARK  status: ('A' for Active; 'I' for Inactive)
REMARK    1  A    between atoms: N_1  and  C_11 
REMARK       I    between atoms: N_1  and  C_2 
REMARK    2  A    between atoms: C_2  and  C_3 
REMARK    3  A    between atoms: C_3  and  C_4 
REMARK    4  A    between atoms: C_3  and  N_8 
REMARK    5  A    between atoms: C_4  and  C_5 
REMARK       I    between atoms: C_5  and  N_6 
REMARK    6  A    between atoms: C_9  and  O_10 
REMARK    7  A    between atoms: C_9  and  C_11 
REMARK    8  A    between atoms: C_11  and  C_12 
ROOT
HETATM    1  N           1     -22.129  -4.781  -9.064  0.00  0.00    -0.343 N 
HETATM    2  C           1     -21.682  -4.536  -7.794  0.00  0.00     0.249 C 
HETATM    3  O           1     -21.664  -3.405  -7.366  0.00  0.00    -0.271 OA
HETATM    4  H           1     -22.143  -5.727  -9.422  0.00  0.00     0.163 HD
ENDROOT
BRANCH   2   5
HETATM    5  C           1     -21.208  -5.677  -6.927  0.00  0.00     0.283 C 
BRANCH   5   6
HETATM    6  C           1     -20.968  -5.174  -5.510  0.00  0.00     0.145 C 
BRANCH   6   7
HETATM    7  C           1     -21.182  -6.303  -4.532  0.00  0.00     0.217 C 
HETATM    8  N           1     -21.928  -6.099  -3.403  0.00  0.00    -0.370 N 
HETATM    9  H           1     -22.071  -6.855  -2.747  0.00  0.00     0.159 HD
HETATM   10  H           1     -22.337  -5.190  -3.224  0.00  0.00     0.159 HD
HETATM   11  O           1     -20.694  -7.387  -4.746  0.00  0.00    -0.274 OA
ENDBRANCH   6   7
ENDBRANCH   5   6
BRANCH   5  12
HETATM   12  N           1     -19.931  -6.231  -7.484  0.00  0.00    -0.066 N 
HETATM   13  H           1     -19.615  -7.037  -6.898  0.00  0.00     0.275 HD
HETATM   14  H           1     -20.090  -6.555  -8.465  0.00  0.00     0.275 HD
HETATM   15  H           1     -19.196  -5.487  -7.477  0.00  0.00     0.275 HD
ENDBRANCH   5  12
ENDBRANCH   2   5
BRANCH   1  16
HETATM   16  C           1     -22.583  -3.684  -9.897  0.00  0.00     0.214 C 
BRANCH  16  17
HETATM   17  C           1     -21.792  -3.674 -11.199  0.00  0.00     0.147 C 
HETATM   18  C           1     -20.416  -4.282 -10.961  0.00  0.00     0.042 C 
BRANCH  17  19
HETATM   19  O           1     -22.475  -4.428 -12.165  0.00  0.00    -0.393 OA
HETATM   20  H           1     -22.055  -4.259 -12.991  0.00  0.00     0.210 HD
ENDBRANCH  17  19
ENDBRANCH  16  17
BRANCH  16  21
HETATM   21  C           1     -24.050  -3.859 -10.201  0.00  0.00     0.199 C 
HETATM   22  O           1     -24.695  -2.927 -10.727  0.00  0.00    -0.646 OA
HETATM   23  O           1     -24.621  -4.937  -9.927  0.00  0.00    -0.646 OA
ENDBRANCH  16  21
ENDBRANCH   1  16
TORSDOF 8
ENDMDL
MODEL 2
REMARK VINA RESULT:      -6.3     13.440     14.737
REMARK  8 active torsions:
REMARK  status: ('A' for Active; 'I' for Inactive)
REMARK    1  A    between atoms: N_1  and  C_11 
REMARK       I    between atoms: N_1  and  C_2 
REMARK    2  A    between atoms: C_2  and  C_3 
REMARK    3  A    between atoms: C_3  and  C_4 
REMARK    4  A    between atoms: C_3  and  N_8 
REMARK    5  A    between atoms: C_4  and  C_5 
REMARK       I    between atoms: C_5  and  N_6 
REMARK    6  A    between atoms: C_9  and  O_10 
REMARK    7  A    between atoms: C_9  and  C_11 
REMARK    8  A    between atoms: C_11  and  C_12 
ROOT
HETATM    1  N           1     -34.995  -1.323 -13.930  0.00  0.00    -0.343 N 
HETATM    2  C           1     -35.307  -1.815 -12.692  0.00  0.00     0.249 C 
HETATM    3  O           1     -36.412  -1.644 -12.234  0.00  0.00    -0.271 OA
HETATM    4  H           1     -34.069  -1.466 -14.313  0.00  0.00     0.163 HD
ENDROOT
BRANCH   2   5
HETATM    5  C           1     -34.270  -2.568 -11.895  0.00  0.00     0.283 C 
BRANCH   5   6
HETATM    6  C           1     -34.923  -3.758 -11.205  0.00  0.00     0.145 C 
BRANCH   6   7
HETATM    7  C           1     -34.572  -5.025 -11.945  0.00  0.00     0.217 C 
HETATM    8  N           1     -33.600  -5.856 -11.458  0.00  0.00    -0.370 N 
HETATM    9  H           1     -33.364  -6.705 -11.953  0.00  0.00     0.159 HD
HETATM   10  H           1     -33.117  -5.620 -10.599  0.00  0.00     0.159 HD
HETATM   11  O           1     -35.149  -5.306 -12.969  0.00  0.00    -0.274 OA
ENDBRANCH   6   7
ENDBRANCH   5   6
BRANCH   5  12
HETATM   12  N           1     -33.672  -1.658 -10.864  0.00  0.00    -0.066 N 
HETATM   13  H           1     -32.930  -1.070 -11.305  0.00  0.00     0.275 HD
HETATM   14  H           1     -34.418  -1.040 -10.471  0.00  0.00     0.275 HD
HETATM   15  H           1     -33.254  -2.230 -10.096  0.00  0.00     0.275 HD
ENDBRANCH   5  12
ENDBRANCH   2   5
BRANCH   1  16
HETATM   16  C           1     -35.991  -0.599 -14.694  0.00  0.00     0.214 C 
BRANCH  16  17
HETATM   17  C           1     -35.811   0.898 -14.473  0.00  0.00     0.147 C 
HETATM   18  C           1     -34.449   1.157 -13.842  0.00  0.00     0.042 C 
BRANCH  17  19
HETATM   19  O           1     -35.891   1.565 -15.704  0.00  0.00    -0.393 OA
HETATM   20  H           1     -35.975   2.483 -15.513  0.00  0.00     0.210 HD
ENDBRANCH  17  19
ENDBRANCH  16  17
BRANCH  16  21
HETATM   21  C           1     -35.826  -0.914 -16.161  0.00  0.00     0.199 C 
HETATM   22  O           1     -34.733  -1.341 -16.589  0.00  0.00    -0.646 OA
HETATM   23  O           1     -36.784  -0.748 -16.948  0.00  0.00    -0.646 OA
ENDBRANCH  16  21
ENDBRANCH   1  16
TORSDOF 8
ENDMDL
MODEL 3
REMARK VINA RESULT:      -5.5      1.710      2.563
REMARK  8 active torsions:
REMARK  status: ('A' for Active; 'I' for Inactive)
REMARK    1  A    between atoms: N_1  and  C_11 
REMARK       I    between atoms: N_1  and  C_2 
REMARK    2  A    between atoms: C_2  and  C_3 
REMARK    3  A    between atoms: C_3  and  C_4 
REMARK    4  A    between atoms: C_3  and  N_8 
REMARK    5  A    between atoms: C_4  and  C_5 
REMARK       I    between atoms: C_5  and  N_6 
REMARK    6  A    between atoms: C_9  and  O_10 
REMARK    7  A    between atoms: C_9  and  C_11 
REMARK    8  A    between atoms: C_11  and  C_12 
ROOT
HETATM    1  N           1     -22.214  -4.284  -9.115  0.00  0.00    -0.343 N 
HETATM    2  C           1     -21.255  -4.664  -8.215  0.00  0.00     0.249 C 
HETATM    3  O           1     -20.302  -5.310  -8.583  0.00  0.00    -0.271 OA
HETATM    4  H           1     -23.011  -3.743  -8.806  0.00  0.00     0.163 HD
ENDROOT
BRANCH   2   5
HETATM    5  C           1     -21.388  -4.279  -6.762  0.00  0.00     0.283 C 
BRANCH   5   6
HETATM    6  C           1     -20.178  -4.784  -5.989  0.00  0.00     0.145 C 
BRANCH   6   7
HETATM    7  C           1     -20.497  -6.124  -5.372  0.00  0.00     0.217 C 
HETATM    8  N           1     -20.182  -7.277  -6.039  0.00  0.00    -0.370 N 
HETATM    9  H           1     -20.396  -8.175  -5.626  0.00  0.00     0.159 HD
HETATM   10  H           1     -19.735  -7.231  -6.946  0.00  0.00     0.159 HD
HETATM   11  O           1     -21.030  -6.178  -4.289  0.00  0.00    -0.274 OA
ENDBRANCH   6   7
ENDBRANCH   5   6
BRANCH   5  12
HETATM   12  N           1     -22.635  -4.891  -6.195  0.00  0.00    -0.066 N 
HETATM   13  H           1     -23.373  -4.928  -6.933  0.00  0.00     0.275 HD
HETATM   14  H           1     -22.427  -5.860  -5.862  0.00  0.00     0.275 HD
HETATM   15  H           1     -22.973  -4.312  -5.393  0.00  0.00     0.275 HD
ENDBRANCH   5  12
ENDBRANCH   2   5
BRANCH   1  16
HETATM   16  C           1     -22.085  -4.655 -10.511  0.00  0.00     0.214 C 
BRANCH  16  17
HETATM   17  C           1     -23.471  -4.856 -11.112  0.00  0.00     0.147 C 
HETATM   18  C           1     -24.454  -3.898 -10.451  0.00  0.00     0.042 C 
BRANCH  17  19
HETATM   19  O           1     -23.423  -4.600 -12.490  0.00  0.00    -0.393 OA
HETATM   20  H           1     -23.516  -3.669 -12.599  0.00  0.00     0.210 HD
ENDBRANCH  17  19
ENDBRANCH  16  17
BRANCH  16  21
HETATM   21  C           1     -21.367  -3.558 -11.258  0.00  0.00     0.199 C 
HETATM   22  O           1     -20.165  -3.696 -11.568  0.00  0.00    -0.646 OA
HETATM   23  O           1     -21.977  -2.511 -11.568  0.00  0.00    -0.646 OA
ENDBRANCH  16  21
ENDBRANCH   1  16
TORSDOF 8
ENDMDL
MODEL 4
REMARK VINA RESULT:      -5.5     11.746     14.181
REMARK  8 active torsions:
REMARK  status: ('A' for Active; 'I' for Inactive)
REMARK    1  A    between atoms: N_1  and  C_11 
REMARK       I    between atoms: N_1  and  C_2 
REMARK    2  A    between atoms: C_2  and  C_3 
REMARK    3  A    between atoms: C_3  and  C_4 
REMARK    4  A    between atoms: C_3  and  N_8 
REMARK    5  A    between atoms: C_4  and  C_5 
REMARK       I    between atoms: C_5  and  N_6 
REMARK    6  A    between atoms: C_9  and  O_10 
REMARK    7  A    between atoms: C_9  and  C_11 
REMARK    8  A    between atoms: C_11  and  C_12 
ROOT
HETATM    1  N           1     -34.692  -1.308 -12.902  0.00  0.00    -0.343 N 
HETATM    2  C           1     -34.714  -2.458 -12.160  0.00  0.00     0.249 C 
HETATM    3  O           1     -35.600  -3.265 -12.321  0.00  0.00    -0.271 OA
HETATM    4  H           1     -33.951  -0.633 -12.767  0.00  0.00     0.163 HD
ENDROOT
BRANCH   2   5
HETATM    5  C           1     -33.635  -2.717 -11.138  0.00  0.00     0.283 C 
BRANCH   5   6
HETATM    6  C           1     -33.816  -4.110 -10.549  0.00  0.00     0.145 C 
BRANCH   6   7
HETATM    7  C           1     -33.014  -5.104 -11.351  0.00  0.00     0.217 C 
HETATM    8  N           1     -33.253  -6.445 -11.217  0.00  0.00    -0.370 N 
HETATM    9  H           1     -32.716  -7.112 -11.755  0.00  0.00     0.159 HD
HETATM   10  H           1     -33.969  -6.770 -10.579  0.00  0.00     0.159 HD
HETATM   11  O           1     -32.160  -4.716 -12.114  0.00  0.00    -0.274 OA
ENDBRANCH   6   7
ENDBRANCH   5   6
BRANCH   5  12
HETATM   12  N           1     -33.726  -1.696 -10.043  0.00  0.00    -0.066 N 
HETATM   13  H           1     -34.316  -2.069  -9.265  0.00  0.00     0.275 HD
HETATM   14  H           1     -32.768  -1.485  -9.683  0.00  0.00     0.275 HD
HETATM   15  H           1     -34.158  -0.821 -10.419  0.00  0.00     0.275 HD
ENDBRANCH   5  12
ENDBRANCH   2   5
BRANCH   1  16
HETATM   16  C           1     -35.730  -1.059 -13.884  0.00  0.00     0.214 C 
BRANCH  16  17
HETATM   17  C           1     -36.783  -0.134 -13.285  0.00  0.00     0.147 C 
HETATM   18  C           1     -37.917   0.055 -14.283  0.00  0.00     0.042 C 
BRANCH  17  19
HETATM   19  O           1     -37.286  -0.702 -12.106  0.00  0.00    -0.393 OA
HETATM   20  H           1     -36.928  -1.571 -12.046  0.00  0.00     0.210 HD
ENDBRANCH  17  19
ENDBRANCH  16  17
BRANCH  16  21
HETATM   21  C           1     -35.123  -0.408 -15.102  0.00  0.00     0.199 C 
HETATM   22  O           1     -34.524   0.683 -14.995  0.00  0.00    -0.646 OA
HETATM   23  O           1     -35.218  -0.962 -16.219  0.00  0.00    -0.646 OA
ENDBRANCH  16  21
ENDBRANCH   1  16
TORSDOF 8
ENDMDL
MODEL 5
REMARK VINA RESULT:      -5.1      1.968      6.315
REMARK  8 active torsions:
REMARK  status: ('A' for Active; 'I' for Inactive)
REMARK    1  A    between atoms: N_1  and  C_11 
REMARK       I    between atoms: N_1  and  C_2 
REMARK    2  A    between atoms: C_2  and  C_3 
REMARK    3  A    between atoms: C_3  and  C_4 
REMARK    4  A    between atoms: C_3  and  N_8 
REMARK    5  A    between atoms: C_4  and  C_5 
REMARK       I    between atoms: C_5  and  N_6 
REMARK    6  A    between atoms: C_9  and  O_10 
REMARK    7  A    between atoms: C_9  and  C_11 
REMARK    8  A    between atoms: C_11  and  C_12 
ROOT
HETATM    1  N           1     -21.252  -6.462  -6.580  0.00  0.00    -0.343 N 
HETATM    2  C           1     -20.970  -5.230  -7.106  0.00  0.00     0.249 C 
HETATM    3  O           1     -20.271  -4.457  -6.494  0.00  0.00    -0.271 OA
HETATM    4  H           1     -21.837  -7.109  -7.092  0.00  0.00     0.163 HD
ENDROOT
BRANCH   2   5
HETATM    5  C           1     -21.534  -4.836  -8.449  0.00  0.00     0.283 C 
BRANCH   5   6
HETATM    6  C           1     -20.400  -4.419  -9.375  0.00  0.00     0.145 C 
BRANCH   6   7
HETATM    7  C           1     -20.962  -4.054 -10.727  0.00  0.00     0.217 C 
HETATM    8  N           1     -20.360  -3.082 -11.479  0.00  0.00    -0.370 N 
HETATM    9  H           1     -20.736  -2.837 -12.385  0.00  0.00     0.159 HD
HETATM   10  H           1     -19.537  -2.608 -11.128  0.00  0.00     0.159 HD
HETATM   11  O           1     -21.944  -4.621 -11.146  0.00  0.00    -0.274 OA
ENDBRANCH   6   7
ENDBRANCH   5   6
BRANCH   5  12
HETATM   12  N           1     -22.485  -3.689  -8.275  0.00  0.00    -0.066 N 
HETATM   13  H           1     -21.963  -2.787  -8.358  0.00  0.00     0.275 HD
HETATM   14  H           1     -23.223  -3.733  -9.013  0.00  0.00     0.275 HD
HETATM   15  H           1     -22.932  -3.747  -7.332  0.00  0.00     0.275 HD
ENDBRANCH   5  12
ENDBRANCH   2   5
BRANCH   1  16
HETATM   16  C           1     -20.710  -6.840  -5.289  0.00  0.00     0.214 C 
BRANCH  16  17
HETATM   17  C           1     -21.826  -6.844  -4.252  0.00  0.00     0.147 C 
HETATM   18  C           1     -21.361  -6.102  -3.005  0.00  0.00     0.042 C 
BRANCH  17  19
HETATM   19  O           1     -22.957  -6.206  -4.782  0.00  0.00    -0.393 OA
HETATM   20  H           1     -22.650  -5.603  -5.437  0.00  0.00     0.210 HD
ENDBRANCH  17  19
ENDBRANCH  16  17
BRANCH  16  21
HETATM   21  C           1     -20.106  -8.220  -5.383  0.00  0.00     0.199 C 
HETATM   22  O           1     -19.051  -8.398  -6.028  0.00  0.00    -0.646 OA
HETATM   23  O           1     -20.662  -9.185  -4.814  0.00  0.00    -0.646 OA
ENDBRANCH  16  21
ENDBRANCH   1  16
TORSDOF 8
ENDMDL
MODEL 6
REMARK VINA RESULT:      -5.1      2.193      6.538
REMARK  8 active torsions:
REMARK  status: ('A' for Active; 'I' for Inactive)
REMARK    1  A    between atoms: N_1  and  C_11 
REMARK       I    between atoms: N_1  and  C_2 
REMARK    2  A    between atoms: C_2  and  C_3 
REMARK    3  A    between atoms: C_3  and  C_4 
REMARK    4  A    between atoms: C_3  and  N_8 
REMARK    5  A    between atoms: C_4  and  C_5 
REMARK       I    between atoms: C_5  and  N_6 
REMARK    6  A    between atoms: C_9  and  O_10 
REMARK    7  A    between atoms: C_9  and  C_11 
REMARK    8  A    between atoms: C_11  and  C_12 
ROOT
HETATM    1  N           1     -20.990  -6.525  -4.764  0.00  0.00    -0.343 N 
HETATM    2  C           1     -21.786  -5.768  -5.580  0.00  0.00     0.249 C 
HETATM    3  O           1     -22.987  -5.900  -5.546  0.00  0.00    -0.271 OA
HETATM    4  H           1     -19.985  -6.414  -4.793  0.00  0.00     0.163 HD
ENDROOT
BRANCH   2   5
HETATM    5  C           1     -21.165  -4.769  -6.526  0.00  0.00     0.283 C 
BRANCH   5   6
HETATM    6  C           1     -21.484  -5.161  -7.962  0.00  0.00     0.145 C 
BRANCH   6   7
HETATM    7  C           1     -22.491  -4.194  -8.535  0.00  0.00     0.217 C 
HETATM    8  N           1     -23.731  -4.078  -7.967  0.00  0.00    -0.370 N 
HETATM    9  H           1     -24.405  -3.430  -8.351  0.00  0.00     0.159 HD
HETATM   10  H           1     -23.972  -4.642  -7.162  0.00  0.00     0.159 HD
HETATM   11  O           1     -22.201  -3.520  -9.496  0.00  0.00    -0.274 OA
ENDBRANCH   6   7
ENDBRANCH   5   6
BRANCH   5  12
HETATM   12  N           1     -19.677  -4.754  -6.331  0.00  0.00    -0.066 N 
HETATM   13  H           1     -19.380  -5.630  -5.845  0.00  0.00     0.275 HD
HETATM   14  H           1     -19.205  -4.695  -7.261  0.00  0.00     0.275 HD
HETATM   15  H           1     -19.410  -3.927  -5.751  0.00  0.00     0.275 HD
ENDBRANCH   5  12
ENDBRANCH   2   5
BRANCH   1  16
HETATM   16  C           1     -21.588  -7.485  -3.856  0.00  0.00     0.214 C 
BRANCH  16  17
HETATM   17  C           1     -20.795  -8.785  -3.899  0.00  0.00     0.147 C 
HETATM   18  C           1     -21.173  -9.568  -5.149  0.00  0.00     0.042 C 
BRANCH  17  19
HETATM   19  O           1     -19.423  -8.494  -3.925  0.00  0.00    -0.393 OA
HETATM   20  H           1     -19.302  -7.705  -3.426  0.00  0.00     0.210 HD
ENDBRANCH  17  19
ENDBRANCH  16  17
BRANCH  16  21
HETATM   21  C           1     -21.568  -6.929  -2.453  0.00  0.00     0.199 C 
HETATM   22  O           1     -22.272  -5.938  -2.164  0.00  0.00    -0.646 OA
HETATM   23  O           1     -20.849  -7.462  -1.580  0.00  0.00    -0.646 OA
ENDBRANCH  16  21
ENDBRANCH   1  16
TORSDOF 8
ENDMDL
MODEL 7
REMARK VINA RESULT:      -5.0     12.594     14.401
REMARK  8 active torsions:
REMARK  status: ('A' for Active; 'I' for Inactive)
REMARK    1  A    between atoms: N_1  and  C_11 
REMARK       I    between atoms: N_1  and  C_2 
REMARK    2  A    between atoms: C_2  and  C_3 
REMARK    3  A    between atoms: C_3  and  C_4 
REMARK    4  A    between atoms: C_3  and  N_8 
REMARK    5  A    between atoms: C_4  and  C_5 
REMARK       I    between atoms: C_5  and  N_6 
REMARK    6  A    between atoms: C_9  and  O_10 
REMARK    7  A    between atoms: C_9  and  C_11 
REMARK    8  A    between atoms: C_11  and  C_12 
ROOT
HETATM    1  N           1     -35.379  -1.980 -11.638  0.00  0.00    -0.343 N 
HETATM    2  C           1     -34.646  -2.854 -12.394  0.00  0.00     0.249 C 
HETATM    3  O           1     -34.854  -2.949 -13.580  0.00  0.00    -0.271 OA
HETATM    4  H           1     -35.204  -1.900 -10.645  0.00  0.00     0.163 HD
ENDROOT
BRANCH   2   5
HETATM    5  C           1     -33.578  -3.701 -11.745  0.00  0.00     0.283 C 
BRANCH   5   6
HETATM    6  C           1     -34.212  -4.601 -10.694  0.00  0.00     0.145 C 
BRANCH   6   7
HETATM    7  C           1     -34.508  -5.951 -11.300  0.00  0.00     0.217 C 
HETATM    8  N           1     -34.852  -6.049 -12.621  0.00  0.00    -0.370 N 
HETATM    9  H           1     -35.050  -6.953 -13.027  0.00  0.00     0.159 HD
HETATM   10  H           1     -34.908  -5.215 -13.192  0.00  0.00     0.159 HD
HETATM   11  O           1     -34.440  -6.947 -10.618  0.00  0.00    -0.274 OA
ENDBRANCH   6   7
ENDBRANCH   5   6
BRANCH   5  12
HETATM   12  N           1     -32.561  -2.811 -11.094  0.00  0.00    -0.066 N 
HETATM   13  H           1     -31.741  -3.383 -10.789  0.00  0.00     0.275 HD
HETATM   14  H           1     -32.244  -2.086 -11.777  0.00  0.00     0.275 HD
HETATM   15  H           1     -32.988  -2.344 -10.263  0.00  0.00     0.275 HD
ENDBRANCH   5  12
ENDBRANCH   2   5
BRANCH   1  16
HETATM   16  C           1     -36.406  -1.167 -12.261  0.00  0.00     0.214 C 
BRANCH  16  17
HETATM   17  C           1     -37.437  -0.762 -11.215  0.00  0.00     0.147 C 
HETATM   18  C           1     -36.823  -0.881  -9.826  0.00  0.00     0.042 C 
BRANCH  17  19
HETATM   19  O           1     -37.833   0.564 -11.440  0.00  0.00    -0.393 OA
HETATM   20  H           1     -37.282   1.109 -10.903  0.00  0.00     0.210 HD
ENDBRANCH  17  19
ENDBRANCH  16  17
BRANCH  16  21
HETATM   21  C           1     -35.776   0.071 -12.852  0.00  0.00     0.199 C 
HETATM   22  O           1     -34.847   0.649 -12.248  0.00  0.00    -0.646 OA
HETATM   23  O           1     -36.182   0.516 -13.947  0.00  0.00    -0.646 OA
ENDBRANCH  16  21
ENDBRANCH   1  16
TORSDOF 8
ENDMDL
MODEL 8
REMARK VINA RESULT:      -5.0      2.890      4.559
REMARK  8 active torsions:
REMARK  status: ('A' for Active; 'I' for Inactive)
REMARK    1  A    between atoms: N_1  and  C_11 
REMARK       I    between atoms: N_1  and  C_2 
REMARK    2  A    between atoms: C_2  and  C_3 
REMARK    3  A    between atoms: C_3  and  C_4 
REMARK    4  A    between atoms: C_3  and  N_8 
REMARK    5  A    between atoms: C_4  and  C_5 
REMARK       I    between atoms: C_5  and  N_6 
REMARK    6  A    between atoms: C_9  and  O_10 
REMARK    7  A    between atoms: C_9  and  C_11 
REMARK    8  A    between atoms: C_11  and  C_12 
ROOT
HETATM    1  N           1     -21.795  -6.166  -5.468  0.00  0.00    -0.343 N 
HETATM    2  C           1     -21.458  -7.478  -5.273  0.00  0.00     0.249 C 
HETATM    3  O           1     -20.857  -8.082  -6.131  0.00  0.00    -0.271 OA
HETATM    4  H           1     -22.299  -5.661  -4.751  0.00  0.00     0.163 HD
ENDROOT
BRANCH   2   5
HETATM    5  C           1     -21.839  -8.173  -3.989  0.00  0.00     0.283 C 
BRANCH   5   6
HETATM    6  C           1     -21.031  -7.590  -2.837  0.00  0.00     0.145 C 
BRANCH   6   7
HETATM    7  C           1     -21.941  -6.791  -1.937  0.00  0.00     0.217 C 
HETATM    8  N           1     -22.207  -7.230  -0.668  0.00  0.00    -0.370 N 
HETATM    9  H           1     -22.817  -6.694  -0.065  0.00  0.00     0.159 HD
HETATM   10  H           1     -21.793  -8.091  -0.333  0.00  0.00     0.159 HD
HETATM   11  O           1     -22.435  -5.763  -2.337  0.00  0.00    -0.274 OA
ENDBRANCH   6   7
ENDBRANCH   5   6
BRANCH   5  12
HETATM   12  N           1     -21.552  -9.640  -4.109  0.00  0.00    -0.066 N 
HETATM   13  H           1     -20.756  -9.787  -4.771  0.00  0.00     0.275 HD
HETATM   14  H           1     -21.298 -10.023  -3.170  0.00  0.00     0.275 HD
HETATM   15  H           1     -22.400 -10.132  -4.469  0.00  0.00     0.275 HD
ENDBRANCH   5  12
ENDBRANCH   2   5
BRANCH   1  16
HETATM   16  C           1     -21.430  -5.500  -6.703  0.00  0.00     0.214 C 
BRANCH  16  17
HETATM   17  C           1     -22.497  -4.472  -7.060  0.00  0.00     0.147 C 
HETATM   18  C           1     -22.648  -4.403  -8.574  0.00  0.00     0.042 C 
BRANCH  17  19
HETATM   19  O           1     -23.719  -4.849  -6.484  0.00  0.00    -0.393 OA
HETATM   20  H           1     -24.196  -5.325  -7.143  0.00  0.00     0.210 HD
ENDBRANCH  17  19
ENDBRANCH  16  17
BRANCH  16  21
HETATM   21  C           1     -20.102  -4.806  -6.525  0.00  0.00     0.199 C 
HETATM   22  O           1     -19.732  -4.447  -5.387  0.00  0.00    -0.646 OA
HETATM   23  O           1     -19.371  -4.592  -7.517  0.00  0.00    -0.646 OA
ENDBRANCH  16  21
ENDBRANCH   1  16
TORSDOF 8
ENDMDL
MODEL 9
REMARK VINA RESULT:      -4.9     13.850     15.300
REMARK  8 active torsions:
REMARK  status: ('A' for Active; 'I' for Inactive)
REMARK    1  A    between atoms: N_1  and  C_11 
REMARK       I    between atoms: N_1  and  C_2 
REMARK    2  A    between atoms: C_2  and  C_3 
REMARK    3  A    between atoms: C_3  and  C_4 
REMARK    4  A    between atoms: C_3  and  N_8 
REMARK    5  A    between atoms: C_4  and  C_5 
REMARK       I    between atoms: C_5  and  N_6 
REMARK    6  A    between atoms: C_9  and  O_10 
REMARK    7  A    between atoms: C_9  and  C_11 
REMARK    8  A    between atoms: C_11  and  C_12 
ROOT
HETATM    1  N           1     -35.873  -1.066 -13.172  0.00  0.00    -0.343 N 
HETATM    2  C           1     -35.199  -2.180 -12.752  0.00  0.00     0.249 C 
HETATM    3  O           1     -34.498  -2.790 -13.525  0.00  0.00    -0.271 OA
HETATM    4  H           1     -36.460  -0.556 -12.525  0.00  0.00     0.163 HD
ENDROOT
BRANCH   2   5
HETATM    5  C           1     -35.332  -2.649 -11.324  0.00  0.00     0.283 C 
BRANCH   5   6
HETATM    6  C           1     -35.152  -1.467 -10.381  0.00  0.00     0.145 C 
BRANCH   6   7
HETATM    7  C           1     -36.505  -0.948  -9.961  0.00  0.00     0.217 C 
HETATM    8  N           1     -36.604  -0.040  -8.942  0.00  0.00    -0.370 N 
HETATM    9  H           1     -37.510   0.309  -8.660  0.00  0.00     0.159 HD
HETATM   10  H           1     -35.769   0.284  -8.470  0.00  0.00     0.159 HD
HETATM   11  O           1     -37.502  -1.334 -10.525  0.00  0.00    -0.274 OA
ENDBRANCH   6   7
ENDBRANCH   5   6
BRANCH   5  12
HETATM   12  N           1     -34.283  -3.682 -11.037  0.00  0.00    -0.066 N 
HETATM   13  H           1     -34.610  -4.615 -11.375  0.00  0.00     0.275 HD
HETATM   14  H           1     -33.397  -3.425 -11.528  0.00  0.00     0.275 HD
HETATM   15  H           1     -34.111  -3.726 -10.007  0.00  0.00     0.275 HD
ENDBRANCH   5  12
ENDBRANCH   2   5
BRANCH   1  16
HETATM   16  C           1     -35.745  -0.616 -14.545  0.00  0.00     0.214 C 
BRANCH  16  17
HETATM   17  C           1     -37.104  -0.154 -15.056  0.00  0.00     0.147 C 
HETATM   18  C           1     -38.072  -0.033 -13.886  0.00  0.00     0.042 C 
BRANCH  17  19
HETATM   19  O           1     -36.968   1.094 -15.681  0.00  0.00    -0.393 OA
HETATM   20  H           1     -36.205   1.042 -16.231  0.00  0.00     0.210 HD
ENDBRANCH  17  19
ENDBRANCH  16  17
BRANCH  16  21
HETATM   21  C           1     -34.767   0.532 -14.607  0.00  0.00     0.199 C 
HETATM   22  O           1     -33.914   0.577 -15.519  0.00  0.00    -0.646 OA
HETATM   23  O           1     -34.813   1.440 -13.749  0.00  0.00    -0.646 OA
ENDBRANCH  16  21
ENDBRANCH   1  16
TORSDOF 8
ENDMDL
