MODEL 1
REMARK VINA RESULT:      -7.7      0.000      0.000
REMARK  8 active torsions:
REMARK  status: ('A' for Active; 'I' for Inactive)
REMARK    1  A    between atoms: C_3  and  C_25 
REMARK    2  A    between atoms: C_3  and  C_11 
REMARK    3  A    between atoms: C_5  and  C_30 
REMARK    4  A    between atoms: N_6  and  C_25 
REMARK    5  A    between atoms: N_15  and  C_31 
REMARK       I    between atoms: N_15  and  C_24 
REMARK    6  A    between atoms: C_24  and  C_25 
REMARK    7  A    between atoms: C_26  and  C_31 
REMARK    8  A    between atoms: C_30  and  C_31 
ROOT
HETATM    1  H           1     -19.772  -7.391  -3.673  0.00  0.00     0.163 HD
HETATM    2  N           1     -19.993  -8.116  -4.342  0.00  0.00    -0.344 N 
HETATM    3  O           1     -21.220  -8.768  -6.091  0.00  0.00    -0.271 OA
HETATM    4  C           1     -20.957  -7.903  -5.291  0.00  0.00     0.249 C 
ENDROOT
BRANCH   4   5
HETATM    5  C           1     -21.690  -6.584  -5.337  0.00  0.00     0.278 C 
BRANCH   5   6
HETATM    6  C           1     -20.896  -5.591  -6.176  0.00  0.00     0.083 C 
BRANCH   6   7
HETATM    7  C           1     -21.798  -4.962  -7.192  0.00  0.00    -0.028 A 
HETATM    8  C           1     -21.452  -4.635  -8.532  0.00  0.00    -0.002 A 
HETATM    9  C           1     -20.280  -4.766  -9.301  0.00  0.00     0.014 A 
HETATM   10  C           1     -22.582  -4.070  -9.122  0.00  0.00     0.042 A 
HETATM   11  C           1     -20.281  -4.329 -10.631  0.00  0.00     0.001 A 
HETATM   12  C           1     -21.425  -3.768 -11.194  0.00  0.00     0.002 A 
HETATM   13  C           1     -22.601  -3.627 -10.450  0.00  0.00     0.030 A 
HETATM   14  N           1     -23.574  -4.058  -8.167  0.00  0.00    -0.365 N 
HETATM   15  H           1     -24.547  -3.691  -8.315  0.00  0.00     0.165 HD
HETATM   16  C           1     -23.110  -4.595  -6.996  0.00  0.00     0.096 A 
ENDBRANCH   6   7
ENDBRANCH   5   6
BRANCH   5  17
HETATM   17  N           1     -21.846  -6.050  -3.945  0.00  0.00    -0.066 N 
HETATM   18  H           1     -22.236  -6.797  -3.327  0.00  0.00     0.275 HD
HETATM   19  H           1     -20.914  -5.749  -3.582  0.00  0.00     0.275 HD
HETATM   20  H           1     -22.498  -5.233  -3.956  0.00  0.00     0.275 HD
ENDBRANCH   5  17
ENDBRANCH   4   5
BRANCH   2  21
HETATM   21  C           1     -19.288  -9.383  -4.298  0.00  0.00     0.191 C 
BRANCH  21  22
HETATM   22  C           1     -18.699  -9.584  -2.923  0.00  0.00     0.197 C 
HETATM   23  O           1     -17.488  -9.349  -2.722  0.00  0.00    -0.646 OA
HETATM   24  O           1     -19.422  -9.987  -1.987  0.00  0.00    -0.646 OA
ENDBRANCH  21  22
BRANCH  21  25
HETATM   25  C           1     -18.170  -9.378  -5.333  0.00  0.00     0.094 C 
BRANCH  25  26
HETATM   26  C           1     -18.184 -10.669  -6.089  0.00  0.00     0.028 A 
HETATM   27  C           1     -17.118 -11.531  -6.183  0.00  0.00     0.114 A 
HETATM   28  N           1     -17.566 -12.566  -6.956  0.00  0.00    -0.360 N 
HETATM   29  C           1     -18.860 -12.295  -7.295  0.00  0.00     0.180 A 
HETATM   30  H           1     -17.014 -13.414  -7.239  0.00  0.00     0.166 HD
HETATM   31  N           1     -19.262 -11.154  -6.784  0.00  0.00    -0.354 N 
ATOM     32  HN          1     -20.180 -10.721  -6.883  1.00  0.00     0.166 HD
ENDBRANCH  25  26
ENDBRANCH  21  25
ENDBRANCH   2  21
TORSDOF 8
ENDMDL
MODEL 2
REMARK VINA RESULT:      -7.7      3.117      7.780
REMARK  8 active torsions:
REMARK  status: ('A' for Active; 'I' for Inactive)
REMARK    1  A    between atoms: C_3  and  C_25 
REMARK    2  A    between atoms: C_3  and  C_11 
REMARK    3  A    between atoms: C_5  and  C_30 
REMARK    4  A    between atoms: N_6  and  C_25 
REMARK    5  A    between atoms: N_15  and  C_31 
REMARK       I    between atoms: N_15  and  C_24 
REMARK    6  A    between atoms: C_24  and  C_25 
REMARK    7  A    between atoms: C_26  and  C_31 
REMARK    8  A    between atoms: C_30  and  C_31 
ROOT
HETATM    1  H           1     -22.441  -6.069  -5.818  0.00  0.00     0.163 HD
HETATM    2  N           1     -21.559  -6.153  -6.307  0.00  0.00    -0.344 N 
HETATM    3  O           1     -19.695  -7.331  -6.660  0.00  0.00    -0.271 OA
HETATM    4  C           1     -20.747  -7.231  -6.077  0.00  0.00     0.249 C 
ENDROOT
BRANCH   4   5
HETATM    5  C           1     -21.169  -8.295  -5.093  0.00  0.00     0.278 C 
BRANCH   5   6
HETATM    6  C           1     -20.337  -8.173  -3.824  0.00  0.00     0.083 C 
BRANCH   6   7
HETATM    7  C           1     -21.155  -7.531  -2.749  0.00  0.00    -0.028 A 
HETATM    8  C           1     -21.749  -8.192  -1.638  0.00  0.00    -0.002 A 
HETATM    9  C           1     -21.782  -9.528  -1.197  0.00  0.00     0.014 A 
HETATM   10  C           1     -22.418  -7.222  -0.892  0.00  0.00     0.042 A 
HETATM   11  C           1     -22.480  -9.846  -0.026  0.00  0.00     0.001 A 
HETATM   12  C           1     -23.139  -8.856   0.700  0.00  0.00     0.002 A 
HETATM   13  C           1     -23.122  -7.521   0.281  0.00  0.00     0.030 A 
HETATM   14  N           1     -22.231  -6.018  -1.533  0.00  0.00    -0.365 N 
HETATM   15  H           1     -22.617  -5.097  -1.208  0.00  0.00     0.165 HD
HETATM   16  C           1     -21.469  -6.193  -2.658  0.00  0.00     0.096 A 
ENDBRANCH   6   7
ENDBRANCH   5   6
BRANCH   5  17
HETATM   17  N           1     -20.956  -9.650  -5.702  0.00  0.00    -0.066 N 
HETATM   18  H           1     -20.575 -10.301  -4.979  0.00  0.00     0.275 HD
HETATM   19  H           1     -21.867 -10.018  -6.057  0.00  0.00     0.275 HD
HETATM   20  H           1     -20.278  -9.573  -6.494  0.00  0.00     0.275 HD
ENDBRANCH   5  17
ENDBRANCH   4   5
BRANCH   2  21
HETATM   21  C           1     -21.154  -5.130  -7.252  0.00  0.00     0.191 C 
BRANCH  21  22
HETATM   22  C           1     -19.833  -4.542  -6.823  0.00  0.00     0.197 C 
HETATM   23  O           1     -18.961  -4.276  -7.678  0.00  0.00    -0.646 OA
HETATM   24  O           1     -19.610  -4.321  -5.614  0.00  0.00    -0.646 OA
ENDBRANCH  21  22
BRANCH  21  25
HETATM   25  C           1     -22.209  -4.031  -7.294  0.00  0.00     0.094 C 
BRANCH  25  26
HETATM   26  C           1     -22.977  -4.124  -8.575  0.00  0.00     0.028 A 
HETATM   27  C           1     -22.495  -4.677  -9.737  0.00  0.00     0.114 A 
HETATM   28  N           1     -23.515  -4.551 -10.639  0.00  0.00    -0.360 N 
HETATM   29  C           1     -24.554  -3.938 -10.000  0.00  0.00     0.180 A 
HETATM   30  H           1     -23.500  -4.868 -11.640  0.00  0.00     0.166 HD
HETATM   31  N           1     -24.258  -3.667  -8.750  0.00  0.00    -0.354 N 
ATOM     32  HN          1     -24.854  -3.215  -8.057  1.00  0.00     0.166 HD
ENDBRANCH  25  26
ENDBRANCH  21  25
ENDBRANCH   2  21
TORSDOF 8
ENDMDL
MODEL 3
REMARK VINA RESULT:      -7.6      1.559      1.896
REMARK  8 active torsions:
REMARK  status: ('A' for Active; 'I' for Inactive)
REMARK    1  A    between atoms: C_3  and  C_25 
REMARK    2  A    between atoms: C_3  and  C_11 
REMARK    3  A    between atoms: C_5  and  C_30 
REMARK    4  A    between atoms: N_6  and  C_25 
REMARK    5  A    between atoms: N_15  and  C_31 
REMARK       I    between atoms: N_15  and  C_24 
REMARK    6  A    between atoms: C_24  and  C_25 
REMARK    7  A    between atoms: C_26  and  C_31 
REMARK    8  A    between atoms: C_30  and  C_31 
ROOT
HETATM    1  H           1     -21.524  -8.263  -3.230  0.00  0.00     0.163 HD
HETATM    2  N           1     -20.919  -8.516  -4.000  0.00  0.00    -0.344 N 
HETATM    3  O           1     -20.134  -8.021  -6.032  0.00  0.00    -0.271 OA
HETATM    4  C           1     -20.855  -7.719  -5.112  0.00  0.00     0.249 C 
ENDROOT
BRANCH   4   5
HETATM    5  C           1     -21.687  -6.462  -5.187  0.00  0.00     0.278 C 
BRANCH   5   6
HETATM    6  C           1     -20.942  -5.406  -5.992  0.00  0.00     0.083 C 
BRANCH   6   7
HETATM    7  C           1     -21.832  -4.881  -7.074  0.00  0.00    -0.028 A 
HETATM    8  C           1     -21.451  -4.616  -8.419  0.00  0.00    -0.002 A 
HETATM    9  C           1     -20.247  -4.734  -9.137  0.00  0.00     0.014 A 
HETATM   10  C           1     -22.584  -4.141  -9.080  0.00  0.00     0.042 A 
HETATM   11  C           1     -20.218  -4.375 -10.490  0.00  0.00     0.001 A 
HETATM   12  C           1     -21.365  -3.904 -11.125  0.00  0.00     0.002 A 
HETATM   13  C           1     -22.573  -3.777 -10.432  0.00  0.00     0.030 A 
HETATM   14  N           1     -23.610  -4.122  -8.163  0.00  0.00    -0.365 N 
HETATM   15  H           1     -24.593  -3.811  -8.366  0.00  0.00     0.165 HD
HETATM   16  C           1     -23.166  -4.568  -6.946  0.00  0.00     0.096 A 
ENDBRANCH   6   7
ENDBRANCH   5   6
BRANCH   5  17
HETATM   17  N           1     -21.941  -5.948  -3.801  0.00  0.00    -0.066 N 
HETATM   18  H           1     -21.223  -6.336  -3.149  0.00  0.00     0.275 HD
HETATM   19  H           1     -21.883  -4.905  -3.802  0.00  0.00     0.275 HD
HETATM   20  H           1     -22.893  -6.245  -3.488  0.00  0.00     0.275 HD
ENDBRANCH   5  17
ENDBRANCH   4   5
BRANCH   2  21
HETATM   21  C           1     -20.119  -9.724  -3.928  0.00  0.00     0.191 C 
BRANCH  21  22
HETATM   22  C           1     -20.901 -10.805  -3.223  0.00  0.00     0.197 C 
HETATM   23  O           1     -20.308 -11.803  -2.761  0.00  0.00    -0.646 OA
HETATM   24  O           1     -22.140 -10.702  -3.101  0.00  0.00    -0.646 OA
ENDBRANCH  21  22
BRANCH  21  25
HETATM   25  C           1     -18.838  -9.438  -3.156  0.00  0.00     0.094 C 
BRANCH  25  26
HETATM   26  C           1     -17.657  -9.648  -4.051  0.00  0.00     0.028 A 
HETATM   27  C           1     -16.352  -9.705  -3.623  0.00  0.00     0.114 A 
HETATM   28  N           1     -15.616  -9.907  -4.757  0.00  0.00    -0.360 N 
HETATM   29  C           1     -16.487  -9.962  -5.808  0.00  0.00     0.180 A 
HETATM   30  H           1     -14.571 -10.002  -4.811  0.00  0.00     0.166 HD
HETATM   31  N           1     -17.729  -9.809  -5.411  0.00  0.00    -0.354 N 
ATOM     32  HN          1     -18.568  -9.811  -5.991  1.00  0.00     0.166 HD
ENDBRANCH  25  26
ENDBRANCH  21  25
ENDBRANCH   2  21
TORSDOF 8
ENDMDL
MODEL 4
REMARK VINA RESULT:      -7.6      2.101      3.360
REMARK  8 active torsions:
REMARK  status: ('A' for Active; 'I' for Inactive)
REMARK    1  A    between atoms: C_3  and  C_25 
REMARK    2  A    between atoms: C_3  and  C_11 
REMARK    3  A    between atoms: C_5  and  C_30 
REMARK    4  A    between atoms: N_6  and  C_25 
REMARK    5  A    between atoms: N_15  and  C_31 
REMARK       I    between atoms: N_15  and  C_24 
REMARK    6  A    between atoms: C_24  and  C_25 
REMARK    7  A    between atoms: C_26  and  C_31 
REMARK    8  A    between atoms: C_30  and  C_31 
ROOT
HETATM    1  H           1     -21.484  -8.526  -4.007  0.00  0.00     0.163 HD
HETATM    2  N           1     -20.694  -8.492  -4.638  0.00  0.00    -0.344 N 
HETATM    3  O           1     -19.606  -7.393  -6.250  0.00  0.00    -0.271 OA
HETATM    4  C           1     -20.549  -7.435  -5.496  0.00  0.00     0.249 C 
ENDROOT
BRANCH   4   5
HETATM    5  C           1     -21.568  -6.321  -5.500  0.00  0.00     0.278 C 
BRANCH   5   6
HETATM    6  C           1     -20.984  -5.100  -6.198  0.00  0.00     0.083 C 
BRANCH   6   7
HETATM    7  C           1     -21.899  -4.669  -7.301  0.00  0.00    -0.028 A 
HETATM    8  C           1     -21.532  -4.451  -8.658  0.00  0.00    -0.002 A 
HETATM    9  C           1     -20.324  -4.546  -9.374  0.00  0.00     0.014 A 
HETATM   10  C           1     -22.686  -4.061  -9.338  0.00  0.00     0.042 A 
HETATM   11  C           1     -20.313  -4.251 -10.742  0.00  0.00     0.001 A 
HETATM   12  C           1     -21.481  -3.865 -11.396  0.00  0.00     0.002 A 
HETATM   13  C           1     -22.694  -3.762 -10.706  0.00  0.00     0.030 A 
HETATM   14  N           1     -23.712  -4.048  -8.420  0.00  0.00    -0.365 N 
HETATM   15  H           1     -24.708  -3.793  -8.635  0.00  0.00     0.165 HD
HETATM   16  C           1     -23.246  -4.414  -7.185  0.00  0.00     0.096 A 
ENDBRANCH   6   7
ENDBRANCH   5   6
BRANCH   5  17
HETATM   17  N           1     -21.925  -5.966  -4.088  0.00  0.00    -0.066 N 
HETATM   18  H           1     -22.575  -6.687  -3.701  0.00  0.00     0.275 HD
HETATM   19  H           1     -21.057  -5.933  -3.508  0.00  0.00     0.275 HD
HETATM   20  H           1     -22.393  -5.031  -4.071  0.00  0.00     0.275 HD
ENDBRANCH   5  17
ENDBRANCH   4   5
BRANCH   2  21
HETATM   21  C           1     -19.715  -9.561  -4.634  0.00  0.00     0.191 C 
BRANCH  21  22
HETATM   22  C           1     -20.348 -10.826  -5.160  0.00  0.00     0.197 C 
HETATM   23  O           1     -20.821 -10.853  -6.316  0.00  0.00    -0.646 OA
HETATM   24  O           1     -20.400 -11.845  -4.439  0.00  0.00    -0.646 OA
ENDBRANCH  21  22
BRANCH  21  25
HETATM   25  C           1     -19.224  -9.794  -3.211  0.00  0.00     0.094 C 
BRANCH  25  26
HETATM   26  C           1     -20.267  -9.336  -2.241  0.00  0.00     0.028 A 
HETATM   27  C           1     -20.264  -8.117  -1.607  0.00  0.00     0.114 A 
HETATM   28  N           1     -21.385  -8.120  -0.824  0.00  0.00    -0.360 N 
HETATM   29  C           1     -22.011  -9.319  -1.011  0.00  0.00     0.180 A 
HETATM   30  H           1     -21.705  -7.343  -0.194  0.00  0.00     0.166 HD
HETATM   31  N           1     -21.359 -10.075  -1.863  0.00  0.00    -0.354 N 
ATOM     32  HN          1     -21.610 -11.013  -2.177  1.00  0.00     0.166 HD
ENDBRANCH  25  26
ENDBRANCH  21  25
ENDBRANCH   2  21
TORSDOF 8
ENDMDL
MODEL 5
REMARK VINA RESULT:      -7.2     14.200     15.849
REMARK  8 active torsions:
REMARK  status: ('A' for Active; 'I' for Inactive)
REMARK    1  A    between atoms: C_3  and  C_25 
REMARK    2  A    between atoms: C_3  and  C_11 
REMARK    3  A    between atoms: C_5  and  C_30 
REMARK    4  A    between atoms: N_6  and  C_25 
REMARK    5  A    between atoms: N_15  and  C_31 
REMARK       I    between atoms: N_15  and  C_24 
REMARK    6  A    between atoms: C_24  and  C_25 
REMARK    7  A    between atoms: C_26  and  C_31 
REMARK    8  A    between atoms: C_30  and  C_31 
ROOT
HETATM    1  H           1     -32.664  -3.565 -14.070  0.00  0.00     0.163 HD
HETATM    2  N           1     -33.554  -4.044 -14.029  0.00  0.00    -0.344 N 
HETATM    3  O           1     -35.147  -5.171 -15.116  0.00  0.00    -0.271 OA
HETATM    4  C           1     -34.085  -4.599 -15.163  0.00  0.00     0.249 C 
ENDROOT
BRANCH   4   5
HETATM    5  C           1     -33.340  -4.497 -16.472  0.00  0.00     0.278 C 
BRANCH   5   6
HETATM    6  C           1     -31.845  -4.404 -16.201  0.00  0.00     0.083 C 
BRANCH   6   7
HETATM    7  C           1     -31.129  -5.468 -16.972  0.00  0.00    -0.028 A 
HETATM    8  C           1     -29.731  -5.520 -17.232  0.00  0.00    -0.002 A 
HETATM    9  C           1     -28.643  -4.691 -16.901  0.00  0.00     0.014 A 
HETATM   10  C           1     -29.495  -6.673 -17.980  0.00  0.00     0.042 A 
HETATM   11  C           1     -27.358  -5.046 -17.328  0.00  0.00     0.001 A 
HETATM   12  C           1     -27.151  -6.204 -18.074  0.00  0.00     0.002 A 
HETATM   13  C           1     -28.217  -7.043 -18.416  0.00  0.00     0.030 A 
HETATM   14  N           1     -30.710  -7.293 -18.163  0.00  0.00    -0.365 N 
HETATM   15  H           1     -30.854  -8.190 -18.690  0.00  0.00     0.165 HD
HETATM   16  C           1     -31.705  -6.573 -17.557  0.00  0.00     0.096 A 
ENDBRANCH   6   7
ENDBRANCH   5   6
BRANCH   5  17
HETATM   17  N           1     -33.792  -3.272 -17.209  0.00  0.00    -0.066 N 
HETATM   18  H           1     -33.143  -2.480 -17.001  0.00  0.00     0.275 HD
HETATM   19  H           1     -33.789  -3.463 -18.236  0.00  0.00     0.275 HD
HETATM   20  H           1     -34.759  -3.018 -16.903  0.00  0.00     0.275 HD
ENDBRANCH   5  17
ENDBRANCH   4   5
BRANCH   2  21
HETATM   21  C           1     -34.269  -4.143 -12.772  0.00  0.00     0.191 C 
BRANCH  21  22
HETATM   22  C           1     -34.898  -2.811 -12.444  0.00  0.00     0.197 C 
HETATM   23  O           1     -35.685  -2.713 -11.478  0.00  0.00    -0.646 OA
HETATM   24  O           1     -34.632  -1.807 -13.138  0.00  0.00    -0.646 OA
ENDBRANCH  21  22
BRANCH  21  25
HETATM   25  C           1     -33.297  -4.531 -11.665  0.00  0.00     0.094 C 
BRANCH  25  26
HETATM   26  C           1     -33.803  -5.750 -10.960  0.00  0.00     0.028 A 
HETATM   27  C           1     -34.945  -5.795 -10.197  0.00  0.00     0.114 A 
HETATM   28  N           1     -35.024  -7.085  -9.752  0.00  0.00    -0.360 N 
HETATM   29  C           1     -33.947  -7.758 -10.252  0.00  0.00     0.180 A 
HETATM   30  H           1     -35.776  -7.484  -9.136  0.00  0.00     0.166 HD
HETATM   31  N           1     -33.190  -6.977 -10.988  0.00  0.00    -0.354 N 
ATOM     32  HN          1     -32.331  -7.229 -11.475  1.00  0.00     0.166 HD
ENDBRANCH  25  26
ENDBRANCH  21  25
ENDBRANCH   2  21
TORSDOF 8
ENDMDL
MODEL 6
REMARK VINA RESULT:      -7.0      3.188      7.680
REMARK  8 active torsions:
REMARK  status: ('A' for Active; 'I' for Inactive)
REMARK    1  A    between atoms: C_3  and  C_25 
REMARK    2  A    between atoms: C_3  and  C_11 
REMARK    3  A    between atoms: C_5  and  C_30 
REMARK    4  A    between atoms: N_6  and  C_25 
REMARK    5  A    between atoms: N_15  and  C_31 
REMARK       I    between atoms: N_15  and  C_24 
REMARK    6  A    between atoms: C_24  and  C_25 
REMARK    7  A    between atoms: C_26  and  C_31 
REMARK    8  A    between atoms: C_30  and  C_31 
ROOT
HETATM    1  H           1     -22.616  -8.896  -4.087  0.00  0.00     0.163 HD
HETATM    2  N           1     -21.737  -8.554  -4.453  0.00  0.00    -0.344 N 
HETATM    3  O           1     -19.824  -9.009  -5.514  0.00  0.00    -0.271 OA
HETATM    4  C           1     -20.874  -9.415  -5.077  0.00  0.00     0.249 C 
ENDROOT
BRANCH   4   5
HETATM    5  C           1     -21.237 -10.873  -5.222  0.00  0.00     0.278 C 
BRANCH   5   6
HETATM    6  C           1     -20.435 -11.698  -4.225  0.00  0.00     0.083 C 
BRANCH   6   7
HETATM    7  C           1     -20.618 -11.138  -2.850  0.00  0.00    -0.028 A 
HETATM    8  C           1     -21.819 -11.161  -2.088  0.00  0.00    -0.002 A 
HETATM    9  C           1     -23.116 -11.657  -2.319  0.00  0.00     0.014 A 
HETATM   10  C           1     -21.546 -10.534  -0.872  0.00  0.00     0.042 A 
HETATM   11  C           1     -24.092 -11.509  -1.326  0.00  0.00     0.001 A 
HETATM   12  C           1     -23.792 -10.878  -0.121  0.00  0.00     0.002 A 
HETATM   13  C           1     -22.511 -10.377   0.131  0.00  0.00     0.030 A 
HETATM   14  N           1     -20.226 -10.147  -0.903  0.00  0.00    -0.365 N 
HETATM   15  H           1     -19.727  -9.648  -0.126  0.00  0.00     0.165 HD
HETATM   16  C           1     -19.655 -10.508  -2.095  0.00  0.00     0.096 A 
ENDBRANCH   6   7
ENDBRANCH   5   6
BRANCH   5  17
HETATM   17  N           1     -20.924 -11.330  -6.616  0.00  0.00    -0.066 N 
HETATM   18  H           1     -20.583 -10.519  -7.180  0.00  0.00     0.275 HD
HETATM   19  H           1     -20.184 -12.066  -6.582  0.00  0.00     0.275 HD
HETATM   20  H           1     -21.787 -11.722  -7.056  0.00  0.00     0.275 HD
ENDBRANCH   5  17
ENDBRANCH   4   5
BRANCH   2  21
HETATM   21  C           1     -21.388  -7.153  -4.314  0.00  0.00     0.191 C 
BRANCH  21  22
HETATM   22  C           1     -21.530  -6.739  -2.870  0.00  0.00     0.197 C 
HETATM   23  O           1     -20.797  -7.254  -1.998  0.00  0.00    -0.646 OA
HETATM   24  O           1     -22.379  -5.882  -2.547  0.00  0.00    -0.646 OA
ENDBRANCH  21  22
BRANCH  21  25
HETATM   25  C           1     -22.319  -6.311  -5.177  0.00  0.00     0.094 C 
BRANCH  25  26
HETATM   26  C           1     -21.555  -5.746  -6.332  0.00  0.00     0.028 A 
HETATM   27  C           1     -21.891  -4.595  -7.004  0.00  0.00     0.114 A 
HETATM   28  N           1     -20.935  -4.456  -7.971  0.00  0.00    -0.360 N 
HETATM   29  C           1     -20.073  -5.508  -7.849  0.00  0.00     0.180 A 
HETATM   30  H           1     -20.874  -3.681  -8.678  0.00  0.00     0.166 HD
HETATM   31  N           1     -20.422  -6.305  -6.866  0.00  0.00    -0.354 N 
ATOM     32  HN          1     -19.951  -7.157  -6.564  1.00  0.00     0.166 HD
ENDBRANCH  25  26
ENDBRANCH  21  25
ENDBRANCH   2  21
TORSDOF 8
ENDMDL
MODEL 7
REMARK VINA RESULT:      -6.7      3.729      8.019
REMARK  8 active torsions:
REMARK  status: ('A' for Active; 'I' for Inactive)
REMARK    1  A    between atoms: C_3  and  C_25 
REMARK    2  A    between atoms: C_3  and  C_11 
REMARK    3  A    between atoms: C_5  and  C_30 
REMARK    4  A    between atoms: N_6  and  C_25 
REMARK    5  A    between atoms: N_15  and  C_31 
REMARK       I    between atoms: N_15  and  C_24 
REMARK    6  A    between atoms: C_24  and  C_25 
REMARK    7  A    between atoms: C_26  and  C_31 
REMARK    8  A    between atoms: C_30  and  C_31 
ROOT
HETATM    1  H           1     -19.470  -7.919  -4.611  0.00  0.00     0.163 HD
HETATM    2  N           1     -20.323  -8.394  -4.345  0.00  0.00    -0.344 N 
HETATM    3  O           1     -21.463 -10.311  -4.223  0.00  0.00    -0.271 OA
HETATM    4  C           1     -20.445  -9.743  -4.541  0.00  0.00     0.249 C 
ENDROOT
BRANCH   4   5
HETATM    5  C           1     -19.307 -10.522  -5.154  0.00  0.00     0.278 C 
BRANCH   5   6
HETATM    6  C           1     -18.069  -9.639  -5.231  0.00  0.00     0.083 C 
BRANCH   6   7
HETATM    7  C           1     -16.948 -10.283  -4.478  0.00  0.00    -0.028 A 
HETATM    8  C           1     -15.898 -11.062  -5.041  0.00  0.00    -0.002 A 
HETATM    9  C           1     -15.570 -11.463  -6.349  0.00  0.00     0.014 A 
HETATM   10  C           1     -15.076 -11.465  -3.988  0.00  0.00     0.042 A 
HETATM   11  C           1     -14.432 -12.252  -6.558  0.00  0.00     0.001 A 
HETATM   12  C           1     -13.629 -12.639  -5.488  0.00  0.00     0.002 A 
HETATM   13  C           1     -13.935 -12.254  -4.179  0.00  0.00     0.030 A 
HETATM   14  N           1     -15.615 -10.946  -2.832  0.00  0.00    -0.365 N 
HETATM   15  H           1     -15.215 -11.079  -1.870  0.00  0.00     0.165 HD
HETATM   16  C           1     -16.747 -10.229  -3.117  0.00  0.00     0.096 A 
ENDBRANCH   6   7
ENDBRANCH   5   6
BRANCH   5  17
HETATM   17  N           1     -19.691 -10.965  -6.535  0.00  0.00    -0.066 N 
HETATM   18  H           1     -19.286 -10.306  -7.237  0.00  0.00     0.275 HD
HETATM   19  H           1     -19.323 -11.927  -6.707  0.00  0.00     0.275 HD
HETATM   20  H           1     -20.733 -10.968  -6.622  0.00  0.00     0.275 HD
ENDBRANCH   5  17
ENDBRANCH   4   5
BRANCH   2  21
HETATM   21  C           1     -21.416  -7.646  -3.755  0.00  0.00     0.191 C 
BRANCH  21  22
HETATM   22  C           1     -21.713  -6.434  -4.604  0.00  0.00     0.197 C 
HETATM   23  O           1     -20.783  -5.680  -4.962  0.00  0.00    -0.646 OA
HETATM   24  O           1     -22.888  -6.184  -4.946  0.00  0.00    -0.646 OA
ENDBRANCH  21  22
BRANCH  21  25
HETATM   25  C           1     -21.026  -7.199  -2.352  0.00  0.00     0.094 C 
BRANCH  25  26
HETATM   26  C           1     -21.865  -7.922  -1.346  0.00  0.00     0.028 A 
HETATM   27  C           1     -22.532  -7.320  -0.306  0.00  0.00     0.114 A 
HETATM   28  N           1     -23.161  -8.340   0.351  0.00  0.00    -0.360 N 
HETATM   29  C           1     -22.857  -9.499  -0.305  0.00  0.00     0.180 A 
HETATM   30  H           1     -23.768  -8.249   1.204  0.00  0.00     0.166 HD
HETATM   31  N           1     -22.075  -9.278  -1.336  0.00  0.00    -0.354 N 
ATOM     32  HN          1     -21.704  -9.966  -1.990  1.00  0.00     0.166 HD
ENDBRANCH  25  26
ENDBRANCH  21  25
ENDBRANCH   2  21
TORSDOF 8
ENDMDL
MODEL 8
REMARK VINA RESULT:      -6.7      3.892      6.018
REMARK  8 active torsions:
REMARK  status: ('A' for Active; 'I' for Inactive)
REMARK    1  A    between atoms: C_3  and  C_25 
REMARK    2  A    between atoms: C_3  and  C_11 
REMARK    3  A    between atoms: C_5  and  C_30 
REMARK    4  A    between atoms: N_6  and  C_25 
REMARK    5  A    between atoms: N_15  and  C_31 
REMARK       I    between atoms: N_15  and  C_24 
REMARK    6  A    between atoms: C_24  and  C_25 
REMARK    7  A    between atoms: C_26  and  C_31 
REMARK    8  A    between atoms: C_30  and  C_31 
ROOT
HETATM    1  H           1     -18.078  -8.399  -3.287  0.00  0.00     0.163 HD
HETATM    2  N           1     -18.210  -9.112  -3.992  0.00  0.00    -0.344 N 
HETATM    3  O           1     -19.356  -9.823  -5.773  0.00  0.00    -0.271 OA
HETATM    4  C           1     -19.197  -8.972  -4.930  0.00  0.00     0.249 C 
ENDROOT
BRANCH   4   5
HETATM    5  C           1     -20.086  -7.752  -4.914  0.00  0.00     0.278 C 
BRANCH   5   6
HETATM    6  C           1     -21.482  -8.147  -4.450  0.00  0.00     0.083 C 
BRANCH   6   7
HETATM    7  C           1     -21.687  -7.693  -3.039  0.00  0.00    -0.028 A 
HETATM    8  C           1     -21.466  -8.469  -1.867  0.00  0.00    -0.002 A 
HETATM    9  C           1     -21.029  -9.786  -1.633  0.00  0.00     0.014 A 
HETATM   10  C           1     -21.780  -7.661  -0.774  0.00  0.00     0.042 A 
HETATM   11  C           1     -20.919 -10.248  -0.316  0.00  0.00     0.001 A 
HETATM   12  C           1     -21.239  -9.419   0.757  0.00  0.00     0.002 A 
HETATM   13  C           1     -21.677  -8.107   0.550  0.00  0.00     0.030 A 
HETATM   14  N           1     -22.176  -6.441  -1.273  0.00  0.00    -0.365 N 
HETATM   15  H           1     -22.475  -5.621  -0.689  0.00  0.00     0.165 HD
HETATM   16  C           1     -22.123  -6.449  -2.642  0.00  0.00     0.096 A 
ENDBRANCH   6   7
ENDBRANCH   5   6
BRANCH   5  17
HETATM   17  N           1     -20.164  -7.172  -6.294  0.00  0.00    -0.066 N 
HETATM   18  H           1     -21.159  -6.952  -6.525  0.00  0.00     0.275 HD
HETATM   19  H           1     -19.596  -6.297  -6.336  0.00  0.00     0.275 HD
HETATM   20  H           1     -19.792  -7.864  -6.984  0.00  0.00     0.275 HD
ENDBRANCH   5  17
ENDBRANCH   4   5
BRANCH   2  21
HETATM   21  C           1     -17.356 -10.284  -4.008  0.00  0.00     0.191 C 
BRANCH  21  22
HETATM   22  C           1     -16.964 -10.641  -2.596  0.00  0.00     0.197 C 
HETATM   23  O           1     -15.830 -10.336  -2.166  0.00  0.00    -0.646 OA
HETATM   24  O           1     -17.771 -11.243  -1.856  0.00  0.00    -0.646 OA
ENDBRANCH  21  22
BRANCH  21  25
HETATM   25  C           1     -16.103  -9.986  -4.822  0.00  0.00     0.094 C 
BRANCH  25  26
HETATM   26  C           1     -15.671 -11.224  -5.544  0.00  0.00     0.028 A 
HETATM   27  C           1     -16.445 -11.912  -6.448  0.00  0.00     0.114 A 
HETATM   28  N           1     -15.667 -12.960  -6.855  0.00  0.00    -0.360 N 
HETATM   29  C           1     -14.476 -12.868  -6.194  0.00  0.00     0.180 A 
HETATM   30  H           1     -15.937 -13.701  -7.549  0.00  0.00     0.166 HD
HETATM   31  N           1     -14.448 -11.827  -5.395  0.00  0.00    -0.354 N 
ATOM     32  HN          1     -13.682 -11.530  -4.791  1.00  0.00     0.166 HD
ENDBRANCH  25  26
ENDBRANCH  21  25
ENDBRANCH   2  21
TORSDOF 8
ENDMDL
MODEL 9
REMARK VINA RESULT:      -6.4      4.327      6.131
REMARK  8 active torsions:
REMARK  status: ('A' for Active; 'I' for Inactive)
REMARK    1  A    between atoms: C_3  and  C_25 
REMARK    2  A    between atoms: C_3  and  C_11 
REMARK    3  A    between atoms: C_5  and  C_30 
REMARK    4  A    between atoms: N_6  and  C_25 
REMARK    5  A    between atoms: N_15  and  C_31 
REMARK       I    between atoms: N_15  and  C_24 
REMARK    6  A    between atoms: C_24  and  C_25 
REMARK    7  A    between atoms: C_26  and  C_31 
REMARK    8  A    between atoms: C_30  and  C_31 
ROOT
HETATM    1  H           1     -18.106  -8.890  -2.822  0.00  0.00     0.163 HD
HETATM    2  N           1     -18.043  -9.611  -3.528  0.00  0.00    -0.344 N 
HETATM    3  O           1     -18.769 -10.416  -5.481  0.00  0.00    -0.271 OA
HETATM    4  C           1     -18.844  -9.556  -4.637  0.00  0.00     0.249 C 
ENDROOT
BRANCH   4   5
HETATM    5  C           1     -19.821  -8.417  -4.805  0.00  0.00     0.278 C 
BRANCH   5   6
HETATM    6  C           1     -21.241  -8.966  -4.839  0.00  0.00     0.083 C 
BRANCH   6   7
HETATM    7  C           1     -21.609  -9.484  -3.484  0.00  0.00    -0.028 A 
HETATM    8  C           1     -21.880  -8.697  -2.330  0.00  0.00    -0.002 A 
HETATM    9  C           1     -21.898  -7.314  -2.070  0.00  0.00     0.014 A 
HETATM   10  C           1     -22.178  -9.580  -1.292  0.00  0.00     0.042 A 
HETATM   11  C           1     -22.215  -6.863  -0.783  0.00  0.00     0.001 A 
HETATM   12  C           1     -22.509  -7.767   0.235  0.00  0.00     0.002 A 
HETATM   13  C           1     -22.497  -9.146   0.001  0.00  0.00     0.030 A 
HETATM   14  N           1     -22.090 -10.854  -1.805  0.00  0.00    -0.365 N 
HETATM   15  H           1     -22.261 -11.735  -1.260  0.00  0.00     0.165 HD
HETATM   16  C           1     -21.746 -10.808  -3.130  0.00  0.00     0.096 A 
ENDBRANCH   6   7
ENDBRANCH   5   6
BRANCH   5  17
HETATM   17  N           1     -19.533  -7.698  -6.089  0.00  0.00    -0.066 N 
HETATM   18  H           1     -19.432  -8.393  -6.863  0.00  0.00     0.275 HD
HETATM   19  H           1     -20.320  -7.047  -6.307  0.00  0.00     0.275 HD
HETATM   20  H           1     -18.646  -7.154  -5.992  0.00  0.00     0.275 HD
ENDBRANCH   5  17
ENDBRANCH   4   5
BRANCH   2  21
HETATM   21  C           1     -17.104 -10.705  -3.367  0.00  0.00     0.191 C 
BRANCH  21  22
HETATM   22  C           1     -17.065 -11.126  -1.919  0.00  0.00     0.197 C 
HETATM   23  O           1     -18.129 -11.382  -1.314  0.00  0.00    -0.646 OA
HETATM   24  O           1     -15.970 -11.217  -1.324  0.00  0.00    -0.646 OA
ENDBRANCH  21  22
BRANCH  21  25
HETATM   25  C           1     -15.716 -10.250  -3.800  0.00  0.00     0.094 C 
BRANCH  25  26
HETATM   26  C           1     -15.258 -11.079  -4.958  0.00  0.00     0.028 A 
HETATM   27  C           1     -14.194 -11.949  -4.925  0.00  0.00     0.114 A 
HETATM   28  N           1     -14.134 -12.485  -6.181  0.00  0.00    -0.360 N 
HETATM   29  C           1     -15.144 -11.930  -6.912  0.00  0.00     0.180 A 
HETATM   30  H           1     -13.438 -13.195  -6.520  0.00  0.00     0.166 HD
HETATM   31  N           1     -15.842 -11.076  -6.200  0.00  0.00    -0.354 N 
ATOM     32  HN          1     -16.646 -10.527  -6.504  1.00  0.00     0.166 HD
ENDBRANCH  25  26
ENDBRANCH  21  25
ENDBRANCH   2  21
TORSDOF 8
ENDMDL
