MODEL 1
REMARK VINA RESULT:      -7.1      0.000      0.000
REMARK  11 active torsions:
REMARK  status: ('A' for Active; 'I' for Inactive)
REMARK    1  A    between atoms: O_3  and  P_4 
REMARK    2  A    between atoms: P_4  and  O_5 
REMARK    3  A    between atoms: O_5  and  C_6 
REMARK    4  A    between atoms: C_9  and  C_10 
REMARK    5  A    between atoms: C_10  and  C_11 
REMARK    6  A    between atoms: C_11  and  C_12 
REMARK    7  A    between atoms: C_11  and  N_24 
REMARK       I    between atoms: C_12  and  N_13 
REMARK    8  A    between atoms: N_13  and  C_17 
REMARK    9  A    between atoms: C_16  and  C_17 
REMARK   10  A    between atoms: C_17  and  C_18 
REMARK   11  A    between atoms: C_18  and  O_19 
ROOT
HETATM    1  C           1     -21.151  -5.539  -6.793  0.00  0.00     0.278 C 
ENDROOT
BRANCH   1   2
HETATM    2  C           1     -22.279  -5.846  -5.816  0.00  0.00     0.081 C 
BRANCH   2   3
HETATM    3  C           1     -21.759  -6.711  -4.710  0.00  0.00    -0.056 A 
HETATM    4  C           1     -21.390  -8.031  -4.970  0.00  0.00     0.010 A 
HETATM    5  C           1     -20.905  -8.836  -3.940  0.00  0.00     0.038 A 
HETATM    6  C           1     -20.789  -8.320  -2.649  0.00  0.00     0.081 A 
HETATM    7  C           1     -21.157  -7.001  -2.388  0.00  0.00     0.038 A 
HETATM    8  C           1     -21.642  -6.195  -3.420  0.00  0.00     0.010 A 
BRANCH   6   9
HETATM    9  O           1     -20.318  -9.103  -1.648  0.00  0.00    -0.247 OA
BRANCH   9  10
HETATM   10  P           1     -21.352  -9.566  -0.497  0.00  0.00     0.411 P 
HETATM   11  O           1     -22.690  -9.778  -1.094  0.00  0.00    -0.624 OA
HETATM   12  O           1     -20.879 -10.829   0.113  0.00  0.00    -0.624 OA
BRANCH  10  13
HETATM   13  O           1     -21.445  -8.422   0.639  0.00  0.00    -0.300 OA
HETATM   14  H           1     -21.591  -8.889   1.443  0.00  0.00     0.223 HD
ENDBRANCH  10  13
ENDBRANCH   9  10
ENDBRANCH   6   9
ENDBRANCH   2   3
ENDBRANCH   1   2
BRANCH   1  15
HETATM   15  C           1     -21.611  -4.495  -7.781  0.00  0.00     0.249 C 
HETATM   16  N           1     -22.029  -4.871  -9.029  0.00  0.00    -0.343 N 
HETATM   17  H           1     -22.028  -5.849  -9.289  0.00  0.00     0.163 HD
HETATM   18  O           1     -21.613  -3.328  -7.470  0.00  0.00    -0.271 OA
BRANCH  16  19
HETATM   19  C           1     -22.472  -3.868  -9.979  0.00  0.00     0.209 C 
BRANCH  19  20
HETATM   20  C           1     -23.965  -3.977 -10.163  0.00  0.00     0.198 C 
HETATM   21  O           1     -24.626  -2.974 -10.514  0.00  0.00    -0.646 OA
HETATM   22  O           1     -24.542  -5.067  -9.966  0.00  0.00    -0.646 OA
ENDBRANCH  19  20
BRANCH  19  23
HETATM   23  C           1     -21.778  -4.093 -11.315  0.00  0.00     0.200 C 
BRANCH  23  24
HETATM   24  O           1     -22.721  -4.497 -12.271  0.00  0.00    -0.398 OA
HETATM   25  H           1     -22.426  -5.323 -12.615  0.00  0.00     0.209 HD
ENDBRANCH  23  24
ENDBRANCH  19  23
ENDBRANCH  16  19
ENDBRANCH   1  15
BRANCH   1  26
HETATM   26  N           1     -19.964  -5.021  -6.037  0.00  0.00    -0.066 N 
HETATM   27  H           1     -20.289  -4.492  -5.196  0.00  0.00     0.275 HD
HETATM   28  H           1     -19.368  -5.824  -5.733  0.00  0.00     0.275 HD
HETATM   29  H           1     -19.408  -4.386  -6.653  0.00  0.00     0.275 HD
ENDBRANCH   1  26
TORSDOF 11
ENDMDL
MODEL 2
REMARK VINA RESULT:      -6.9     13.729     15.414
REMARK  11 active torsions:
REMARK  status: ('A' for Active; 'I' for Inactive)
REMARK    1  A    between atoms: O_3  and  P_4 
REMARK    2  A    between atoms: P_4  and  O_5 
REMARK    3  A    between atoms: O_5  and  C_6 
REMARK    4  A    between atoms: C_9  and  C_10 
REMARK    5  A    between atoms: C_10  and  C_11 
REMARK    6  A    between atoms: C_11  and  C_12 
REMARK    7  A    between atoms: C_11  and  N_24 
REMARK       I    between atoms: C_12  and  N_13 
REMARK    8  A    between atoms: N_13  and  C_17 
REMARK    9  A    between atoms: C_16  and  C_17 
REMARK   10  A    between atoms: C_17  and  C_18 
REMARK   11  A    between atoms: C_18  and  O_19 
ROOT
HETATM    1  C           1     -33.646  -4.814 -15.494  0.00  0.00     0.278 C 
ENDROOT
BRANCH   1   2
HETATM    2  C           1     -33.081  -3.955 -16.618  0.00  0.00     0.081 C 
BRANCH   2   3
HETATM    3  C           1     -31.768  -4.518 -17.065  0.00  0.00    -0.056 A 
HETATM    4  C           1     -31.510  -5.882 -16.927  0.00  0.00     0.010 A 
HETATM    5  C           1     -30.287  -6.407 -17.343  0.00  0.00     0.038 A 
HETATM    6  C           1     -29.321  -5.567 -17.899  0.00  0.00     0.081 A 
HETATM    7  C           1     -29.578  -4.204 -18.038  0.00  0.00     0.038 A 
HETATM    8  C           1     -30.803  -3.679 -17.621  0.00  0.00     0.010 A 
BRANCH   6   9
HETATM    9  O           1     -28.133  -6.077 -18.304  0.00  0.00    -0.247 OA
BRANCH   9  10
HETATM   10  P           1     -26.928  -6.135 -17.230  0.00  0.00     0.411 P 
HETATM   11  O           1     -25.646  -6.348 -17.938  0.00  0.00    -0.624 OA
HETATM   12  O           1     -26.872  -4.859 -16.482  0.00  0.00    -0.624 OA
BRANCH  10  13
HETATM   13  O           1     -27.182  -7.352 -16.198  0.00  0.00    -0.300 OA
HETATM   14  H           1     -26.327  -7.708 -16.028  0.00  0.00     0.223 HD
ENDBRANCH  10  13
ENDBRANCH   9  10
ENDBRANCH   6   9
ENDBRANCH   2   3
ENDBRANCH   1   2
BRANCH   1  15
HETATM   15  C           1     -34.210  -3.923 -14.415  0.00  0.00     0.249 C 
HETATM   16  N           1     -34.156  -4.317 -13.105  0.00  0.00    -0.343 N 
HETATM   17  H           1     -33.738  -5.205 -12.861  0.00  0.00     0.163 HD
HETATM   18  O           1     -34.709  -2.863 -14.706  0.00  0.00    -0.271 OA
BRANCH  16  19
HETATM   19  C           1     -34.698  -3.461 -12.067  0.00  0.00     0.209 C 
BRANCH  19  20
HETATM   20  C           1     -33.579  -2.668 -11.436  0.00  0.00     0.198 C 
HETATM   21  O           1     -32.430  -3.156 -11.365  0.00  0.00    -0.646 OA
HETATM   22  O           1     -33.802  -1.524 -10.984  0.00  0.00    -0.646 OA
ENDBRANCH  19  20
BRANCH  19  23
HETATM   23  C           1     -35.374  -4.317 -11.005  0.00  0.00     0.200 C 
BRANCH  23  24
HETATM   24  O           1     -34.430  -5.175 -10.424  0.00  0.00    -0.398 OA
HETATM   25  H           1     -34.895  -5.947 -10.147  0.00  0.00     0.209 HD
ENDBRANCH  23  24
ENDBRANCH  19  23
ENDBRANCH  16  19
ENDBRANCH   1  15
BRANCH   1  26
HETATM   26  N           1     -34.735  -5.691 -16.036  0.00  0.00    -0.066 N 
HETATM   27  H           1     -35.661  -5.350 -15.694  0.00  0.00     0.275 HD
HETATM   28  H           1     -34.718  -5.661 -17.081  0.00  0.00     0.275 HD
HETATM   29  H           1     -34.585  -6.674 -15.713  0.00  0.00     0.275 HD
ENDBRANCH   1  26
TORSDOF 11
ENDMDL
MODEL 3
REMARK VINA RESULT:      -6.8      3.412      8.513
REMARK  11 active torsions:
REMARK  status: ('A' for Active; 'I' for Inactive)
REMARK    1  A    between atoms: O_3  and  P_4 
REMARK    2  A    between atoms: P_4  and  O_5 
REMARK    3  A    between atoms: O_5  and  C_6 
REMARK    4  A    between atoms: C_9  and  C_10 
REMARK    5  A    between atoms: C_10  and  C_11 
REMARK    6  A    between atoms: C_11  and  C_12 
REMARK    7  A    between atoms: C_11  and  N_24 
REMARK       I    between atoms: C_12  and  N_13 
REMARK    8  A    between atoms: N_13  and  C_17 
REMARK    9  A    between atoms: C_16  and  C_17 
REMARK   10  A    between atoms: C_17  and  C_18 
REMARK   11  A    between atoms: C_18  and  O_19 
ROOT
HETATM    1  C           1     -21.389  -6.633  -4.982  0.00  0.00     0.278 C 
ENDROOT
BRANCH   1   2
HETATM    2  C           1     -20.325  -5.784  -5.666  0.00  0.00     0.081 C 
BRANCH   2   3
HETATM    3  C           1     -20.891  -5.187  -6.916  0.00  0.00    -0.056 A 
HETATM    4  C           1     -20.148  -5.203  -8.097  0.00  0.00     0.010 A 
HETATM    5  C           1     -20.676  -4.648  -9.262  0.00  0.00     0.038 A 
HETATM    6  C           1     -21.948  -4.076  -9.247  0.00  0.00     0.081 A 
HETATM    7  C           1     -22.692  -4.060  -8.068  0.00  0.00     0.038 A 
HETATM    8  C           1     -22.164  -4.617  -6.902  0.00  0.00     0.010 A 
BRANCH   6   9
HETATM    9  O           1     -22.461  -3.536 -10.379  0.00  0.00    -0.247 OA
BRANCH   9  10
HETATM   10  P           1     -23.749  -4.251 -11.043  0.00  0.00     0.411 P 
HETATM   11  O           1     -24.070  -5.485 -10.292  0.00  0.00    -0.624 OA
HETATM   12  O           1     -24.905  -3.329 -10.994  0.00  0.00    -0.624 OA
BRANCH  10  13
HETATM   13  O           1     -23.424  -4.626 -12.581  0.00  0.00    -0.300 OA
HETATM   14  H           1     -23.919  -5.409 -12.749  0.00  0.00     0.223 HD
ENDBRANCH  10  13
ENDBRANCH   9  10
ENDBRANCH   6   9
ENDBRANCH   2   3
ENDBRANCH   1   2
BRANCH   1  15
HETATM   15  C           1     -20.853  -8.026  -4.757  0.00  0.00     0.249 C 
HETATM   16  N           1     -19.508  -8.264  -4.845  0.00  0.00    -0.343 N 
HETATM   17  H           1     -18.873  -7.507  -5.062  0.00  0.00     0.163 HD
HETATM   18  O           1     -21.610  -8.931  -4.497  0.00  0.00    -0.271 OA
BRANCH  16  19
HETATM   19  C           1     -18.992  -9.602  -4.628  0.00  0.00     0.209 C 
BRANCH  19  20
HETATM   20  C           1     -18.318  -9.668  -3.280  0.00  0.00     0.198 C 
HETATM   21  O           1     -17.073  -9.580  -3.198  0.00  0.00    -0.646 OA
HETATM   22  O           1     -19.003  -9.811  -2.245  0.00  0.00    -0.646 OA
ENDBRANCH  19  20
BRANCH  19  23
HETATM   23  C           1     -17.982  -9.940  -5.717  0.00  0.00     0.200 C 
BRANCH  23  24
HETATM   24  O           1     -17.955  -8.908  -6.666  0.00  0.00    -0.398 OA
HETATM   25  H           1     -17.198  -8.380  -6.475  0.00  0.00     0.209 HD
ENDBRANCH  23  24
ENDBRANCH  19  23
ENDBRANCH  16  19
ENDBRANCH   1  15
BRANCH   1  26
HETATM   26  N           1     -21.746  -6.017  -3.663  0.00  0.00    -0.066 N 
HETATM   27  H           1     -21.513  -4.998  -3.679  0.00  0.00     0.275 HD
HETATM   28  H           1     -22.770  -6.137  -3.489  0.00  0.00     0.275 HD
HETATM   29  H           1     -21.206  -6.485  -2.901  0.00  0.00     0.275 HD
ENDBRANCH   1  26
TORSDOF 11
ENDMDL
MODEL 4
REMARK VINA RESULT:      -6.7     12.716     15.219
REMARK  11 active torsions:
REMARK  status: ('A' for Active; 'I' for Inactive)
REMARK    1  A    between atoms: O_3  and  P_4 
REMARK    2  A    between atoms: P_4  and  O_5 
REMARK    3  A    between atoms: O_5  and  C_6 
REMARK    4  A    between atoms: C_9  and  C_10 
REMARK    5  A    between atoms: C_10  and  C_11 
REMARK    6  A    between atoms: C_11  and  C_12 
REMARK    7  A    between atoms: C_11  and  N_24 
REMARK       I    between atoms: C_12  and  N_13 
REMARK    8  A    between atoms: N_13  and  C_17 
REMARK    9  A    between atoms: C_16  and  C_17 
REMARK   10  A    between atoms: C_17  and  C_18 
REMARK   11  A    between atoms: C_18  and  O_19 
ROOT
HETATM    1  C           1     -32.794  -4.950 -16.462  0.00  0.00     0.278 C 
ENDROOT
BRANCH   1   2
HETATM    2  C           1     -31.902  -5.467 -17.584  0.00  0.00     0.081 C 
BRANCH   2   3
HETATM    3  C           1     -30.617  -5.972 -17.007  0.00  0.00    -0.056 A 
HETATM    4  C           1     -29.912  -5.197 -16.086  0.00  0.00     0.010 A 
HETATM    5  C           1     -28.715  -5.668 -15.547  0.00  0.00     0.038 A 
HETATM    6  C           1     -28.223  -6.916 -15.930  0.00  0.00     0.081 A 
HETATM    7  C           1     -28.926  -7.692 -16.849  0.00  0.00     0.038 A 
HETATM    8  C           1     -30.125  -7.220 -17.388  0.00  0.00     0.010 A 
BRANCH   6   9
HETATM    9  O           1     -27.060  -7.374 -15.406  0.00  0.00    -0.247 OA
BRANCH   9  10
HETATM   10  P           1     -25.680  -6.913 -16.107  0.00  0.00     0.411 P 
HETATM   11  O           1     -25.135  -5.735 -15.397  0.00  0.00    -0.624 OA
HETATM   12  O           1     -24.701  -8.022 -16.046  0.00  0.00    -0.624 OA
BRANCH  10  13
HETATM   13  O           1     -25.961  -6.528 -17.651  0.00  0.00    -0.300 OA
HETATM   14  H           1     -26.848  -6.213 -17.665  0.00  0.00     0.223 HD
ENDBRANCH  10  13
ENDBRANCH   9  10
ENDBRANCH   6   9
ENDBRANCH   2   3
ENDBRANCH   1   2
BRANCH   1  15
HETATM   15  C           1     -33.257  -3.552 -16.792  0.00  0.00     0.249 C 
HETATM   16  N           1     -34.373  -3.040 -16.188  0.00  0.00    -0.343 N 
HETATM   17  H           1     -34.889  -3.601 -15.521  0.00  0.00     0.163 HD
HETATM   18  O           1     -32.642  -2.883 -17.587  0.00  0.00    -0.271 OA
BRANCH  16  19
HETATM   19  C           1     -34.819  -1.697 -16.503  0.00  0.00     0.209 C 
BRANCH  19  20
HETATM   20  C           1     -35.015  -0.919 -15.225  0.00  0.00     0.198 C 
HETATM   21  O           1     -34.671   0.282 -15.165  0.00  0.00    -0.646 OA
HETATM   22  O           1     -35.519  -1.476 -14.226  0.00  0.00    -0.646 OA
ENDBRANCH  19  20
BRANCH  19  23
HETATM   23  C           1     -36.136  -1.764 -17.263  0.00  0.00     0.200 C 
BRANCH  23  24
HETATM   24  O           1     -36.949  -0.685 -16.888  0.00  0.00    -0.398 OA
HETATM   25  H           1     -37.500  -0.487 -17.626  0.00  0.00     0.209 HD
ENDBRANCH  23  24
ENDBRANCH  19  23
ENDBRANCH  16  19
ENDBRANCH   1  15
BRANCH   1  26
HETATM   26  N           1     -33.985  -5.849 -16.318  0.00  0.00    -0.066 N 
HETATM   27  H           1     -34.460  -5.655 -15.407  0.00  0.00     0.275 HD
HETATM   28  H           1     -34.653  -5.670 -17.103  0.00  0.00     0.275 HD
HETATM   29  H           1     -33.675  -6.846 -16.343  0.00  0.00     0.275 HD
ENDBRANCH   1  26
TORSDOF 11
ENDMDL
MODEL 5
REMARK VINA RESULT:      -6.7      3.705      8.344
REMARK  11 active torsions:
REMARK  status: ('A' for Active; 'I' for Inactive)
REMARK    1  A    between atoms: O_3  and  P_4 
REMARK    2  A    between atoms: P_4  and  O_5 
REMARK    3  A    between atoms: O_5  and  C_6 
REMARK    4  A    between atoms: C_9  and  C_10 
REMARK    5  A    between atoms: C_10  and  C_11 
REMARK    6  A    between atoms: C_11  and  C_12 
REMARK    7  A    between atoms: C_11  and  N_24 
REMARK       I    between atoms: C_12  and  N_13 
REMARK    8  A    between atoms: N_13  and  C_17 
REMARK    9  A    between atoms: C_16  and  C_17 
REMARK   10  A    between atoms: C_17  and  C_18 
REMARK   11  A    between atoms: C_18  and  O_19 
ROOT
HETATM    1  C           1     -21.339  -7.038  -4.816  0.00  0.00     0.278 C 
ENDROOT
BRANCH   1   2
HETATM    2  C           1     -20.250  -6.432  -5.692  0.00  0.00     0.081 C 
BRANCH   2   3
HETATM    3  C           1     -20.880  -5.630  -6.788  0.00  0.00    -0.056 A 
HETATM    4  C           1     -22.129  -5.040  -6.592  0.00  0.00     0.010 A 
HETATM    5  C           1     -22.716  -4.292  -7.612  0.00  0.00     0.038 A 
HETATM    6  C           1     -22.053  -4.134  -8.829  0.00  0.00     0.081 A 
HETATM    7  C           1     -20.804  -4.722  -9.026  0.00  0.00     0.038 A 
HETATM    8  C           1     -20.217  -5.471  -8.004  0.00  0.00     0.010 A 
BRANCH   6   9
HETATM    9  O           1     -22.623  -3.407  -9.821  0.00  0.00    -0.247 OA
BRANCH   9  10
HETATM   10  P           1     -23.650  -4.157 -10.816  0.00  0.00     0.411 P 
HETATM   11  O           1     -24.054  -5.452 -10.224  0.00  0.00    -0.624 OA
HETATM   12  O           1     -24.848  -3.312 -11.018  0.00  0.00    -0.624 OA
BRANCH  10  13
HETATM   13  O           1     -22.930  -4.418 -12.238  0.00  0.00    -0.300 OA
HETATM   14  H           1     -23.395  -5.143 -12.617  0.00  0.00     0.223 HD
ENDBRANCH  10  13
ENDBRANCH   9  10
ENDBRANCH   6   9
ENDBRANCH   2   3
ENDBRANCH   1   2
BRANCH   1  15
HETATM   15  C           1     -21.060  -8.507  -4.609  0.00  0.00     0.249 C 
HETATM   16  N           1     -20.890  -9.329  -5.690  0.00  0.00    -0.343 N 
HETATM   17  H           1     -20.951  -8.952  -6.627  0.00  0.00     0.163 HD
HETATM   18  O           1     -20.987  -8.956  -3.491  0.00  0.00    -0.271 OA
BRANCH  16  19
HETATM   19  C           1     -20.621 -10.741  -5.492  0.00  0.00     0.209 C 
BRANCH  19  20
HETATM   20  C           1     -19.145 -11.000  -5.666  0.00  0.00     0.198 C 
HETATM   21  O           1     -18.571 -11.849  -4.949  0.00  0.00    -0.646 OA
HETATM   22  O           1     -18.497 -10.368  -6.527  0.00  0.00    -0.646 OA
ENDBRANCH  19  20
BRANCH  19  23
HETATM   23  C           1     -21.404 -11.554  -6.514  0.00  0.00     0.200 C 
BRANCH  23  24
HETATM   24  O           1     -20.526 -12.391  -7.217  0.00  0.00    -0.398 OA
HETATM   25  H           1     -21.036 -13.116  -7.537  0.00  0.00     0.209 HD
ENDBRANCH  23  24
ENDBRANCH  19  23
ENDBRANCH  16  19
ENDBRANCH   1  15
BRANCH   1  26
HETATM   26  N           1     -21.355  -6.342  -3.488  0.00  0.00    -0.066 N 
HETATM   27  H           1     -22.115  -5.624  -3.479  0.00  0.00     0.275 HD
HETATM   28  H           1     -21.528  -7.041  -2.730  0.00  0.00     0.275 HD
HETATM   29  H           1     -20.434  -5.874  -3.328  0.00  0.00     0.275 HD
ENDBRANCH   1  26
TORSDOF 11
ENDMDL
MODEL 6
REMARK VINA RESULT:      -6.3      3.272      8.729
REMARK  11 active torsions:
REMARK  status: ('A' for Active; 'I' for Inactive)
REMARK    1  A    between atoms: O_3  and  P_4 
REMARK    2  A    between atoms: P_4  and  O_5 
REMARK    3  A    between atoms: O_5  and  C_6 
REMARK    4  A    between atoms: C_9  and  C_10 
REMARK    5  A    between atoms: C_10  and  C_11 
REMARK    6  A    between atoms: C_11  and  C_12 
REMARK    7  A    between atoms: C_11  and  N_24 
REMARK       I    between atoms: C_12  and  N_13 
REMARK    8  A    between atoms: N_13  and  C_17 
REMARK    9  A    between atoms: C_16  and  C_17 
REMARK   10  A    between atoms: C_17  and  C_18 
REMARK   11  A    between atoms: C_18  and  O_19 
ROOT
HETATM    1  C           1     -21.544  -6.426  -4.748  0.00  0.00     0.278 C 
ENDROOT
BRANCH   1   2
HETATM    2  C           1     -20.480  -5.517  -5.352  0.00  0.00     0.081 C 
BRANCH   2   3
HETATM    3  C           1     -20.934  -5.047  -6.699  0.00  0.00    -0.056 A 
HETATM    4  C           1     -22.027  -4.187  -6.807  0.00  0.00     0.010 A 
HETATM    5  C           1     -22.448  -3.749  -8.062  0.00  0.00     0.038 A 
HETATM    6  C           1     -21.776  -4.169  -9.209  0.00  0.00     0.081 A 
HETATM    7  C           1     -20.682  -5.028  -9.102  0.00  0.00     0.038 A 
HETATM    8  C           1     -20.261  -5.467  -7.846  0.00  0.00     0.010 A 
BRANCH   6   9
HETATM    9  O           1     -22.185  -3.743 -10.429  0.00  0.00    -0.247 OA
BRANCH   9  10
HETATM   10  P           1     -23.630  -4.234 -10.957  0.00  0.00     0.411 P 
HETATM   11  O           1     -24.617  -3.146 -10.779  0.00  0.00    -0.624 OA
HETATM   12  O           1     -23.537  -4.586 -12.392  0.00  0.00    -0.624 OA
BRANCH  10  13
HETATM   13  O           1     -24.101  -5.530 -10.115  0.00  0.00    -0.300 OA
HETATM   14  H           1     -24.836  -5.875 -10.591  0.00  0.00     0.223 HD
ENDBRANCH  10  13
ENDBRANCH   9  10
ENDBRANCH   6   9
ENDBRANCH   2   3
ENDBRANCH   1   2
BRANCH   1  15
HETATM   15  C           1     -21.026  -7.843  -4.701  0.00  0.00     0.249 C 
HETATM   16  N           1     -21.044  -8.540  -3.523  0.00  0.00    -0.343 N 
HETATM   17  H           1     -21.404  -8.104  -2.683  0.00  0.00     0.163 HD
HETATM   18  O           1     -20.598  -8.364  -5.703  0.00  0.00    -0.271 OA
BRANCH  16  19
HETATM   19  C           1     -20.548  -9.902  -3.477  0.00  0.00     0.209 C 
BRANCH  19  20
HETATM   20  C           1     -21.534 -10.771  -2.736  0.00  0.00     0.198 C 
HETATM   21  O           1     -22.323 -10.258  -1.912  0.00  0.00    -0.646 OA
HETATM   22  O           1     -21.563 -12.002  -2.946  0.00  0.00    -0.646 OA
ENDBRANCH  19  20
BRANCH  19  23
HETATM   23  C           1     -19.207  -9.929  -2.757  0.00  0.00     0.200 C 
BRANCH  23  24
HETATM   24  O           1     -19.356 -10.556  -1.512  0.00  0.00    -0.398 OA
HETATM   25  H           1     -19.131  -9.919  -0.855  0.00  0.00     0.209 HD
ENDBRANCH  23  24
ENDBRANCH  19  23
ENDBRANCH  16  19
ENDBRANCH   1  15
BRANCH   1  26
HETATM   26  N           1     -21.862  -5.965  -3.357  0.00  0.00    -0.066 N 
HETATM   27  H           1     -22.897  -5.978  -3.213  0.00  0.00     0.275 HD
HETATM   28  H           1     -21.407  -6.604  -2.666  0.00  0.00     0.275 HD
HETATM   29  H           1     -21.505  -4.993  -3.221  0.00  0.00     0.275 HD
ENDBRANCH   1  26
TORSDOF 11
ENDMDL
MODEL 7
REMARK VINA RESULT:      -6.3      1.498      2.420
REMARK  11 active torsions:
REMARK  status: ('A' for Active; 'I' for Inactive)
REMARK    1  A    between atoms: O_3  and  P_4 
REMARK    2  A    between atoms: P_4  and  O_5 
REMARK    3  A    between atoms: O_5  and  C_6 
REMARK    4  A    between atoms: C_9  and  C_10 
REMARK    5  A    between atoms: C_10  and  C_11 
REMARK    6  A    between atoms: C_11  and  C_12 
REMARK    7  A    between atoms: C_11  and  N_24 
REMARK       I    between atoms: C_12  and  N_13 
REMARK    8  A    between atoms: N_13  and  C_17 
REMARK    9  A    between atoms: C_16  and  C_17 
REMARK   10  A    between atoms: C_17  and  C_18 
REMARK   11  A    between atoms: C_18  and  O_19 
ROOT
HETATM    1  C           1     -20.682  -5.004  -7.375  0.00  0.00     0.278 C 
ENDROOT
BRANCH   1   2
HETATM    2  C           1     -20.862  -4.681  -5.897  0.00  0.00     0.081 C 
BRANCH   2   3
HETATM    3  C           1     -20.722  -5.936  -5.092  0.00  0.00    -0.056 A 
HETATM    4  C           1     -21.235  -5.996  -3.796  0.00  0.00     0.010 A 
HETATM    5  C           1     -21.105  -7.165  -3.047  0.00  0.00     0.038 A 
HETATM    6  C           1     -20.462  -8.275  -3.594  0.00  0.00     0.081 A 
HETATM    7  C           1     -19.949  -8.217  -4.890  0.00  0.00     0.038 A 
HETATM    8  C           1     -20.080  -7.046  -5.639  0.00  0.00     0.010 A 
BRANCH   6   9
HETATM    9  O           1     -20.335  -9.411  -2.866  0.00  0.00    -0.247 OA
BRANCH   9  10
HETATM   10  P           1     -21.623 -10.379  -2.743  0.00  0.00     0.411 P 
HETATM   11  O           1     -22.448  -9.956  -1.589  0.00  0.00    -0.624 OA
HETATM   12  O           1     -22.426 -10.292  -3.982  0.00  0.00    -0.624 OA
BRANCH  10  13
HETATM   13  O           1     -21.133 -11.903  -2.524  0.00  0.00    -0.300 OA
HETATM   14  H           1     -21.786 -12.431  -2.950  0.00  0.00     0.223 HD
ENDBRANCH  10  13
ENDBRANCH   9  10
ENDBRANCH   6   9
ENDBRANCH   2   3
ENDBRANCH   1   2
BRANCH   1  15
HETATM   15  C           1     -22.004  -4.852  -8.087  0.00  0.00     0.249 C 
HETATM   16  N           1     -22.043  -4.809  -9.455  0.00  0.00    -0.343 N 
HETATM   17  H           1     -21.185  -4.879  -9.988  0.00  0.00     0.163 HD
HETATM   18  O           1     -23.027  -4.770  -7.452  0.00  0.00    -0.271 OA
BRANCH  16  19
HETATM   19  C           1     -23.313  -4.665 -10.141  0.00  0.00     0.209 C 
BRANCH  19  20
HETATM   20  C           1     -23.073  -4.575 -11.628  0.00  0.00     0.198 C 
HETATM   21  O           1     -23.923  -5.028 -12.426  0.00  0.00    -0.646 OA
HETATM   22  O           1     -22.026  -4.049 -12.061  0.00  0.00    -0.646 OA
ENDBRANCH  19  20
BRANCH  19  23
HETATM   23  C           1     -24.007  -3.397  -9.661  0.00  0.00     0.200 C 
BRANCH  23  24
HETATM   24  O           1     -24.811  -2.886 -10.689  0.00  0.00    -0.398 OA
HETATM   25  H           1     -24.256  -2.353 -11.233  0.00  0.00     0.209 HD
ENDBRANCH  23  24
ENDBRANCH  19  23
ENDBRANCH  16  19
ENDBRANCH   1  15
BRANCH   1  26
HETATM   26  N           1     -19.682  -4.060  -7.973  0.00  0.00    -0.066 N 
HETATM   27  H           1     -19.868  -3.956  -8.996  0.00  0.00     0.275 HD
HETATM   28  H           1     -19.764  -3.127  -7.509  0.00  0.00     0.275 HD
HETATM   29  H           1     -18.718  -4.437  -7.831  0.00  0.00     0.275 HD
ENDBRANCH   1  26
TORSDOF 11
ENDMDL
MODEL 8
REMARK VINA RESULT:      -6.1      3.103      8.875
REMARK  11 active torsions:
REMARK  status: ('A' for Active; 'I' for Inactive)
REMARK    1  A    between atoms: O_3  and  P_4 
REMARK    2  A    between atoms: P_4  and  O_5 
REMARK    3  A    between atoms: O_5  and  C_6 
REMARK    4  A    between atoms: C_9  and  C_10 
REMARK    5  A    between atoms: C_10  and  C_11 
REMARK    6  A    between atoms: C_11  and  C_12 
REMARK    7  A    between atoms: C_11  and  N_24 
REMARK       I    between atoms: C_12  and  N_13 
REMARK    8  A    between atoms: N_13  and  C_17 
REMARK    9  A    between atoms: C_16  and  C_17 
REMARK   10  A    between atoms: C_17  and  C_18 
REMARK   11  A    between atoms: C_18  and  O_19 
ROOT
HETATM    1  C           1     -20.696  -7.466  -4.861  0.00  0.00     0.278 C 
ENDROOT
BRANCH   1   2
HETATM    2  C           1     -21.718  -6.337  -4.818  0.00  0.00     0.081 C 
BRANCH   2   3
HETATM    3  C           1     -21.744  -5.638  -6.142  0.00  0.00    -0.056 A 
HETATM    4  C           1     -20.640  -5.710  -6.992  0.00  0.00     0.010 A 
HETATM    5  C           1     -20.666  -5.060  -8.225  0.00  0.00     0.038 A 
HETATM    6  C           1     -21.795  -4.337  -8.609  0.00  0.00     0.081 A 
HETATM    7  C           1     -22.899  -4.265  -7.760  0.00  0.00     0.038 A 
HETATM    8  C           1     -22.874  -4.916  -6.526  0.00  0.00     0.010 A 
BRANCH   6   9
HETATM    9  O           1     -21.819  -3.705  -9.807  0.00  0.00    -0.247 OA
BRANCH   9  10
HETATM   10  P           1     -23.011  -4.072 -10.833  0.00  0.00     0.411 P 
HETATM   11  O           1     -22.479  -4.110 -12.214  0.00  0.00    -0.624 OA
HETATM   12  O           1     -23.573  -5.395 -10.484  0.00  0.00    -0.624 OA
BRANCH  10  13
HETATM   13  O           1     -24.172  -2.952 -10.735  0.00  0.00    -0.300 OA
HETATM   14  H           1     -24.816  -3.319 -10.155  0.00  0.00     0.223 HD
ENDBRANCH  10  13
ENDBRANCH   9  10
ENDBRANCH   6   9
ENDBRANCH   2   3
ENDBRANCH   1   2
BRANCH   1  15
HETATM   15  C           1     -20.587  -8.098  -3.494  0.00  0.00     0.249 C 
HETATM   16  N           1     -21.645  -8.040  -2.628  0.00  0.00    -0.343 N 
HETATM   17  H           1     -22.499  -7.572  -2.903  0.00  0.00     0.163 HD
HETATM   18  O           1     -19.568  -8.656  -3.166  0.00  0.00    -0.271 OA
BRANCH  16  19
HETATM   19  C           1     -21.542  -8.647  -1.315  0.00  0.00     0.209 C 
BRANCH  19  20
HETATM   20  C           1     -22.429  -9.866  -1.254  0.00  0.00     0.198 C 
HETATM   21  O           1     -23.259  -9.989  -0.326  0.00  0.00    -0.646 OA
HETATM   22  O           1     -22.335 -10.752  -2.130  0.00  0.00    -0.646 OA
ENDBRANCH  19  20
BRANCH  19  23
HETATM   23  C           1     -21.982  -7.645  -0.256  0.00  0.00     0.200 C 
BRANCH  23  24
HETATM   24  O           1     -21.589  -8.100   1.011  0.00  0.00    -0.398 OA
HETATM   25  H           1     -20.719  -8.449   0.920  0.00  0.00     0.209 HD
ENDBRANCH  23  24
ENDBRANCH  19  23
ENDBRANCH  16  19
ENDBRANCH   1  15
BRANCH   1  26
HETATM   26  N           1     -21.135  -8.499  -5.855  0.00  0.00    -0.066 N 
HETATM   27  H           1     -20.309  -8.829  -6.404  0.00  0.00     0.275 HD
HETATM   28  H           1     -21.561  -9.309  -5.350  0.00  0.00     0.275 HD
HETATM   29  H           1     -21.840  -8.082  -6.504  0.00  0.00     0.275 HD
ENDBRANCH   1  26
TORSDOF 11
ENDMDL
MODEL 9
REMARK VINA RESULT:      -6.1     14.323     16.225
REMARK  11 active torsions:
REMARK  status: ('A' for Active; 'I' for Inactive)
REMARK    1  A    between atoms: O_3  and  P_4 
REMARK    2  A    between atoms: P_4  and  O_5 
REMARK    3  A    between atoms: O_5  and  C_6 
REMARK    4  A    between atoms: C_9  and  C_10 
REMARK    5  A    between atoms: C_10  and  C_11 
REMARK    6  A    between atoms: C_11  and  C_12 
REMARK    7  A    between atoms: C_11  and  N_24 
REMARK       I    between atoms: C_12  and  N_13 
REMARK    8  A    between atoms: N_13  and  C_17 
REMARK    9  A    between atoms: C_16  and  C_17 
REMARK   10  A    between atoms: C_17  and  C_18 
REMARK   11  A    between atoms: C_18  and  O_19 
ROOT
HETATM    1  C           1     -33.798  -4.057 -15.628  0.00  0.00     0.278 C 
ENDROOT
BRANCH   1   2
HETATM    2  C           1     -33.288  -3.611 -16.993  0.00  0.00     0.081 C 
BRANCH   2   3
HETATM    3  C           1     -31.981  -4.282 -17.279  0.00  0.00    -0.056 A 
HETATM    4  C           1     -31.839  -5.654 -17.070  0.00  0.00     0.010 A 
HETATM    5  C           1     -30.622  -6.279 -17.338  0.00  0.00     0.038 A 
HETATM    6  C           1     -29.545  -5.532 -17.816  0.00  0.00     0.081 A 
HETATM    7  C           1     -29.686  -4.161 -18.027  0.00  0.00     0.038 A 
HETATM    8  C           1     -30.905  -3.535 -17.759  0.00  0.00     0.010 A 
BRANCH   6   9
HETATM    9  O           1     -28.362  -6.139 -18.077  0.00  0.00    -0.247 OA
BRANCH   9  10
HETATM   10  P           1     -27.192  -6.025 -16.970  0.00  0.00     0.411 P 
HETATM   11  O           1     -27.061  -4.616 -16.534  0.00  0.00    -0.624 OA
HETATM   12  O           1     -27.530  -6.872 -15.805  0.00  0.00    -0.624 OA
BRANCH  10  13
HETATM   13  O           1     -25.794  -6.522 -17.609  0.00  0.00    -0.300 OA
HETATM   14  H           1     -25.999  -7.334 -18.040  0.00  0.00     0.223 HD
ENDBRANCH  10  13
ENDBRANCH   9  10
ENDBRANCH   6   9
ENDBRANCH   2   3
ENDBRANCH   1   2
BRANCH   1  15
HETATM   15  C           1     -34.537  -2.917 -14.970  0.00  0.00     0.249 C 
HETATM   16  N           1     -34.975  -1.861 -15.722  0.00  0.00    -0.343 N 
HETATM   17  H           1     -34.803  -1.844 -16.719  0.00  0.00     0.163 HD
HETATM   18  O           1     -34.741  -2.936 -13.780  0.00  0.00    -0.271 OA
BRANCH  16  19
HETATM   19  C           1     -35.685  -0.765 -15.090  0.00  0.00     0.209 C 
BRANCH  19  20
HETATM   20  C           1     -36.898  -0.411 -15.915  0.00  0.00     0.198 C 
HETATM   21  O           1     -36.937  -0.709 -17.129  0.00  0.00    -0.646 OA
HETATM   22  O           1     -37.863   0.180 -15.385  0.00  0.00    -0.646 OA
ENDBRANCH  19  20
BRANCH  19  23
HETATM   23  C           1     -34.766   0.446 -14.993  0.00  0.00     0.200 C 
BRANCH  23  24
HETATM   24  O           1     -34.613   0.811 -13.648  0.00  0.00    -0.398 OA
HETATM   25  H           1     -33.731   1.125 -13.548  0.00  0.00     0.209 HD
ENDBRANCH  23  24
ENDBRANCH  19  23
ENDBRANCH  16  19
ENDBRANCH   1  15
BRANCH   1  26
HETATM   26  N           1     -34.729  -5.220 -15.800  0.00  0.00    -0.066 N 
HETATM   27  H           1     -35.230  -5.135 -16.713  0.00  0.00     0.275 HD
HETATM   28  H           1     -34.180  -6.110 -15.786  0.00  0.00     0.275 HD
HETATM   29  H           1     -35.426  -5.228 -15.021  0.00  0.00     0.275 HD
ENDBRANCH   1  26
TORSDOF 11
ENDMDL
