MODEL 1
REMARK VINA RESULT:      -6.1      0.000      0.000
REMARK  5 active torsions:
REMARK  status: ('A' for Active; 'I' for Inactive)
REMARK       I    between atoms: N_2  and  C_12 
REMARK    1  A    between atoms: O_6  and  C_15 
REMARK    2  A    between atoms: C_9  and  C_14 
REMARK    3  A    between atoms: N_11  and  C_16 
REMARK    4  A    between atoms: C_12  and  C_16 
REMARK    5  A    between atoms: C_15  and  C_16 
ROOT
HETATM    1  N           1     -34.735  -2.573 -12.403  0.00  0.00    -0.336 N 
HETATM    2  C           1     -34.933  -2.565 -10.956  0.00  0.00     0.127 C 
HETATM    3  C           1     -33.562  -2.909 -10.400  0.00  0.00     0.022 C 
HETATM    4  C           1     -32.855  -3.661 -11.521  0.00  0.00     0.038 C 
HETATM    5  C           1     -35.255  -1.699 -13.320  0.00  0.00     0.253 C 
HETATM    6  C           1     -33.862  -3.715 -12.658  0.00  0.00     0.188 C 
HETATM    7  O           1     -35.000  -1.834 -14.494  0.00  0.00    -0.271 OA
ENDROOT
BRANCH   5   8
HETATM    8  C           1     -36.146  -0.569 -12.866  0.00  0.00     0.298 C 
BRANCH   8   9
HETATM    9  N           1     -35.306   0.513 -12.256  0.00  0.00    -0.064 N 
HETATM   10  H           1     -35.919   1.173 -11.726  0.00  0.00     0.275 HD
HETATM   11  H           1     -34.608   0.089 -11.605  0.00  0.00     0.275 HD
HETATM   12  H           1     -34.806   1.032 -13.012  0.00  0.00     0.275 HD
ENDBRANCH   8   9
BRANCH   8  13
HETATM   13  C           1     -36.906  -0.009 -14.061  0.00  0.00     0.206 C 
BRANCH  13  14
HETATM   14  O           1     -38.006  -0.831 -14.342  0.00  0.00    -0.398 OA
ATOM     15  HO          1     -37.920  -1.187 -15.219  1.00  0.00     0.209 HD
ENDBRANCH  13  14
ENDBRANCH   8  13
ENDBRANCH   5   8
BRANCH   6  16
HETATM   16  C           1     -34.642  -5.006 -12.623  0.00  0.00     0.196 C 
HETATM   17  O           1     -35.300  -5.365 -13.623  0.00  0.00    -0.646 OA
HETATM   18  O           1     -34.632  -5.715 -11.595  0.00  0.00    -0.646 OA
ENDBRANCH   6  16
TORSDOF 5
ENDMDL
MODEL 2
REMARK VINA RESULT:      -5.7     12.678     14.783
REMARK  5 active torsions:
REMARK  status: ('A' for Active; 'I' for Inactive)
REMARK       I    between atoms: N_2  and  C_12 
REMARK    1  A    between atoms: O_6  and  C_15 
REMARK    2  A    between atoms: C_9  and  C_14 
REMARK    3  A    between atoms: N_11  and  C_16 
REMARK    4  A    between atoms: C_12  and  C_16 
REMARK    5  A    between atoms: C_15  and  C_16 
ROOT
HETATM    1  N           1     -21.441  -4.447  -9.450  0.00  0.00    -0.336 N 
HETATM    2  C           1     -20.448  -4.881 -10.428  0.00  0.00     0.127 C 
HETATM    3  C           1     -20.280  -3.674 -11.335  0.00  0.00     0.022 C 
HETATM    4  C           1     -21.578  -2.888 -11.196  0.00  0.00     0.038 C 
HETATM    5  C           1     -21.450  -4.696  -8.104  0.00  0.00     0.253 C 
HETATM    6  C           1     -22.424  -3.690 -10.220  0.00  0.00     0.188 C 
HETATM    7  O           1     -22.347  -4.267  -7.416  0.00  0.00    -0.271 OA
ENDROOT
BRANCH   5   8
HETATM    8  C           1     -20.340  -5.504  -7.478  0.00  0.00     0.298 C 
BRANCH   8   9
HETATM    9  N           1     -19.192  -4.600  -7.143  0.00  0.00    -0.064 N 
HETATM   10  H           1     -19.066  -3.899  -7.907  0.00  0.00     0.275 HD
HETATM   11  H           1     -19.389  -4.104  -6.244  0.00  0.00     0.275 HD
HETATM   12  H           1     -18.320  -5.167  -7.042  0.00  0.00     0.275 HD
ENDBRANCH   8   9
BRANCH   8  13
HETATM   13  C           1     -20.850  -6.170  -6.206  0.00  0.00     0.206 C 
BRANCH  13  14
HETATM   14  O           1     -20.753  -5.268  -5.137  0.00  0.00    -0.398 OA
ATOM     15  HO          1     -19.882  -5.316  -4.760  1.00  0.00     0.209 HD
ENDBRANCH  13  14
ENDBRANCH   8  13
ENDBRANCH   5   8
BRANCH   6  16
HETATM   16  C           1     -23.358  -4.618 -10.957  0.00  0.00     0.196 C 
HETATM   17  O           1     -24.017  -5.473 -10.326  0.00  0.00    -0.646 OA
HETATM   18  O           1     -23.473  -4.534 -12.198  0.00  0.00    -0.646 OA
ENDBRANCH   6  16
TORSDOF 5
ENDMDL
MODEL 3
REMARK VINA RESULT:      -5.6      2.012      5.055
REMARK  5 active torsions:
REMARK  status: ('A' for Active; 'I' for Inactive)
REMARK       I    between atoms: N_2  and  C_12 
REMARK    1  A    between atoms: O_6  and  C_15 
REMARK    2  A    between atoms: C_9  and  C_14 
REMARK    3  A    between atoms: N_11  and  C_16 
REMARK    4  A    between atoms: C_12  and  C_16 
REMARK    5  A    between atoms: C_15  and  C_16 
ROOT
HETATM    1  N           1     -35.876  -1.043 -13.152  0.00  0.00    -0.336 N 
HETATM    2  C           1     -36.673  -0.162 -12.303  0.00  0.00     0.127 C 
HETATM    3  C           1     -37.960   0.031 -13.087  0.00  0.00     0.022 C 
HETATM    4  C           1     -37.585  -0.236 -14.540  0.00  0.00     0.038 C 
HETATM    5  C           1     -35.090  -2.093 -12.759  0.00  0.00     0.253 C 
HETATM    6  C           1     -36.101  -0.562 -14.512  0.00  0.00     0.188 C 
HETATM    7  O           1     -34.485  -2.736 -13.584  0.00  0.00    -0.271 OA
ENDROOT
BRANCH   5   8
HETATM    8  C           1     -34.979  -2.446 -11.296  0.00  0.00     0.298 C 
BRANCH   8   9
HETATM    9  N           1     -35.419  -3.865 -11.091  0.00  0.00    -0.064 N 
HETATM   10  H           1     -34.581  -4.487 -11.052  0.00  0.00     0.275 HD
HETATM   11  H           1     -35.949  -3.940 -10.193  0.00  0.00     0.275 HD
HETATM   12  H           1     -36.035  -4.156 -11.883  0.00  0.00     0.275 HD
ENDBRANCH   8   9
BRANCH   8  13
HETATM   13  C           1     -33.532  -2.294 -10.844  0.00  0.00     0.206 C 
BRANCH  13  14
HETATM   14  O           1     -32.752  -3.303 -11.426  0.00  0.00    -0.398 OA
ATOM     15  HO          1     -31.894  -2.957 -11.640  1.00  0.00     0.209 HD
ENDBRANCH  13  14
ENDBRANCH   8  13
ENDBRANCH   5   8
BRANCH   6  16
HETATM   16  C           1     -35.276   0.671 -14.788  0.00  0.00     0.196 C 
HETATM   17  O           1     -34.128   0.776 -14.303  0.00  0.00    -0.646 OA
HETATM   18  O           1     -35.739   1.587 -15.500  0.00  0.00    -0.646 OA
ENDBRANCH   6  16
TORSDOF 5
ENDMDL
MODEL 4
REMARK VINA RESULT:      -5.3     12.613     14.704
REMARK  5 active torsions:
REMARK  status: ('A' for Active; 'I' for Inactive)
REMARK       I    between atoms: N_2  and  C_12 
REMARK    1  A    between atoms: O_6  and  C_15 
REMARK    2  A    between atoms: C_9  and  C_14 
REMARK    3  A    between atoms: N_11  and  C_16 
REMARK    4  A    between atoms: C_12  and  C_16 
REMARK    5  A    between atoms: C_15  and  C_16 
ROOT
HETATM    1  N           1     -22.138  -4.506  -8.941  0.00  0.00    -0.336 N 
HETATM    2  C           1     -23.208  -3.525  -8.788  0.00  0.00     0.127 C 
HETATM    3  C           1     -24.263  -3.982  -9.781  0.00  0.00     0.022 C 
HETATM    4  C           1     -23.505  -4.792 -10.824  0.00  0.00     0.038 C 
HETATM    5  C           1     -21.379  -5.073  -7.952  0.00  0.00     0.253 C 
HETATM    6  C           1     -22.052  -4.751 -10.378  0.00  0.00     0.188 C 
HETATM    7  O           1     -20.522  -5.877  -8.235  0.00  0.00    -0.271 OA
ENDROOT
BRANCH   5   8
HETATM    8  C           1     -21.613  -4.694  -6.511  0.00  0.00     0.298 C 
BRANCH   8   9
HETATM    9  N           1     -22.672  -5.581  -5.927  0.00  0.00    -0.064 N 
HETATM   10  H           1     -23.105  -5.110  -5.101  0.00  0.00     0.275 HD
HETATM   11  H           1     -23.408  -5.766  -6.647  0.00  0.00     0.275 HD
HETATM   12  H           1     -22.243  -6.486  -5.629  0.00  0.00     0.275 HD
ENDBRANCH   8   9
BRANCH   8  13
HETATM   13  C           1     -20.319  -4.865  -5.724  0.00  0.00     0.206 C 
BRANCH  13  14
HETATM   14  O           1     -20.162  -6.212  -5.369  0.00  0.00    -0.398 OA
ATOM     15  HO          1     -20.103  -6.286  -4.424  1.00  0.00     0.209 HD
ENDBRANCH  13  14
ENDBRANCH   8  13
ENDBRANCH   5   8
BRANCH   6  16
HETATM   16  C           1     -21.310  -3.633 -11.069  0.00  0.00     0.196 C 
HETATM   17  O           1     -21.851  -3.012 -12.009  0.00  0.00    -0.646 OA
HETATM   18  O           1     -20.155  -3.330 -10.703  0.00  0.00    -0.646 OA
ENDBRANCH   6  16
TORSDOF 5
ENDMDL
MODEL 5
REMARK VINA RESULT:      -5.2     12.488     14.208
REMARK  5 active torsions:
REMARK  status: ('A' for Active; 'I' for Inactive)
REMARK       I    between atoms: N_2  and  C_12 
REMARK    1  A    between atoms: O_6  and  C_15 
REMARK    2  A    between atoms: C_9  and  C_14 
REMARK    3  A    between atoms: N_11  and  C_16 
REMARK    4  A    between atoms: C_12  and  C_16 
REMARK    5  A    between atoms: C_15  and  C_16 
ROOT
HETATM    1  N           1     -21.548  -4.729  -8.084  0.00  0.00    -0.336 N 
HETATM    2  C           1     -20.610  -3.691  -7.666  0.00  0.00     0.127 C 
HETATM    3  C           1     -19.307  -4.442  -7.458  0.00  0.00     0.022 C 
HETATM    4  C           1     -19.717  -5.884  -7.184  0.00  0.00     0.038 C 
HETATM    5  C           1     -22.511  -4.641  -9.054  0.00  0.00     0.253 C 
HETATM    6  C           1     -21.236  -5.881  -7.243  0.00  0.00     0.188 C 
HETATM    7  O           1     -23.218  -5.592  -9.290  0.00  0.00    -0.271 OA
ENDROOT
BRANCH   5   8
HETATM    8  C           1     -22.689  -3.358  -9.827  0.00  0.00     0.298 C 
BRANCH   8   9
HETATM    9  N           1     -21.789  -3.369 -11.026  0.00  0.00    -0.064 N 
HETATM   10  H           1     -20.822  -3.634 -10.733  0.00  0.00     0.275 HD
HETATM   11  H           1     -22.144  -4.063 -11.723  0.00  0.00     0.275 HD
HETATM   12  H           1     -21.775  -2.418 -11.459  0.00  0.00     0.275 HD
ENDBRANCH   8   9
BRANCH   8  13
HETATM   13  C           1     -24.138  -3.235 -10.282  0.00  0.00     0.206 C 
BRANCH  13  14
HETATM   14  O           1     -24.954  -2.968  -9.174  0.00  0.00    -0.398 OA
ATOM     15  HO          1     -24.411  -2.809  -8.410  1.00  0.00     0.209 HD
ENDBRANCH  13  14
ENDBRANCH   8  13
ENDBRANCH   5   8
BRANCH   6  16
HETATM   16  C           1     -21.826  -5.715  -5.865  0.00  0.00     0.196 C 
HETATM   17  O           1     -23.057  -5.546  -5.729  0.00  0.00    -0.646 OA
HETATM   18  O           1     -21.085  -5.745  -4.859  0.00  0.00    -0.646 OA
ENDBRANCH   6  16
TORSDOF 5
ENDMDL
MODEL 6
REMARK VINA RESULT:      -4.7     12.457     14.152
REMARK  5 active torsions:
REMARK  status: ('A' for Active; 'I' for Inactive)
REMARK       I    between atoms: N_2  and  C_12 
REMARK    1  A    between atoms: O_6  and  C_15 
REMARK    2  A    between atoms: C_9  and  C_14 
REMARK    3  A    between atoms: N_11  and  C_16 
REMARK    4  A    between atoms: C_12  and  C_16 
REMARK    5  A    between atoms: C_15  and  C_16 
ROOT
HETATM    1  N           1     -21.962  -4.481  -8.545  0.00  0.00    -0.336 N 
HETATM    2  C           1     -22.063  -5.742  -7.817  0.00  0.00     0.127 C 
HETATM    3  C           1     -21.869  -5.341  -6.365  0.00  0.00     0.022 C 
HETATM    4  C           1     -21.093  -4.031  -6.414  0.00  0.00     0.038 C 
HETATM    5  C           1     -22.722  -4.068  -9.606  0.00  0.00     0.253 C 
HETATM    6  C           1     -20.876  -3.755  -7.893  0.00  0.00     0.188 C 
HETATM    7  O           1     -22.520  -2.987 -10.109  0.00  0.00    -0.271 OA
ENDROOT
BRANCH   5   8
HETATM    8  C           1     -23.810  -4.961 -10.149  0.00  0.00     0.298 C 
BRANCH   8   9
HETATM    9  N           1     -25.136  -4.515  -9.610  0.00  0.00    -0.064 N 
HETATM   10  H           1     -25.834  -5.285  -9.721  0.00  0.00     0.275 HD
HETATM   11  H           1     -25.039  -4.277  -8.597  0.00  0.00     0.275 HD
HETATM   12  H           1     -25.460  -3.672 -10.136  0.00  0.00     0.275 HD
ENDBRANCH   8   9
BRANCH   8  13
HETATM   13  C           1     -23.826  -4.877 -11.670  0.00  0.00     0.206 C 
BRANCH  13  14
HETATM   14  O           1     -22.513  -4.750 -12.145  0.00  0.00    -0.398 OA
ATOM     15  HO          1     -22.275  -3.830 -12.177  1.00  0.00     0.209 HD
ENDBRANCH  13  14
ENDBRANCH   8  13
ENDBRANCH   5   8
BRANCH   6  16
HETATM   16  C           1     -19.534  -4.277  -8.346  0.00  0.00     0.196 C 
HETATM   17  O           1     -19.381  -4.665  -9.524  0.00  0.00    -0.646 OA
HETATM   18  O           1     -18.578  -4.322  -7.544  0.00  0.00    -0.646 OA
ENDBRANCH   6  16
TORSDOF 5
ENDMDL
MODEL 7
REMARK VINA RESULT:      -4.7     16.903     18.559
REMARK  5 active torsions:
REMARK  status: ('A' for Active; 'I' for Inactive)
REMARK       I    between atoms: N_2  and  C_12 
REMARK    1  A    between atoms: O_6  and  C_15 
REMARK    2  A    between atoms: C_9  and  C_14 
REMARK    3  A    between atoms: N_11  and  C_16 
REMARK    4  A    between atoms: C_12  and  C_16 
REMARK    5  A    between atoms: C_15  and  C_16 
ROOT
HETATM    1  N           1     -21.437  -8.682  -2.295  0.00  0.00    -0.336 N 
HETATM    2  C           1     -22.048  -9.429  -3.391  0.00  0.00     0.127 C 
HETATM    3  C           1     -21.017  -9.349  -4.504  0.00  0.00     0.022 C 
HETATM    4  C           1     -20.198  -8.101  -4.199  0.00  0.00     0.038 C 
HETATM    5  C           1     -21.452  -8.995  -0.963  0.00  0.00     0.253 C 
HETATM    6  C           1     -20.808  -7.528  -2.930  0.00  0.00     0.188 C 
HETATM    7  O           1     -20.898  -8.274  -0.167  0.00  0.00    -0.271 OA
ENDROOT
BRANCH   5   8
HETATM    8  C           1     -22.159 -10.240  -0.488  0.00  0.00     0.298 C 
BRANCH   8   9
HETATM    9  N           1     -21.391 -10.848   0.648  0.00  0.00    -0.064 N 
HETATM   10  H           1     -20.769 -11.603   0.282  0.00  0.00     0.275 HD
HETATM   11  H           1     -20.810 -10.112   1.110  0.00  0.00     0.275 HD
HETATM   12  H           1     -22.059 -11.251   1.343  0.00  0.00     0.275 HD
ENDBRANCH   8   9
BRANCH   8  13
HETATM   13  C           1     -23.562  -9.879  -0.015  0.00  0.00     0.206 C 
BRANCH  13  14
HETATM   14  O           1     -23.576  -8.552   0.436  0.00  0.00    -0.398 OA
ATOM     15  HO          1     -23.978  -8.514   1.296  1.00  0.00     0.209 HD
ENDBRANCH  13  14
ENDBRANCH   8  13
ENDBRANCH   5   8
BRANCH   6  16
HETATM   16  C           1     -21.833  -6.470  -3.258  0.00  0.00     0.196 C 
HETATM   17  O           1     -22.546  -5.989  -2.351  0.00  0.00    -0.646 OA
HETATM   18  O           1     -21.969  -6.075  -4.435  0.00  0.00    -0.646 OA
ENDBRANCH   6  16
TORSDOF 5
ENDMDL
MODEL 8
REMARK VINA RESULT:      -4.6     17.427     18.769
REMARK  5 active torsions:
REMARK  status: ('A' for Active; 'I' for Inactive)
REMARK       I    between atoms: N_2  and  C_12 
REMARK    1  A    between atoms: O_6  and  C_15 
REMARK    2  A    between atoms: C_9  and  C_14 
REMARK    3  A    between atoms: N_11  and  C_16 
REMARK    4  A    between atoms: C_12  and  C_16 
REMARK    5  A    between atoms: C_15  and  C_16 
ROOT
HETATM    1  N           1     -21.571  -8.143  -2.353  0.00  0.00    -0.336 N 
HETATM    2  C           1     -21.277  -6.721  -2.510  0.00  0.00     0.127 C 
HETATM    3  C           1     -21.766  -6.402  -3.912  0.00  0.00     0.022 C 
HETATM    4  C           1     -21.741  -7.732  -4.655  0.00  0.00     0.038 C 
HETATM    5  C           1     -22.059  -8.776  -1.242  0.00  0.00     0.253 C 
HETATM    6  C           1     -21.233  -8.743  -3.641  0.00  0.00     0.188 C 
HETATM    7  O           1     -22.254  -9.968  -1.262  0.00  0.00    -0.271 OA
ENDROOT
BRANCH   5   8
HETATM    8  C           1     -22.353  -7.984   0.009  0.00  0.00     0.298 C 
BRANCH   8   9
HETATM    9  N           1     -23.691  -8.388   0.552  0.00  0.00    -0.064 N 
HETATM   10  H           1     -24.116  -7.583   1.064  0.00  0.00     0.275 HD
HETATM   11  H           1     -24.318  -8.668  -0.237  0.00  0.00     0.275 HD
HETATM   12  H           1     -23.573  -9.195   1.205  0.00  0.00     0.275 HD
ENDBRANCH   8   9
BRANCH   8  13
HETATM   13  C           1     -21.278  -8.264   1.052  0.00  0.00     0.206 C 
BRANCH  13  14
HETATM   14  O           1     -21.059  -9.646   1.139  0.00  0.00    -0.398 OA
ATOM     15  HO          1     -21.625 -10.096   0.522  1.00  0.00     0.209 HD
ENDBRANCH  13  14
ENDBRANCH   8  13
ENDBRANCH   5   8
BRANCH   6  16
HETATM   16  C           1     -19.741  -8.929  -3.770  0.00  0.00     0.196 C 
HETATM   17  O           1     -19.171  -8.675  -4.854  0.00  0.00    -0.646 OA
HETATM   18  O           1     -19.075  -9.336  -2.795  0.00  0.00    -0.646 OA
ENDBRANCH   6  16
TORSDOF 5
ENDMDL
MODEL 9
REMARK VINA RESULT:      -4.6     16.522     18.507
REMARK  5 active torsions:
REMARK  status: ('A' for Active; 'I' for Inactive)
REMARK       I    between atoms: N_2  and  C_12 
REMARK    1  A    between atoms: O_6  and  C_15 
REMARK    2  A    between atoms: C_9  and  C_14 
REMARK    3  A    between atoms: N_11  and  C_16 
REMARK    4  A    between atoms: C_12  and  C_16 
REMARK    5  A    between atoms: C_15  and  C_16 
ROOT
HETATM    1  N           1     -21.611  -8.366  -1.006  0.00  0.00    -0.336 N 
HETATM    2  C           1     -22.777  -8.022  -0.199  0.00  0.00     0.127 C 
HETATM    3  C           1     -22.247  -8.024   1.225  0.00  0.00     0.022 C 
HETATM    4  C           1     -21.022  -8.931   1.192  0.00  0.00     0.038 C 
HETATM    5  C           1     -21.243  -7.831  -2.212  0.00  0.00     0.253 C 
HETATM    6  C           1     -20.920  -9.406  -0.248  0.00  0.00     0.188 C 
HETATM    7  O           1     -20.243  -8.221  -2.766  0.00  0.00    -0.271 OA
ENDROOT
BRANCH   5   8
HETATM    8  C           1     -22.088  -6.755  -2.849  0.00  0.00     0.298 C 
BRANCH   8   9
HETATM    9  N           1     -22.029  -5.513  -2.011  0.00  0.00    -0.064 N 
HETATM   10  H           1     -22.421  -5.713  -1.063  0.00  0.00     0.275 HD
HETATM   11  H           1     -21.035  -5.202  -1.917  0.00  0.00     0.275 HD
HETATM   12  H           1     -22.587  -4.758  -2.468  0.00  0.00     0.275 HD
ENDBRANCH   8   9
BRANCH   8  13
HETATM   13  C           1     -21.558  -6.451  -4.244  0.00  0.00     0.206 C 
BRANCH  13  14
HETATM   14  O           1     -22.623  -6.087  -5.080  0.00  0.00    -0.398 OA
ATOM     15  HO          1     -22.290  -5.872  -5.943  1.00  0.00     0.209 HD
ENDBRANCH  13  14
ENDBRANCH   8  13
ENDBRANCH   5   8
BRANCH   6  16
HETATM   16  C           1     -21.603 -10.740  -0.423  0.00  0.00     0.196 C 
HETATM   17  O           1     -21.868 -11.442   0.577  0.00  0.00    -0.646 OA
HETATM   18  O           1     -21.903 -11.144  -1.567  0.00  0.00    -0.646 OA
ENDBRANCH   6  16
TORSDOF 5
ENDMDL
