MODEL 1
REMARK VINA RESULT:      -6.8      0.000      0.000
REMARK  11 active torsions:
REMARK  status: ('A' for Active; 'I' for Inactive)
REMARK    1  A    between atoms: C_4  and  C_5 
REMARK    2  A    between atoms: C_5  and  C_18 
REMARK    3  A    between atoms: C_5  and  N_13 
REMARK    4  A    between atoms: C_6  and  C_10 
REMARK    5  A    between atoms: C_6  and  C_9 
REMARK    6  A    between atoms: C_9  and  C_20 
REMARK    7  A    between atoms: C_10  and  C_19 
REMARK    8  A    between atoms: C_10  and  N_21 
REMARK       I    between atoms: N_13  and  C_19 
REMARK    9  A    between atoms: C_15  and  C_17 
REMARK   10  A    between atoms: C_15  and  C_18 
REMARK   11  A    between atoms: C_20  and  N_23 
ROOT
HETATM    1  O           1     -33.821  -2.131 -11.217  0.00  0.00    -0.271 OA
HETATM    2  H           1     -35.320  -2.103 -13.973  0.00  0.00     0.163 HD
HETATM    3  N           1     -34.932  -1.735 -13.113  0.00  0.00    -0.345 N 
HETATM    4  C           1     -34.284  -2.570 -12.242  0.00  0.00     0.249 C 
ENDROOT
BRANCH   4   5
HETATM    5  C           1     -34.148  -4.039 -12.565  0.00  0.00     0.274 C 
BRANCH   5   6
HETATM    6  C           1     -33.325  -4.722 -11.480  0.00  0.00     0.044 C 
BRANCH   6   7
HETATM    7  C           1     -34.258  -5.376 -10.471  0.00  0.00     0.030 C 
BRANCH   7   8
HETATM    8  C           1     -34.155  -6.891 -10.590  0.00  0.00     0.230 C 
BRANCH   8   9
HETATM    9  N           1     -35.084  -7.535  -9.604  0.00  0.00    -0.079 N 
HETATM   10  H           1     -36.071  -7.286  -9.840  0.00  0.00     0.274 HD
HETATM   11  H           1     -34.861  -7.196  -8.642  0.00  0.00     0.274 HD
HETATM   12  H           1     -34.969  -8.573  -9.645  0.00  0.00     0.274 HD
ENDBRANCH   8   9
ENDBRANCH   7   8
ENDBRANCH   6   7
ENDBRANCH   5   6
BRANCH   5  13
HETATM   13  N           1     -33.460  -4.197 -13.888  0.00  0.00    -0.067 N 
HETATM   14  H           1     -32.929  -3.326 -14.111  0.00  0.00     0.275 HD
HETATM   15  H           1     -32.800  -5.006 -13.844  0.00  0.00     0.275 HD
HETATM   16  H           1     -34.174  -4.371 -14.632  0.00  0.00     0.275 HD
ENDBRANCH   5  13
ENDBRANCH   4   5
BRANCH   3  17
HETATM   17  C           1     -35.063  -0.325 -12.804  0.00  0.00     0.186 C 
BRANCH  17  18
HETATM   18  C           1     -36.262  -0.116 -11.912  0.00  0.00     0.196 C 
HETATM   19  O           1     -36.129   0.471 -10.815  0.00  0.00    -0.646 OA
HETATM   20  O           1     -37.387  -0.527 -12.269  0.00  0.00    -0.646 OA
ENDBRANCH  17  18
BRANCH  17  21
HETATM   21  C           1     -35.246   0.463 -14.094  0.00  0.00     0.046 C 
BRANCH  21  22
HETATM   22  C           1     -35.443  -0.502 -15.256  0.00  0.00     0.116 C 
BRANCH  22  23
HETATM   23  C           1     -36.781  -0.242 -15.903  0.00  0.00     0.172 C 
HETATM   24  O           1     -37.608   0.512 -15.347  0.00  0.00    -0.648 OA
HETATM   25  O           1     -37.063  -0.781 -16.995  0.00  0.00    -0.648 OA
ENDBRANCH  22  23
ENDBRANCH  21  22
ENDBRANCH  17  21
ENDBRANCH   3  17
TORSDOF 11
ENDMDL
MODEL 2
REMARK VINA RESULT:      -6.6      9.862     11.222
REMARK  11 active torsions:
REMARK  status: ('A' for Active; 'I' for Inactive)
REMARK    1  A    between atoms: C_4  and  C_5 
REMARK    2  A    between atoms: C_5  and  C_18 
REMARK    3  A    between atoms: C_5  and  N_13 
REMARK    4  A    between atoms: C_6  and  C_10 
REMARK    5  A    between atoms: C_6  and  C_9 
REMARK    6  A    between atoms: C_9  and  C_20 
REMARK    7  A    between atoms: C_10  and  C_19 
REMARK    8  A    between atoms: C_10  and  N_21 
REMARK       I    between atoms: N_13  and  C_19 
REMARK    9  A    between atoms: C_15  and  C_17 
REMARK   10  A    between atoms: C_15  and  C_18 
REMARK   11  A    between atoms: C_20  and  N_23 
ROOT
HETATM    1  O           1     -26.302  -5.941 -17.132  0.00  0.00    -0.271 OA
HETATM    2  H           1     -27.689  -6.975 -19.751  0.00  0.00     0.163 HD
HETATM    3  N           1     -27.618  -6.601 -18.812  0.00  0.00    -0.345 N 
HETATM    4  C           1     -26.387  -6.387 -18.252  0.00  0.00     0.249 C 
ENDROOT
BRANCH   4   5
HETATM    5  C           1     -25.136  -6.707 -19.033  0.00  0.00     0.274 C 
BRANCH   5   6
HETATM    6  C           1     -25.510  -7.460 -20.303  0.00  0.00     0.044 C 
BRANCH   6   7
HETATM    7  C           1     -24.696  -6.921 -21.472  0.00  0.00     0.030 C 
BRANCH   7   8
HETATM    8  C           1     -23.992  -8.074 -22.176  0.00  0.00     0.230 C 
BRANCH   8   9
HETATM    9  N           1     -23.144  -8.820 -21.189  0.00  0.00    -0.079 N 
HETATM   10  H           1     -22.799  -9.705 -21.625  0.00  0.00     0.274 HD
HETATM   11  H           1     -23.713  -9.048 -20.343  0.00  0.00     0.274 HD
HETATM   12  H           1     -22.329  -8.227 -20.913  0.00  0.00     0.274 HD
ENDBRANCH   8   9
ENDBRANCH   7   8
ENDBRANCH   6   7
ENDBRANCH   5   6
BRANCH   5  13
HETATM   13  N           1     -24.229  -7.559 -18.196  0.00  0.00    -0.067 N 
HETATM   14  H           1     -24.327  -8.559 -18.483  0.00  0.00     0.275 HD
HETATM   15  H           1     -23.239  -7.253 -18.331  0.00  0.00     0.275 HD
HETATM   16  H           1     -24.489  -7.459 -17.188  0.00  0.00     0.275 HD
ENDBRANCH   5  13
ENDBRANCH   4   5
BRANCH   3  17
HETATM   17  C           1     -28.820  -6.294 -18.062  0.00  0.00     0.186 C 
BRANCH  17  18
HETATM   18  C           1     -29.837  -7.388 -18.275  0.00  0.00     0.196 C 
HETATM   19  O           1     -30.954  -7.319 -17.717  0.00  0.00    -0.646 OA
HETATM   20  O           1     -29.564  -8.362 -19.009  0.00  0.00    -0.646 OA
ENDBRANCH  17  18
BRANCH  17  21
HETATM   21  C           1     -29.392  -4.967 -18.541  0.00  0.00     0.046 C 
BRANCH  21  22
HETATM   22  C           1     -29.657  -4.065 -17.342  0.00  0.00     0.116 C 
BRANCH  22  23
HETATM   23  C           1     -31.140  -3.817 -17.218  0.00  0.00     0.172 C 
HETATM   24  O           1     -31.805  -4.429 -16.353  0.00  0.00    -0.648 OA
HETATM   25  O           1     -31.704  -3.001 -17.978  0.00  0.00    -0.648 OA
ENDBRANCH  22  23
ENDBRANCH  21  22
ENDBRANCH  17  21
ENDBRANCH   3  17
TORSDOF 11
ENDMDL
MODEL 3
REMARK VINA RESULT:      -6.5      1.851      3.562
REMARK  11 active torsions:
REMARK  status: ('A' for Active; 'I' for Inactive)
REMARK    1  A    between atoms: C_4  and  C_5 
REMARK    2  A    between atoms: C_5  and  C_18 
REMARK    3  A    between atoms: C_5  and  N_13 
REMARK    4  A    between atoms: C_6  and  C_10 
REMARK    5  A    between atoms: C_6  and  C_9 
REMARK    6  A    between atoms: C_9  and  C_20 
REMARK    7  A    between atoms: C_10  and  C_19 
REMARK    8  A    between atoms: C_10  and  N_21 
REMARK       I    between atoms: N_13  and  C_19 
REMARK    9  A    between atoms: C_15  and  C_17 
REMARK   10  A    between atoms: C_15  and  C_18 
REMARK   11  A    between atoms: C_20  and  N_23 
ROOT
HETATM    1  O           1     -34.636  -2.999 -13.339  0.00  0.00    -0.271 OA
HETATM    2  H           1     -34.828  -0.378 -11.625  0.00  0.00     0.163 HD
HETATM    3  N           1     -35.036  -1.025 -12.377  0.00  0.00    -0.345 N 
HETATM    4  C           1     -34.388  -2.229 -12.443  0.00  0.00     0.249 C 
ENDROOT
BRANCH   4   5
HETATM    5  C           1     -33.364  -2.593 -11.396  0.00  0.00     0.274 C 
BRANCH   5   6
HETATM    6  C           1     -33.113  -4.095 -11.433  0.00  0.00     0.044 C 
BRANCH   6   7
HETATM    7  C           1     -34.007  -4.786 -10.413  0.00  0.00     0.030 C 
BRANCH   7   8
HETATM    8  C           1     -34.573  -6.065 -11.017  0.00  0.00     0.230 C 
BRANCH   8   9
HETATM    9  N           1     -34.767  -5.879 -12.492  0.00  0.00    -0.079 N 
HETATM   10  H           1     -35.511  -5.165 -12.660  0.00  0.00     0.274 HD
HETATM   11  H           1     -35.053  -6.787 -12.923  0.00  0.00     0.274 HD
HETATM   12  H           1     -33.871  -5.556 -12.922  0.00  0.00     0.274 HD
ENDBRANCH   8   9
ENDBRANCH   7   8
ENDBRANCH   6   7
ENDBRANCH   5   6
BRANCH   5  13
HETATM   13  N           1     -33.876  -2.206 -10.040  0.00  0.00    -0.067 N 
HETATM   14  H           1     -33.117  -1.731  -9.504  0.00  0.00     0.275 HD
HETATM   15  H           1     -34.687  -1.556 -10.147  0.00  0.00     0.275 HD
HETATM   16  H           1     -34.183  -3.063  -9.526  0.00  0.00     0.275 HD
ENDBRANCH   5  13
ENDBRANCH   4   5
BRANCH   3  17
HETATM   17  C           1     -36.019  -0.673 -13.382  0.00  0.00     0.186 C 
BRANCH  17  18
HETATM   18  C           1     -35.372   0.190 -14.437  0.00  0.00     0.196 C 
HETATM   19  O           1     -35.146   1.397 -14.204  0.00  0.00    -0.646 OA
HETATM   20  O           1     -35.062  -0.303 -15.544  0.00  0.00    -0.646 OA
ENDBRANCH  17  18
BRANCH  17  21
HETATM   21  C           1     -37.162   0.093 -12.729  0.00  0.00     0.046 C 
BRANCH  21  22
HETATM   22  C           1     -37.572  -0.606 -11.440  0.00  0.00     0.116 C 
BRANCH  22  23
HETATM   23  C           1     -37.160   0.237 -10.259  0.00  0.00     0.172 C 
HETATM   24  O           1     -36.124  -0.047  -9.619  0.00  0.00    -0.648 OA
HETATM   25  O           1     -37.854   1.220  -9.919  0.00  0.00    -0.648 OA
ENDBRANCH  22  23
ENDBRANCH  21  22
ENDBRANCH  17  21
ENDBRANCH   3  17
TORSDOF 11
ENDMDL
MODEL 4
REMARK VINA RESULT:      -6.4     10.860     12.426
REMARK  11 active torsions:
REMARK  status: ('A' for Active; 'I' for Inactive)
REMARK    1  A    between atoms: C_4  and  C_5 
REMARK    2  A    between atoms: C_5  and  C_18 
REMARK    3  A    between atoms: C_5  and  N_13 
REMARK    4  A    between atoms: C_6  and  C_10 
REMARK    5  A    between atoms: C_6  and  C_9 
REMARK    6  A    between atoms: C_9  and  C_20 
REMARK    7  A    between atoms: C_10  and  C_19 
REMARK    8  A    between atoms: C_10  and  N_21 
REMARK       I    between atoms: N_13  and  C_19 
REMARK    9  A    between atoms: C_15  and  C_17 
REMARK   10  A    between atoms: C_15  and  C_18 
REMARK   11  A    between atoms: C_20  and  N_23 
ROOT
HETATM    1  O           1     -24.380  -6.436 -18.614  0.00  0.00    -0.271 OA
HETATM    2  H           1     -27.467  -7.001 -18.609  0.00  0.00     0.163 HD
HETATM    3  N           1     -26.576  -6.653 -18.274  0.00  0.00    -0.345 N 
HETATM    4  C           1     -25.442  -6.851 -19.014  0.00  0.00     0.249 C 
ENDROOT
BRANCH   4   5
HETATM    5  C           1     -25.518  -7.587 -20.329  0.00  0.00     0.274 C 
BRANCH   5   6
HETATM    6  C           1     -24.903  -6.729 -21.427  0.00  0.00     0.044 C 
BRANCH   6   7
HETATM    7  C           1     -24.064  -7.604 -22.348  0.00  0.00     0.030 C 
BRANCH   7   8
HETATM    8  C           1     -23.083  -8.422 -21.518  0.00  0.00     0.230 C 
BRANCH   8   9
HETATM    9  N           1     -22.355  -9.385 -22.408  0.00  0.00    -0.079 N 
HETATM   10  H           1     -21.829 -10.072 -21.822  0.00  0.00     0.274 HD
HETATM   11  H           1     -21.686  -8.861 -23.014  0.00  0.00     0.274 HD
HETATM   12  H           1     -23.044  -9.894 -23.006  0.00  0.00     0.274 HD
ENDBRANCH   8   9
ENDBRANCH   7   8
ENDBRANCH   6   7
ENDBRANCH   5   6
BRANCH   5  13
HETATM   13  N           1     -26.953  -7.871 -20.661  0.00  0.00    -0.067 N 
HETATM   14  H           1     -27.527  -7.018 -20.478  0.00  0.00     0.275 HD
HETATM   15  H           1     -27.032  -8.136 -21.668  0.00  0.00     0.275 HD
HETATM   16  H           1     -27.298  -8.658 -20.065  0.00  0.00     0.275 HD
ENDBRANCH   5  13
ENDBRANCH   4   5
BRANCH   3  17
HETATM   17  C           1     -26.505  -5.946 -17.010  0.00  0.00     0.186 C 
BRANCH  17  18
HETATM   18  C           1     -26.419  -6.944 -15.881  0.00  0.00     0.196 C 
HETATM   19  O           1     -25.302  -7.338 -15.479  0.00  0.00    -0.646 OA
HETATM   20  O           1     -27.463  -7.376 -15.347  0.00  0.00    -0.646 OA
ENDBRANCH  17  18
BRANCH  17  21
HETATM   21  C           1     -27.750  -5.088 -16.836  0.00  0.00     0.046 C 
BRANCH  21  22
HETATM   22  C           1     -28.604  -5.169 -18.095  0.00  0.00     0.116 C 
BRANCH  22  23
HETATM   23  C           1     -29.626  -6.268 -17.940  0.00  0.00     0.172 C 
HETATM   24  O           1     -29.443  -7.373 -18.494  0.00  0.00    -0.648 OA
HETATM   25  O           1     -30.655  -6.073 -17.258  0.00  0.00    -0.648 OA
ENDBRANCH  22  23
ENDBRANCH  21  22
ENDBRANCH  17  21
ENDBRANCH   3  17
TORSDOF 11
ENDMDL
MODEL 5
REMARK VINA RESULT:      -6.2     10.785     12.246
REMARK  11 active torsions:
REMARK  status: ('A' for Active; 'I' for Inactive)
REMARK    1  A    between atoms: C_4  and  C_5 
REMARK    2  A    between atoms: C_5  and  C_18 
REMARK    3  A    between atoms: C_5  and  N_13 
REMARK    4  A    between atoms: C_6  and  C_10 
REMARK    5  A    between atoms: C_6  and  C_9 
REMARK    6  A    between atoms: C_9  and  C_20 
REMARK    7  A    between atoms: C_10  and  C_19 
REMARK    8  A    between atoms: C_10  and  N_21 
REMARK       I    between atoms: N_13  and  C_19 
REMARK    9  A    between atoms: C_15  and  C_17 
REMARK   10  A    between atoms: C_15  and  C_18 
REMARK   11  A    between atoms: C_20  and  N_23 
ROOT
HETATM    1  O           1     -27.069  -5.570 -20.655  0.00  0.00    -0.271 OA
HETATM    2  H           1     -27.181  -7.365 -18.083  0.00  0.00     0.163 HD
HETATM    3  N           1     -27.342  -6.554 -18.669  0.00  0.00    -0.345 N 
HETATM    4  C           1     -26.877  -6.537 -19.957  0.00  0.00     0.249 C 
ENDROOT
BRANCH   4   5
HETATM    5  C           1     -26.125  -7.726 -20.504  0.00  0.00     0.274 C 
BRANCH   5   6
HETATM    6  C           1     -25.058  -7.247 -21.479  0.00  0.00     0.044 C 
BRANCH   6   7
HETATM    7  C           1     -23.821  -8.125 -21.351  0.00  0.00     0.030 C 
BRANCH   7   8
HETATM    8  C           1     -23.234  -8.382 -22.732  0.00  0.00     0.230 C 
BRANCH   8   9
HETATM    9  N           1     -22.198  -9.463 -22.644  0.00  0.00    -0.079 N 
HETATM   10  H           1     -22.101  -9.930 -23.573  0.00  0.00     0.274 HD
HETATM   11  H           1     -22.490 -10.167 -21.929  0.00  0.00     0.274 HD
HETATM   12  H           1     -21.281  -9.044 -22.367  0.00  0.00     0.274 HD
ENDBRANCH   8   9
ENDBRANCH   7   8
ENDBRANCH   6   7
ENDBRANCH   5   6
BRANCH   5  13
HETATM   13  N           1     -27.081  -8.636 -21.217  0.00  0.00    -0.067 N 
HETATM   14  H           1     -27.597  -9.215 -20.518  0.00  0.00     0.275 HD
HETATM   15  H           1     -27.761  -8.065 -21.767  0.00  0.00     0.275 HD
HETATM   16  H           1     -26.548  -9.262 -21.863  0.00  0.00     0.275 HD
ENDBRANCH   5  13
ENDBRANCH   4   5
BRANCH   3  17
HETATM   17  C           1     -28.064  -5.412 -18.143  0.00  0.00     0.186 C 
BRANCH  17  18
HETATM   18  C           1     -27.443  -4.985 -16.836  0.00  0.00     0.196 C 
HETATM   19  O           1     -28.052  -4.192 -16.085  0.00  0.00    -0.646 OA
HETATM   20  O           1     -26.321  -5.424 -16.503  0.00  0.00    -0.646 OA
ENDBRANCH  17  18
BRANCH  17  21
HETATM   21  C           1     -29.520  -5.794 -17.913  0.00  0.00     0.046 C 
BRANCH  21  22
HETATM   22  C           1     -29.610  -7.274 -17.565  0.00  0.00     0.116 C 
BRANCH  22  23
HETATM   23  C           1     -30.259  -8.020 -18.704  0.00  0.00     0.172 C 
HETATM   24  O           1     -31.480  -7.872 -18.933  0.00  0.00    -0.648 OA
HETATM   25  O           1     -29.578  -8.786 -19.419  0.00  0.00    -0.648 OA
ENDBRANCH  22  23
ENDBRANCH  21  22
ENDBRANCH  17  21
ENDBRANCH   3  17
TORSDOF 11
ENDMDL
MODEL 6
REMARK VINA RESULT:      -6.0     10.520     12.082
REMARK  11 active torsions:
REMARK  status: ('A' for Active; 'I' for Inactive)
REMARK    1  A    between atoms: C_4  and  C_5 
REMARK    2  A    between atoms: C_5  and  C_18 
REMARK    3  A    between atoms: C_5  and  N_13 
REMARK    4  A    between atoms: C_6  and  C_10 
REMARK    5  A    between atoms: C_6  and  C_9 
REMARK    6  A    between atoms: C_9  and  C_20 
REMARK    7  A    between atoms: C_10  and  C_19 
REMARK    8  A    between atoms: C_10  and  N_21 
REMARK       I    between atoms: N_13  and  C_19 
REMARK    9  A    between atoms: C_15  and  C_17 
REMARK   10  A    between atoms: C_15  and  C_18 
REMARK   11  A    between atoms: C_20  and  N_23 
ROOT
HETATM    1  O           1     -25.859  -6.299 -17.569  0.00  0.00    -0.271 OA
HETATM    2  H           1     -27.343  -7.087 -20.220  0.00  0.00     0.163 HD
HETATM    3  N           1     -27.237  -6.812 -19.251  0.00  0.00    -0.345 N 
HETATM    4  C           1     -25.986  -6.628 -18.725  0.00  0.00     0.249 C 
ENDROOT
BRANCH   4   5
HETATM    5  C           1     -24.766  -6.836 -19.589  0.00  0.00     0.274 C 
BRANCH   5   6
HETATM    6  C           1     -25.032  -7.960 -20.580  0.00  0.00     0.044 C 
BRANCH   6   7
HETATM    7  C           1     -24.620  -7.516 -21.977  0.00  0.00     0.030 C 
BRANCH   7   8
HETATM    8  C           1     -23.289  -8.158 -22.344  0.00  0.00     0.230 C 
BRANCH   8   9
HETATM    9  N           1     -22.907  -9.156 -21.291  0.00  0.00    -0.079 N 
HETATM   10  H           1     -21.957  -9.536 -21.500  0.00  0.00     0.274 HD
HETATM   11  H           1     -23.601  -9.937 -21.284  0.00  0.00     0.274 HD
HETATM   12  H           1     -22.898  -8.688 -20.357  0.00  0.00     0.274 HD
ENDBRANCH   8   9
ENDBRANCH   7   8
ENDBRANCH   6   7
ENDBRANCH   5   6
BRANCH   5  13
HETATM   13  N           1     -23.597  -7.199 -18.722  0.00  0.00    -0.067 N 
HETATM   14  H           1     -22.723  -6.798 -19.130  0.00  0.00     0.275 HD
HETATM   15  H           1     -23.741  -6.814 -17.762  0.00  0.00     0.275 HD
HETATM   16  H           1     -23.512  -8.240 -18.671  0.00  0.00     0.275 HD
ENDBRANCH   5  13
ENDBRANCH   4   5
BRANCH   3  17
HETATM   17  C           1     -28.409  -6.613 -18.422  0.00  0.00     0.186 C 
BRANCH  17  18
HETATM   18  C           1     -29.390  -7.734 -18.661  0.00  0.00     0.196 C 
HETATM   19  O           1     -30.238  -8.020 -17.788  0.00  0.00    -0.646 OA
HETATM   20  O           1     -29.355  -8.376 -19.734  0.00  0.00    -0.646 OA
ENDBRANCH  17  18
BRANCH  17  21
HETATM   21  C           1     -29.061  -5.283 -18.774  0.00  0.00     0.046 C 
BRANCH  21  22
HETATM   22  C           1     -29.721  -4.695 -17.534  0.00  0.00     0.116 C 
BRANCH  22  23
HETATM   23  C           1     -28.699  -4.574 -16.430  0.00  0.00     0.172 C 
HETATM   24  O           1     -27.752  -3.766 -16.541  0.00  0.00    -0.648 OA
HETATM   25  O           1     -28.799  -5.283 -15.405  0.00  0.00    -0.648 OA
ENDBRANCH  22  23
ENDBRANCH  21  22
ENDBRANCH  17  21
ENDBRANCH   3  17
TORSDOF 11
ENDMDL
MODEL 7
REMARK VINA RESULT:      -5.9      2.845      5.273
REMARK  11 active torsions:
REMARK  status: ('A' for Active; 'I' for Inactive)
REMARK    1  A    between atoms: C_4  and  C_5 
REMARK    2  A    between atoms: C_5  and  C_18 
REMARK    3  A    between atoms: C_5  and  N_13 
REMARK    4  A    between atoms: C_6  and  C_10 
REMARK    5  A    between atoms: C_6  and  C_9 
REMARK    6  A    between atoms: C_9  and  C_20 
REMARK    7  A    between atoms: C_10  and  C_19 
REMARK    8  A    between atoms: C_10  and  N_21 
REMARK       I    between atoms: N_13  and  C_19 
REMARK    9  A    between atoms: C_15  and  C_17 
REMARK   10  A    between atoms: C_15  and  C_18 
REMARK   11  A    between atoms: C_20  and  N_23 
ROOT
HETATM    1  O           1     -37.838  -0.650 -13.480  0.00  0.00    -0.271 OA
HETATM    2  H           1     -35.157   0.184 -12.078  0.00  0.00     0.163 HD
HETATM    3  N           1     -36.074  -0.237 -12.175  0.00  0.00    -0.345 N 
HETATM    4  C           1     -36.745  -0.149 -13.365  0.00  0.00     0.249 C 
ENDROOT
BRANCH   4   5
HETATM    5  C           1     -36.120   0.574 -14.533  0.00  0.00     0.274 C 
BRANCH   5   6
HETATM    6  C           1     -36.540  -0.101 -15.832  0.00  0.00     0.044 C 
BRANCH   6   7
HETATM    7  C           1     -35.308  -0.630 -16.552  0.00  0.00     0.030 C 
BRANCH   7   8
HETATM    8  C           1     -35.526  -2.089 -16.928  0.00  0.00     0.230 C 
BRANCH   8   9
HETATM    9  N           1     -34.246  -2.850 -16.746  0.00  0.00    -0.079 N 
HETATM   10  H           1     -34.011  -3.354 -17.631  0.00  0.00     0.274 HD
HETATM   11  H           1     -34.360  -3.542 -15.972  0.00  0.00     0.274 HD
HETATM   12  H           1     -33.476  -2.184 -16.509  0.00  0.00     0.274 HD
ENDBRANCH   8   9
ENDBRANCH   7   8
ENDBRANCH   6   7
ENDBRANCH   5   6
BRANCH   5  13
HETATM   13  N           1     -34.626   0.528 -14.406  0.00  0.00    -0.067 N 
HETATM   14  H           1     -34.204   0.327 -15.340  0.00  0.00     0.275 HD
HETATM   15  H           1     -34.277   1.449 -14.056  0.00  0.00     0.275 HD
HETATM   16  H           1     -34.357  -0.225 -13.733  0.00  0.00     0.275 HD
ENDBRANCH   5  13
ENDBRANCH   4   5
BRANCH   3  17
HETATM   17  C           1     -36.674  -0.931 -11.052  0.00  0.00     0.186 C 
BRANCH  17  18
HETATM   18  C           1     -36.848   0.031  -9.903  0.00  0.00     0.196 C 
HETATM   19  O           1     -37.633   0.998 -10.010  0.00  0.00    -0.646 OA
HETATM   20  O           1     -36.208  -0.140  -8.842  0.00  0.00    -0.646 OA
ENDBRANCH  17  18
BRANCH  17  21
HETATM   21  C           1     -35.771  -2.079 -10.623  0.00  0.00     0.046 C 
BRANCH  21  22
HETATM   22  C           1     -34.417  -1.945 -11.308  0.00  0.00     0.116 C 
BRANCH  22  23
HETATM   23  C           1     -34.311  -2.964 -12.415  0.00  0.00     0.172 C 
HETATM   24  O           1     -33.923  -4.125 -12.160  0.00  0.00    -0.648 OA
HETATM   25  O           1     -34.609  -2.648 -13.587  0.00  0.00    -0.648 OA
ENDBRANCH  22  23
ENDBRANCH  21  22
ENDBRANCH  17  21
ENDBRANCH   3  17
TORSDOF 11
ENDMDL
MODEL 8
REMARK VINA RESULT:      -5.7     13.978     17.059
REMARK  11 active torsions:
REMARK  status: ('A' for Active; 'I' for Inactive)
REMARK    1  A    between atoms: C_4  and  C_5 
REMARK    2  A    between atoms: C_5  and  C_18 
REMARK    3  A    between atoms: C_5  and  N_13 
REMARK    4  A    between atoms: C_6  and  C_10 
REMARK    5  A    between atoms: C_6  and  C_9 
REMARK    6  A    between atoms: C_9  and  C_20 
REMARK    7  A    between atoms: C_10  and  C_19 
REMARK    8  A    between atoms: C_10  and  N_21 
REMARK       I    between atoms: N_13  and  C_19 
REMARK    9  A    between atoms: C_15  and  C_17 
REMARK   10  A    between atoms: C_15  and  C_18 
REMARK   11  A    between atoms: C_20  and  N_23 
ROOT
HETATM    1  O           1     -19.672  -4.478  -5.797  0.00  0.00    -0.271 OA
HETATM    2  H           1     -22.214  -6.175  -6.505  0.00  0.00     0.163 HD
HETATM    3  N           1     -21.391  -5.890  -5.988  0.00  0.00    -0.345 N 
HETATM    4  C           1     -20.653  -4.818  -6.414  0.00  0.00     0.249 C 
ENDROOT
BRANCH   4   5
HETATM    5  C           1     -21.066  -4.061  -7.653  0.00  0.00     0.274 C 
BRANCH   5   6
HETATM    6  C           1     -22.553  -4.274  -7.905  0.00  0.00     0.044 C 
BRANCH   6   7
HETATM    7  C           1     -22.922  -3.717  -9.273  0.00  0.00     0.030 C 
BRANCH   7   8
HETATM    8  C           1     -24.148  -4.446  -9.805  0.00  0.00     0.230 C 
BRANCH   8   9
HETATM    9  N           1     -25.356  -3.568  -9.659  0.00  0.00    -0.079 N 
HETATM   10  H           1     -26.130  -4.112  -9.216  0.00  0.00     0.274 HD
HETATM   11  H           1     -25.660  -3.234 -10.600  0.00  0.00     0.274 HD
HETATM   12  H           1     -25.117  -2.748  -9.057  0.00  0.00     0.274 HD
ENDBRANCH   8   9
ENDBRANCH   7   8
ENDBRANCH   6   7
ENDBRANCH   5   6
BRANCH   5  13
HETATM   13  N           1     -20.283  -4.564  -8.829  0.00  0.00    -0.067 N 
HETATM   14  H           1     -20.414  -3.915  -9.637  0.00  0.00     0.275 HD
HETATM   15  H           1     -19.269  -4.609  -8.579  0.00  0.00     0.275 HD
HETATM   16  H           1     -20.620  -5.518  -9.089  0.00  0.00     0.275 HD
ENDBRANCH   5  13
ENDBRANCH   4   5
BRANCH   3  17
HETATM   17  C           1     -20.995  -6.618  -4.799  0.00  0.00     0.186 C 
BRANCH  17  18
HETATM   18  C           1     -20.601  -8.024  -5.179  0.00  0.00     0.196 C 
HETATM   19  O           1     -19.523  -8.230  -5.779  0.00  0.00    -0.646 OA
HETATM   20  O           1     -21.350  -8.983  -4.892  0.00  0.00    -0.646 OA
ENDBRANCH  17  18
BRANCH  17  21
HETATM   21  C           1     -22.160  -6.663  -3.819  0.00  0.00     0.046 C 
BRANCH  21  22
HETATM   22  C           1     -21.699  -6.161  -2.457  0.00  0.00     0.116 C 
BRANCH  22  23
HETATM   23  C           1     -21.971  -7.215  -1.414  0.00  0.00     0.172 C 
HETATM   24  O           1     -21.337  -8.293  -1.436  0.00  0.00    -0.648 OA
HETATM   25  O           1     -22.828  -7.012  -0.527  0.00  0.00    -0.648 OA
ENDBRANCH  22  23
ENDBRANCH  21  22
ENDBRANCH  17  21
ENDBRANCH   3  17
TORSDOF 11
ENDMDL
MODEL 9
REMARK VINA RESULT:      -5.7     15.210     17.317
REMARK  11 active torsions:
REMARK  status: ('A' for Active; 'I' for Inactive)
REMARK    1  A    between atoms: C_4  and  C_5 
REMARK    2  A    between atoms: C_5  and  C_18 
REMARK    3  A    between atoms: C_5  and  N_13 
REMARK    4  A    between atoms: C_6  and  C_10 
REMARK    5  A    between atoms: C_6  and  C_9 
REMARK    6  A    between atoms: C_9  and  C_20 
REMARK    7  A    between atoms: C_10  and  C_19 
REMARK    8  A    between atoms: C_10  and  N_21 
REMARK       I    between atoms: N_13  and  C_19 
REMARK    9  A    between atoms: C_15  and  C_17 
REMARK   10  A    between atoms: C_15  and  C_18 
REMARK   11  A    between atoms: C_20  and  N_23 
ROOT
HETATM    1  O           1     -20.293  -4.356  -6.170  0.00  0.00    -0.271 OA
HETATM    2  H           1     -21.915  -6.909  -7.006  0.00  0.00     0.163 HD
HETATM    3  N           1     -21.339  -6.313  -6.424  0.00  0.00    -0.345 N 
HETATM    4  C           1     -20.980  -5.067  -6.864  0.00  0.00     0.249 C 
ENDROOT
BRANCH   4   5
HETATM    5  C           1     -21.442  -4.582  -8.217  0.00  0.00     0.274 C 
BRANCH   5   6
HETATM    6  C           1     -20.251  -4.042  -8.997  0.00  0.00     0.044 C 
BRANCH   6   7
HETATM    7  C           1     -20.301  -4.562 -10.427  0.00  0.00     0.030 C 
BRANCH   7   8
HETATM    8  C           1     -21.190  -3.656 -11.267  0.00  0.00     0.230 C 
BRANCH   8   9
HETATM    9  N           1     -22.092  -4.494 -12.124  0.00  0.00    -0.079 N 
HETATM   10  H           1     -21.517  -5.066 -12.782  0.00  0.00     0.274 HD
HETATM   11  H           1     -22.730  -3.873 -12.670  0.00  0.00     0.274 HD
HETATM   12  H           1     -22.659  -5.128 -11.515  0.00  0.00     0.274 HD
ENDBRANCH   8   9
ENDBRANCH   7   8
ENDBRANCH   6   7
ENDBRANCH   5   6
BRANCH   5  13
HETATM   13  N           1     -22.457  -3.493  -8.036  0.00  0.00    -0.067 N 
HETATM   14  H           1     -21.993  -2.648  -7.632  0.00  0.00     0.275 HD
HETATM   15  H           1     -22.878  -3.250  -8.961  0.00  0.00     0.275 HD
HETATM   16  H           1     -23.209  -3.821  -7.388  0.00  0.00     0.275 HD
ENDBRANCH   5  13
ENDBRANCH   4   5
BRANCH   3  17
HETATM   17  C           1     -20.895  -6.780  -5.125  0.00  0.00     0.186 C 
BRANCH  17  18
HETATM   18  C           1     -20.480  -8.227  -5.227  0.00  0.00     0.196 C 
HETATM   19  O           1     -21.285  -9.131  -4.913  0.00  0.00    -0.646 OA
HETATM   20  O           1     -19.333  -8.522  -5.627  0.00  0.00    -0.646 OA
ENDBRANCH  17  18
BRANCH  17  21
HETATM   21  C           1     -22.031  -6.646  -4.121  0.00  0.00     0.046 C 
BRANCH  21  22
HETATM   22  C           1     -21.478  -6.157  -2.789  0.00  0.00     0.116 C 
BRANCH  22  23
HETATM   23  C           1     -21.898  -7.104  -1.692  0.00  0.00     0.172 C 
HETATM   24  O           1     -21.454  -8.273  -1.673  0.00  0.00    -0.648 OA
HETATM   25  O           1     -22.689  -6.721  -0.804  0.00  0.00    -0.648 OA
ENDBRANCH  22  23
ENDBRANCH  21  22
ENDBRANCH  17  21
ENDBRANCH   3  17
TORSDOF 11
ENDMDL
