MODEL 1
REMARK VINA RESULT:      -6.6      0.000      0.000
REMARK  5 active torsions:
REMARK  status: ('A' for Active; 'I' for Inactive)
REMARK    1  A    between atoms: C_1  and  C_4 
REMARK    2  A    between atoms: C_4  and  C_17 
REMARK    3  A    between atoms: C_4  and  N_7 
REMARK       I    between atoms: N_7  and  C_8 
REMARK    4  A    between atoms: C_8  and  C_12 
REMARK    5  A    between atoms: O_16  and  C_17 
ROOT
HETATM    1  O           1     -22.831  -3.995  -7.498  0.00  0.00    -0.271 OA
HETATM    2  N           1     -21.857  -4.691  -9.382  0.00  0.00    -0.342 N 
HETATM    3  C           1     -22.079  -4.772  -8.034  0.00  0.00     0.251 C 
HETATM    4  H           1     -21.225  -5.342  -9.832  0.00  0.00     0.163 HD
ENDROOT
BRANCH   2   5
HETATM    5  C           1     -22.526  -3.672 -10.168  0.00  0.00     0.214 C 
BRANCH   5   6
HETATM    6  C           1     -23.882  -4.178 -10.594  0.00  0.00     0.199 C 
HETATM    7  O           1     -24.091  -5.408 -10.684  0.00  0.00    -0.646 OA
HETATM    8  O           1     -24.797  -3.368 -10.857  0.00  0.00    -0.646 OA
ENDBRANCH   5   6
BRANCH   5   9
HETATM    9  C           1     -21.692  -3.352 -11.401  0.00  0.00     0.147 C 
HETATM   10  C           1     -20.253  -3.792 -11.169  0.00  0.00     0.042 C 
BRANCH   9  11
HETATM   11  O           1     -22.215  -4.033 -12.508  0.00  0.00    -0.393 OA
HETATM   12  H           1     -23.040  -3.627 -12.715  0.00  0.00     0.210 HD
ENDBRANCH   9  11
ENDBRANCH   5   9
ENDBRANCH   2   5
BRANCH   3  13
HETATM   13  C           1     -21.381  -5.832  -7.216  0.00  0.00     0.311 C 
HETATM   14  N           1     -19.977  -5.941  -7.596  0.00  0.00     0.097 N 
HETATM   15  H           1     -19.576  -6.816  -7.257  0.00  0.00     0.317 HD
HETATM   16  C           1     -19.319  -4.816  -6.938  0.00  0.00     0.271 C 
HETATM   17  C           1     -19.974  -4.763  -5.569  0.00  0.00     0.033 C 
HETATM   18  C           1     -21.330  -5.435  -5.751  0.00  0.00     0.047 C 
ENDBRANCH   3  13
TORSDOF 5
ENDMDL
MODEL 2
REMARK VINA RESULT:      -6.0     12.083     14.064
REMARK  5 active torsions:
REMARK  status: ('A' for Active; 'I' for Inactive)
REMARK    1  A    between atoms: C_1  and  C_4 
REMARK    2  A    between atoms: C_4  and  C_17 
REMARK    3  A    between atoms: C_4  and  N_7 
REMARK       I    between atoms: N_7  and  C_8 
REMARK    4  A    between atoms: C_8  and  C_12 
REMARK    5  A    between atoms: O_16  and  C_17 
ROOT
HETATM    1  O           1     -34.341  -3.278 -13.544  0.00  0.00    -0.271 OA
HETATM    2  N           1     -34.877  -1.488 -12.322  0.00  0.00    -0.342 N 
HETATM    3  C           1     -34.193  -2.658 -12.519  0.00  0.00     0.251 C 
HETATM    4  H           1     -34.753  -0.968 -11.462  0.00  0.00     0.163 HD
ENDROOT
BRANCH   2   5
HETATM    5  C           1     -35.778  -0.994 -13.345  0.00  0.00     0.214 C 
BRANCH   5   6
HETATM    6  C           1     -35.112   0.128 -14.100  0.00  0.00     0.199 C 
HETATM    7  O           1     -35.044   0.088 -15.349  0.00  0.00    -0.646 OA
HETATM    8  O           1     -34.629   1.100 -13.480  0.00  0.00    -0.646 OA
ENDBRANCH   5   6
BRANCH   5   9
HETATM    9  C           1     -37.054  -0.479 -12.691  0.00  0.00     0.147 C 
HETATM   10  C           1     -36.740   0.021 -11.288  0.00  0.00     0.042 C 
BRANCH   9  11
HETATM   11  O           1     -37.579   0.571 -13.455  0.00  0.00    -0.393 OA
HETATM   12  H           1     -38.454   0.727 -13.142  0.00  0.00     0.210 HD
ENDBRANCH   9  11
ENDBRANCH   5   9
ENDBRANCH   2   5
BRANCH   3  13
HETATM   13  C           1     -33.256  -3.173 -11.454  0.00  0.00     0.311 C 
HETATM   14  N           1     -33.992  -3.556 -10.254  0.00  0.00     0.097 N 
HETATM   15  H           1     -33.364  -3.641  -9.455  0.00  0.00     0.317 HD
HETATM   16  C           1     -34.566  -4.862 -10.564  0.00  0.00     0.271 C 
HETATM   17  C           1     -33.457  -5.576 -11.316  0.00  0.00     0.033 C 
HETATM   18  C           1     -32.592  -4.465 -11.899  0.00  0.00     0.047 C 
ENDBRANCH   3  13
TORSDOF 5
ENDMDL
MODEL 3
REMARK VINA RESULT:      -5.9     12.824     15.074
REMARK  5 active torsions:
REMARK  status: ('A' for Active; 'I' for Inactive)
REMARK    1  A    between atoms: C_1  and  C_4 
REMARK    2  A    between atoms: C_4  and  C_17 
REMARK    3  A    between atoms: C_4  and  N_7 
REMARK       I    between atoms: N_7  and  C_8 
REMARK    4  A    between atoms: C_8  and  C_12 
REMARK    5  A    between atoms: O_16  and  C_17 
ROOT
HETATM    1  O           1     -36.878  -1.063 -12.971  0.00  0.00    -0.271 OA
HETATM    2  N           1     -34.715  -1.560 -13.207  0.00  0.00    -0.342 N 
HETATM    3  C           1     -35.841  -0.865 -13.556  0.00  0.00     0.251 C 
HETATM    4  H           1     -33.845  -1.395 -13.698  0.00  0.00     0.163 HD
ENDROOT
BRANCH   2   5
HETATM    5  C           1     -34.767  -2.534 -12.134  0.00  0.00     0.214 C 
BRANCH   5   6
HETATM    6  C           1     -34.384  -1.870 -10.835  0.00  0.00     0.199 C 
HETATM    7  O           1     -33.178  -1.766 -10.518  0.00  0.00    -0.646 OA
HETATM    8  O           1     -35.271  -1.423 -10.076  0.00  0.00    -0.646 OA
ENDBRANCH   5   6
BRANCH   5   9
HETATM    9  C           1     -33.796  -3.669 -12.430  0.00  0.00     0.147 C 
HETATM   10  C           1     -34.199  -4.904 -11.635  0.00  0.00     0.042 C 
BRANCH   9  11
HETATM   11  O           1     -33.826  -3.965 -13.800  0.00  0.00    -0.393 OA
HETATM   12  H           1     -34.683  -4.310 -13.986  0.00  0.00     0.210 HD
ENDBRANCH   9  11
ENDBRANCH   5   9
ENDBRANCH   2   5
BRANCH   3  13
HETATM   13  C           1     -35.787   0.148 -14.674  0.00  0.00     0.311 C 
HETATM   14  N           1     -34.849  -0.271 -15.710  0.00  0.00     0.097 N 
HETATM   15  H           1     -34.604   0.513 -16.316  0.00  0.00     0.317 HD
HETATM   16  C           1     -35.567  -1.280 -16.485  0.00  0.00     0.271 C 
HETATM   17  C           1     -36.975  -0.721 -16.589  0.00  0.00     0.033 C 
HETATM   18  C           1     -37.119   0.221 -15.400  0.00  0.00     0.047 C 
ENDBRANCH   3  13
TORSDOF 5
ENDMDL
MODEL 4
REMARK VINA RESULT:      -5.9     13.449     14.760
REMARK  5 active torsions:
REMARK  status: ('A' for Active; 'I' for Inactive)
REMARK    1  A    between atoms: C_1  and  C_4 
REMARK    2  A    between atoms: C_4  and  C_17 
REMARK    3  A    between atoms: C_4  and  N_7 
REMARK       I    between atoms: N_7  and  C_8 
REMARK    4  A    between atoms: C_8  and  C_12 
REMARK    5  A    between atoms: O_16  and  C_17 
ROOT
HETATM    1  O           1     -36.380  -1.530 -12.282  0.00  0.00    -0.271 OA
HETATM    2  N           1     -35.024  -1.272 -14.037  0.00  0.00    -0.342 N 
HETATM    3  C           1     -35.287  -1.704 -12.765  0.00  0.00     0.251 C 
HETATM    4  H           1     -34.108  -1.418 -14.442  0.00  0.00     0.163 HD
ENDROOT
BRANCH   2   5
HETATM    5  C           1     -36.059  -0.607 -14.805  0.00  0.00     0.214 C 
BRANCH   5   6
HETATM    6  C           1     -35.908  -0.963 -16.263  0.00  0.00     0.199 C 
HETATM    7  O           1     -36.860  -0.779 -17.054  0.00  0.00    -0.646 OA
HETATM    8  O           1     -34.831  -1.440 -16.682  0.00  0.00    -0.646 OA
ENDBRANCH   5   6
BRANCH   5   9
HETATM    9  C           1     -35.928   0.900 -14.634  0.00  0.00     0.147 C 
HETATM   10  C           1     -34.559   1.229 -14.055  0.00  0.00     0.042 C 
BRANCH   9  11
HETATM   11  O           1     -36.071   1.526 -15.879  0.00  0.00    -0.393 OA
HETATM   12  H           1     -36.954   1.850 -15.923  0.00  0.00     0.210 HD
ENDBRANCH   9  11
ENDBRANCH   5   9
ENDBRANCH   2   5
BRANCH   3  13
HETATM   13  C           1     -34.210  -2.395 -11.965  0.00  0.00     0.311 C 
HETATM   14  N           1     -34.727  -2.843 -10.675  0.00  0.00     0.097 N 
HETATM   15  H           1     -33.962  -3.057 -10.033  0.00  0.00     0.317 HD
HETATM   16  C           1     -35.472  -4.063 -10.970  0.00  0.00     0.271 C 
HETATM   17  C           1     -34.608  -4.778 -11.993  0.00  0.00     0.033 C 
HETATM   18  C           1     -33.774  -3.682 -12.645  0.00  0.00     0.047 C 
ENDBRANCH   3  13
TORSDOF 5
ENDMDL
MODEL 5
REMARK VINA RESULT:      -5.5      1.542      2.614
REMARK  5 active torsions:
REMARK  status: ('A' for Active; 'I' for Inactive)
REMARK    1  A    between atoms: C_1  and  C_4 
REMARK    2  A    between atoms: C_4  and  C_17 
REMARK    3  A    between atoms: C_4  and  N_7 
REMARK       I    between atoms: N_7  and  C_8 
REMARK    4  A    between atoms: C_8  and  C_12 
REMARK    5  A    between atoms: O_16  and  C_17 
ROOT
HETATM    1  O           1     -20.087  -5.103  -9.540  0.00  0.00    -0.271 OA
HETATM    2  N           1     -22.020  -4.032  -9.225  0.00  0.00    -0.342 N 
HETATM    3  C           1     -20.764  -4.401  -8.828  0.00  0.00     0.251 C 
HETATM    4  H           1     -22.587  -3.443  -8.628  0.00  0.00     0.163 HD
ENDROOT
BRANCH   2   5
HETATM    5  C           1     -22.540  -4.483 -10.502  0.00  0.00     0.214 C 
BRANCH   5   6
HETATM    6  C           1     -22.083  -3.544 -11.590  0.00  0.00     0.199 C 
HETATM    7  O           1     -21.762  -3.995 -12.712  0.00  0.00    -0.646 OA
HETATM    8  O           1     -22.025  -2.314 -11.372  0.00  0.00    -0.646 OA
ENDBRANCH   5   6
BRANCH   5   9
HETATM    9  C           1     -24.062  -4.501 -10.453  0.00  0.00     0.147 C 
HETATM   10  C           1     -24.549  -3.489  -9.424  0.00  0.00     0.042 C 
BRANCH   9  11
HETATM   11  O           1     -24.574  -4.169 -11.714  0.00  0.00    -0.393 OA
HETATM   12  H           1     -25.468  -4.464 -11.733  0.00  0.00     0.210 HD
ENDBRANCH   9  11
ENDBRANCH   5   9
ENDBRANCH   2   5
BRANCH   3  13
HETATM   13  C           1     -20.223  -3.932  -7.499  0.00  0.00     0.311 C 
HETATM   14  N           1     -21.271  -3.929  -6.484  0.00  0.00     0.097 N 
HETATM   15  H           1     -20.993  -3.368  -5.678  0.00  0.00     0.317 HD
HETATM   16  C           1     -21.411  -5.326  -6.081  0.00  0.00     0.271 C 
HETATM   17  C           1     -19.980  -5.832  -6.027  0.00  0.00     0.033 C 
HETATM   18  C           1     -19.198  -4.913  -6.958  0.00  0.00     0.047 C 
ENDBRANCH   3  13
TORSDOF 5
ENDMDL
MODEL 6
REMARK VINA RESULT:      -5.5     13.013     14.426
REMARK  5 active torsions:
REMARK  status: ('A' for Active; 'I' for Inactive)
REMARK    1  A    between atoms: C_1  and  C_4 
REMARK    2  A    between atoms: C_4  and  C_17 
REMARK    3  A    between atoms: C_4  and  N_7 
REMARK       I    between atoms: N_7  and  C_8 
REMARK    4  A    between atoms: C_8  and  C_12 
REMARK    5  A    between atoms: O_16  and  C_17 
ROOT
HETATM    1  O           1     -36.779  -1.313 -12.036  0.00  0.00    -0.271 OA
HETATM    2  N           1     -34.914  -1.223 -13.260  0.00  0.00    -0.342 N 
HETATM    3  C           1     -35.607  -1.584 -12.136  0.00  0.00     0.251 C 
HETATM    4  H           1     -33.931  -1.450 -13.343  0.00  0.00     0.163 HD
ENDROOT
BRANCH   2   5
HETATM    5  C           1     -35.588  -0.516 -14.332  0.00  0.00     0.214 C 
BRANCH   5   6
HETATM    6  C           1     -35.674  -1.408 -15.545  0.00  0.00     0.199 C 
HETATM    7  O           1     -34.828  -2.313 -15.718  0.00  0.00    -0.646 OA
HETATM    8  O           1     -36.592  -1.245 -16.378  0.00  0.00    -0.646 OA
ENDBRANCH   5   6
BRANCH   5   9
HETATM    9  C           1     -34.805   0.742 -14.681  0.00  0.00     0.147 C 
HETATM   10  C           1     -35.668   1.656 -15.541  0.00  0.00     0.042 C 
BRANCH   9  11
HETATM   11  O           1     -34.447   1.412 -13.504  0.00  0.00    -0.393 OA
HETATM   12  H           1     -34.553   0.799 -12.797  0.00  0.00     0.210 HD
ENDBRANCH   9  11
ENDBRANCH   5   9
ENDBRANCH   2   5
BRANCH   3  13
HETATM   13  C           1     -34.905  -2.319 -11.020  0.00  0.00     0.311 C 
HETATM   14  N           1     -35.394  -3.690 -10.913  0.00  0.00     0.097 N 
HETATM   15  H           1     -35.136  -4.097 -10.013  0.00  0.00     0.317 HD
HETATM   16  C           1     -34.723  -4.416 -11.987  0.00  0.00     0.271 C 
HETATM   17  C           1     -33.308  -3.863 -11.969  0.00  0.00     0.033 C 
HETATM   18  C           1     -33.427  -2.485 -11.329  0.00  0.00     0.047 C 
ENDBRANCH   3  13
TORSDOF 5
ENDMDL
MODEL 7
REMARK VINA RESULT:      -5.3     12.330     14.404
REMARK  5 active torsions:
REMARK  status: ('A' for Active; 'I' for Inactive)
REMARK    1  A    between atoms: C_1  and  C_4 
REMARK    2  A    between atoms: C_4  and  C_17 
REMARK    3  A    between atoms: C_4  and  N_7 
REMARK       I    between atoms: N_7  and  C_8 
REMARK    4  A    between atoms: C_8  and  C_12 
REMARK    5  A    between atoms: O_16  and  C_17 
ROOT
HETATM    1  O           1     -35.566  -2.163 -11.569  0.00  0.00    -0.271 OA
HETATM    2  N           1     -35.067  -1.666 -13.688  0.00  0.00    -0.342 N 
HETATM    3  C           1     -35.140  -2.538 -12.635  0.00  0.00     0.251 C 
HETATM    4  H           1     -34.709  -1.981 -14.581  0.00  0.00     0.163 HD
ENDROOT
BRANCH   2   5
HETATM    5  C           1     -35.502  -0.293 -13.524  0.00  0.00     0.214 C 
BRANCH   5   6
HETATM    6  C           1     -36.997  -0.259 -13.333  0.00  0.00     0.199 C 
HETATM    7  O           1     -37.490   0.340 -12.352  0.00  0.00    -0.646 OA
HETATM    8  O           1     -37.746  -0.829 -14.157  0.00  0.00    -0.646 OA
ENDBRANCH   5   6
BRANCH   5   9
HETATM    9  C           1     -35.130   0.509 -14.765  0.00  0.00     0.147 C 
HETATM   10  C           1     -35.149  -0.404 -15.983  0.00  0.00     0.042 C 
BRANCH   9  11
HETATM   11  O           1     -36.053   1.547 -14.944  0.00  0.00    -0.393 OA
HETATM   12  H           1     -36.649   1.513 -14.216  0.00  0.00     0.210 HD
ENDBRANCH   9  11
ENDBRANCH   5   9
ENDBRANCH   2   5
BRANCH   3  13
HETATM   13  C           1     -34.686  -3.967 -12.805  0.00  0.00     0.311 C 
HETATM   14  N           1     -33.242  -4.034 -13.006  0.00  0.00     0.097 N 
HETATM   15  H           1     -32.971  -4.941 -13.387  0.00  0.00     0.317 HD
HETATM   16  C           1     -32.667  -3.873 -11.673  0.00  0.00     0.271 C 
HETATM   17  C           1     -33.583  -4.694 -10.782  0.00  0.00     0.033 C 
HETATM   18  C           1     -34.910  -4.759 -11.528  0.00  0.00     0.047 C 
ENDBRANCH   3  13
TORSDOF 5
ENDMDL
MODEL 8
REMARK VINA RESULT:      -5.2      1.644      2.165
REMARK  5 active torsions:
REMARK  status: ('A' for Active; 'I' for Inactive)
REMARK    1  A    between atoms: C_1  and  C_4 
REMARK    2  A    between atoms: C_4  and  C_17 
REMARK    3  A    between atoms: C_4  and  N_7 
REMARK       I    between atoms: N_7  and  C_8 
REMARK    4  A    between atoms: C_8  and  C_12 
REMARK    5  A    between atoms: O_16  and  C_17 
ROOT
HETATM    1  O           1     -20.576  -3.766  -9.160  0.00  0.00    -0.271 OA
HETATM    2  N           1     -22.753  -3.708  -8.670  0.00  0.00    -0.342 N 
HETATM    3  C           1     -21.437  -3.834  -8.316  0.00  0.00     0.251 C 
HETATM    4  H           1     -23.475  -3.766  -7.962  0.00  0.00     0.163 HD
ENDROOT
BRANCH   2   5
HETATM    5  C           1     -23.115  -3.492 -10.057  0.00  0.00     0.214 C 
BRANCH   5   6
HETATM    6  C           1     -24.576  -3.131 -10.145  0.00  0.00     0.199 C 
HETATM    7  O           1     -25.179  -2.710  -9.132  0.00  0.00    -0.646 OA
HETATM    8  O           1     -25.186  -3.249 -11.230  0.00  0.00    -0.646 OA
ENDBRANCH   5   6
BRANCH   5   9
HETATM    9  C           1     -22.858  -4.765 -10.853  0.00  0.00     0.147 C 
HETATM   10  C           1     -23.902  -5.812 -10.488  0.00  0.00     0.042 C 
BRANCH   9  11
HETATM   11  O           1     -22.938  -4.484 -12.223  0.00  0.00    -0.393 OA
HETATM   12  H           1     -23.818  -4.681 -12.492  0.00  0.00     0.210 HD
ENDBRANCH   9  11
ENDBRANCH   5   9
ENDBRANCH   2   5
BRANCH   3  13
HETATM   13  C           1     -21.061  -4.060  -6.872  0.00  0.00     0.311 C 
HETATM   14  N           1     -21.857  -5.136  -6.290  0.00  0.00     0.097 N 
HETATM   15  H           1     -21.809  -5.112  -5.271  0.00  0.00     0.317 HD
HETATM   16  C           1     -21.242  -6.368  -6.778  0.00  0.00     0.271 C 
HETATM   17  C           1     -19.752  -6.084  -6.701  0.00  0.00     0.033 C 
HETATM   18  C           1     -19.633  -4.565  -6.759  0.00  0.00     0.047 C 
ENDBRANCH   3  13
TORSDOF 5
ENDMDL
MODEL 9
REMARK VINA RESULT:      -4.8      5.840      7.835
REMARK  5 active torsions:
REMARK  status: ('A' for Active; 'I' for Inactive)
REMARK    1  A    between atoms: C_1  and  C_4 
REMARK    2  A    between atoms: C_4  and  C_17 
REMARK    3  A    between atoms: C_4  and  N_7 
REMARK       I    between atoms: N_7  and  C_8 
REMARK    4  A    between atoms: C_8  and  C_12 
REMARK    5  A    between atoms: O_16  and  C_17 
ROOT
HETATM    1  O           1     -22.391 -10.465  -2.553  0.00  0.00    -0.271 OA
HETATM    2  N           1     -21.113  -8.716  -3.093  0.00  0.00    -0.342 N 
HETATM    3  C           1     -21.669  -9.572  -2.181  0.00  0.00     0.251 C 
HETATM    4  H           1     -20.508  -7.967  -2.781  0.00  0.00     0.163 HD
ENDROOT
BRANCH   2   5
HETATM    5  C           1     -21.392  -8.881  -4.506  0.00  0.00     0.214 C 
BRANCH   5   6
HETATM    6  C           1     -20.179  -9.458  -5.192  0.00  0.00     0.199 C 
HETATM    7  O           1     -20.314 -10.358  -6.051  0.00  0.00    -0.646 OA
HETATM    8  O           1     -19.037  -9.036  -4.905  0.00  0.00    -0.646 OA
ENDBRANCH   5   6
BRANCH   5   9
HETATM    9  C           1     -21.726  -7.528  -5.120  0.00  0.00     0.147 C 
HETATM   10  C           1     -21.383  -6.423  -4.130  0.00  0.00     0.042 C 
BRANCH   9  11
HETATM   11  O           1     -20.983  -7.350  -6.294  0.00  0.00    -0.393 OA
HETATM   12  H           1     -20.349  -8.046  -6.324  0.00  0.00     0.210 HD
ENDBRANCH   9  11
ENDBRANCH   5   9
ENDBRANCH   2   5
BRANCH   3  13
HETATM   13  C           1     -21.380  -9.399  -0.709  0.00  0.00     0.311 C 
HETATM   14  N           1     -21.039  -8.013  -0.406  0.00  0.00     0.097 N 
HETATM   15  H           1     -20.586  -7.943   0.506  0.00  0.00     0.317 HD
HETATM   16  C           1     -22.317  -7.308  -0.370  0.00  0.00     0.271 C 
HETATM   17  C           1     -23.247  -8.279   0.338  0.00  0.00     0.033 C 
HETATM   18  C           1     -22.628  -9.654   0.119  0.00  0.00     0.047 C 
ENDBRANCH   3  13
TORSDOF 5
ENDMDL
