MODEL 1
REMARK VINA RESULT:      -6.8      0.000      0.000
REMARK  9 active torsions:
REMARK  status: ('A' for Active; 'I' for Inactive)
REMARK    1  A    between atoms: N_1  and  C_20 
REMARK       I    between atoms: N_1  and  C_19 
REMARK    2  A    between atoms: N_7  and  C_18 
REMARK    3  A    between atoms: C_10  and  C_11 
REMARK       I    between atoms: C_10  and  N_16 
REMARK    4  A    between atoms: C_11  and  C_17 
REMARK       I    between atoms: C_12  and  N_15 
REMARK    5  A    between atoms: C_12  and  C_14 
REMARK    6  A    between atoms: C_14  and  C_20 
REMARK    7  A    between atoms: C_17  and  C_18 
REMARK    8  A    between atoms: C_18  and  C_19 
REMARK    9  A    between atoms: C_20  and  C_21 
ROOT
HETATM    1  N           1     -27.392  -7.103 -19.176  0.00  0.00    -0.344 N 
HETATM    2  O           1     -28.523  -5.177 -19.171  0.00  0.00    -0.271 OA
HETATM    3  C           1     -28.247  -6.204 -18.598  0.00  0.00     0.249 C 
HETATM    4  H           1     -27.160  -7.962 -18.695  0.00  0.00     0.163 HD
ENDROOT
BRANCH   3   5
HETATM    5  C           1     -28.846  -6.495 -17.243  0.00  0.00     0.275 C 
BRANCH   5   6
HETATM    6  N           1     -27.809  -7.132 -16.367  0.00  0.00    -0.066 N 
HETATM    7  H           1     -28.078  -8.124 -16.171  0.00  0.00     0.275 HD
HETATM    8  H           1     -26.883  -7.112 -16.851  0.00  0.00     0.275 HD
HETATM    9  H           1     -27.743  -6.606 -15.466  0.00  0.00     0.275 HD
ENDBRANCH   5   6
BRANCH   5  10
HETATM   10  C           1     -29.319  -5.195 -16.606  0.00  0.00     0.052 C 
BRANCH  10  11
HETATM   11  C           1     -30.814  -5.026 -16.847  0.00  0.00     0.105 C 
BRANCH  11  12
HETATM   12  C           1     -31.081  -3.653 -17.411  0.00  0.00     0.215 C 
HETATM   13  O           1     -32.216  -3.246 -17.501  0.00  0.00    -0.274 OA
HETATM   14  N           1     -30.039  -2.866 -17.821  0.00  0.00    -0.370 N 
HETATM   15  H           1     -30.218  -1.945 -18.200  0.00  0.00     0.159 HD
HETATM   16  H           1     -29.089  -3.206 -17.746  0.00  0.00     0.159 HD
ENDBRANCH  11  12
ENDBRANCH  10  11
ENDBRANCH   5  10
ENDBRANCH   3   5
BRANCH   1  17
HETATM   17  C           1     -26.817  -6.823 -20.478  0.00  0.00     0.194 C 
BRANCH  17  18
HETATM   18  C           1     -25.450  -6.174 -20.299  0.00  0.00     0.138 C 
BRANCH  18  19
HETATM   19  C           1     -24.713  -6.854 -19.172  0.00  0.00     0.217 C 
HETATM   20  O           1     -24.972  -6.573 -18.025  0.00  0.00    -0.274 OA
HETATM   21  N           1     -23.751  -7.788 -19.447  0.00  0.00    -0.370 N 
HETATM   22  H           1     -23.257  -8.244 -18.690  0.00  0.00     0.159 HD
HETATM   23  H           1     -23.534  -8.023 -20.407  0.00  0.00     0.159 HD
ENDBRANCH  18  19
ENDBRANCH  17  18
BRANCH  17  24
HETATM   24  C           1     -26.666  -8.112 -21.248  0.00  0.00     0.197 C 
HETATM   25  O           1     -25.567  -8.406 -21.765  0.00  0.00    -0.646 OA
HETATM   26  O           1     -27.641  -8.885 -21.368  0.00  0.00    -0.646 OA
ENDBRANCH  17  24
ENDBRANCH   1  17
TORSDOF 9
ENDMDL
MODEL 2
REMARK VINA RESULT:      -6.6      2.124      5.926
REMARK  9 active torsions:
REMARK  status: ('A' for Active; 'I' for Inactive)
REMARK    1  A    between atoms: N_1  and  C_20 
REMARK       I    between atoms: N_1  and  C_19 
REMARK    2  A    between atoms: N_7  and  C_18 
REMARK    3  A    between atoms: C_10  and  C_11 
REMARK       I    between atoms: C_10  and  N_16 
REMARK    4  A    between atoms: C_11  and  C_17 
REMARK       I    between atoms: C_12  and  N_15 
REMARK    5  A    between atoms: C_12  and  C_14 
REMARK    6  A    between atoms: C_14  and  C_20 
REMARK    7  A    between atoms: C_17  and  C_18 
REMARK    8  A    between atoms: C_18  and  C_19 
REMARK    9  A    between atoms: C_20  and  C_21 
ROOT
HETATM    1  N           1     -27.617  -6.542 -17.099  0.00  0.00    -0.344 N 
HETATM    2  O           1     -26.525  -7.361 -15.332  0.00  0.00    -0.271 OA
HETATM    3  C           1     -26.468  -6.907 -16.450  0.00  0.00     0.249 C 
HETATM    4  H           1     -27.570  -6.160 -18.035  0.00  0.00     0.163 HD
ENDROOT
BRANCH   3   5
HETATM    5  C           1     -25.131  -6.741 -17.130  0.00  0.00     0.275 C 
BRANCH   5   6
HETATM    6  N           1     -24.211  -7.843 -16.696  0.00  0.00    -0.066 N 
HETATM    7  H           1     -24.712  -8.474 -16.029  0.00  0.00     0.275 HD
HETATM    8  H           1     -23.906  -8.391 -17.531  0.00  0.00     0.275 HD
HETATM    9  H           1     -23.374  -7.432 -16.223  0.00  0.00     0.275 HD
ENDBRANCH   5   6
BRANCH   5  10
HETATM   10  C           1     -25.319  -6.801 -18.640  0.00  0.00     0.052 C 
BRANCH  10  11
HETATM   11  C           1     -23.995  -7.160 -19.303  0.00  0.00     0.105 C 
BRANCH  11  12
HETATM   12  C           1     -24.258  -7.988 -20.536  0.00  0.00     0.215 C 
HETATM   13  O           1     -25.357  -7.994 -21.038  0.00  0.00    -0.274 OA
HETATM   14  N           1     -23.251  -8.732 -21.088  0.00  0.00    -0.370 N 
HETATM   15  H           1     -23.427  -9.288 -21.916  0.00  0.00     0.159 HD
HETATM   16  H           1     -22.330  -8.728 -20.669  0.00  0.00     0.159 HD
ENDBRANCH  11  12
ENDBRANCH  10  11
ENDBRANCH   5  10
ENDBRANCH   3   5
BRANCH   1  17
HETATM   17  C           1     -28.902  -6.701 -16.446  0.00  0.00     0.194 C 
BRANCH  17  18
HETATM   18  C           1     -29.411  -5.340 -15.990  0.00  0.00     0.138 C 
BRANCH  18  19
HETATM   19  C           1     -28.901  -4.272 -16.925  0.00  0.00     0.217 C 
HETATM   20  O           1     -27.850  -3.722 -16.697  0.00  0.00    -0.274 OA
HETATM   21  N           1     -29.629  -3.925 -18.031  0.00  0.00    -0.370 N 
HETATM   22  H           1     -29.287  -3.208 -18.658  0.00  0.00     0.159 HD
HETATM   23  H           1     -30.510  -4.386 -18.221  0.00  0.00     0.159 HD
ENDBRANCH  18  19
ENDBRANCH  17  18
BRANCH  17  24
HETATM   24  C           1     -29.886  -7.308 -17.416  0.00  0.00     0.197 C 
HETATM   25  O           1     -29.547  -8.280 -18.124  0.00  0.00    -0.646 OA
HETATM   26  O           1     -31.041  -6.838 -17.510  0.00  0.00    -0.646 OA
ENDBRANCH  17  24
ENDBRANCH   1  17
TORSDOF 9
ENDMDL
MODEL 3
REMARK VINA RESULT:      -6.3     11.707     13.341
REMARK  9 active torsions:
REMARK  status: ('A' for Active; 'I' for Inactive)
REMARK    1  A    between atoms: N_1  and  C_20 
REMARK       I    between atoms: N_1  and  C_19 
REMARK    2  A    between atoms: N_7  and  C_18 
REMARK    3  A    between atoms: C_10  and  C_11 
REMARK       I    between atoms: C_10  and  N_16 
REMARK    4  A    between atoms: C_11  and  C_17 
REMARK       I    between atoms: C_12  and  N_15 
REMARK    5  A    between atoms: C_12  and  C_14 
REMARK    6  A    between atoms: C_14  and  C_20 
REMARK    7  A    between atoms: C_17  and  C_18 
REMARK    8  A    between atoms: C_18  and  C_19 
REMARK    9  A    between atoms: C_20  and  C_21 
ROOT
HETATM    1  N           1     -22.288  -4.991  -8.868  0.00  0.00    -0.344 N 
HETATM    2  O           1     -21.582  -3.648  -7.230  0.00  0.00    -0.271 OA
HETATM    3  C           1     -21.699  -4.774  -7.651  0.00  0.00     0.249 C 
HETATM    4  H           1     -22.386  -5.935  -9.221  0.00  0.00     0.163 HD
ENDROOT
BRANCH   3   5
HETATM    5  C           1     -21.196  -5.941  -6.836  0.00  0.00     0.275 C 
BRANCH   5   6
HETATM    6  N           1     -19.781  -6.249  -7.227  0.00  0.00    -0.066 N 
HETATM    7  H           1     -19.775  -7.009  -7.945  0.00  0.00     0.275 HD
HETATM    8  H           1     -19.335  -5.391  -7.623  0.00  0.00     0.275 HD
HETATM    9  H           1     -19.248  -6.563  -6.385  0.00  0.00     0.275 HD
ENDBRANCH   5   6
BRANCH   5  10
HETATM   10  C           1     -21.248  -5.587  -5.356  0.00  0.00     0.052 C 
BRANCH  10  11
HETATM   11  C           1     -22.191  -6.544  -4.636  0.00  0.00     0.105 C 
BRANCH  11  12
HETATM   12  C           1     -21.830  -6.600  -3.173  0.00  0.00     0.215 C 
HETATM   13  O           1     -22.400  -5.886  -2.382  0.00  0.00    -0.274 OA
HETATM   14  N           1     -20.858  -7.461  -2.740  0.00  0.00    -0.370 N 
HETATM   15  H           1     -20.616  -7.498  -1.757  0.00  0.00     0.159 HD
HETATM   16  H           1     -20.380  -8.059  -3.402  0.00  0.00     0.159 HD
ENDBRANCH  11  12
ENDBRANCH  10  11
ENDBRANCH   5  10
ENDBRANCH   3   5
BRANCH   1  17
HETATM   17  C           1     -22.771  -3.871  -9.651  0.00  0.00     0.194 C 
BRANCH  17  18
HETATM   18  C           1     -22.254  -3.989 -11.078  0.00  0.00     0.138 C 
BRANCH  18  19
HETATM   19  C           1     -20.754  -3.829 -11.086  0.00  0.00     0.217 C 
HETATM   20  O           1     -20.046  -4.755 -10.767  0.00  0.00    -0.274 OA
HETATM   21  N           1     -20.194  -2.636 -11.454  0.00  0.00    -0.370 N 
HETATM   22  H           1     -19.188  -2.528 -11.459  0.00  0.00     0.159 HD
HETATM   23  H           1     -20.787  -1.860 -11.721  0.00  0.00     0.159 HD
ENDBRANCH  18  19
ENDBRANCH  17  18
BRANCH  17  24
HETATM   24  C           1     -24.280  -3.878  -9.659  0.00  0.00     0.197 C 
HETATM   25  O           1     -24.899  -4.951  -9.823  0.00  0.00    -0.646 OA
HETATM   26  O           1     -24.911  -2.810  -9.503  0.00  0.00    -0.646 OA
ENDBRANCH  17  24
ENDBRANCH   1  17
TORSDOF 9
ENDMDL
MODEL 4
REMARK VINA RESULT:      -6.1      4.766      9.252
REMARK  9 active torsions:
REMARK  status: ('A' for Active; 'I' for Inactive)
REMARK    1  A    between atoms: N_1  and  C_20 
REMARK       I    between atoms: N_1  and  C_19 
REMARK    2  A    between atoms: N_7  and  C_18 
REMARK    3  A    between atoms: C_10  and  C_11 
REMARK       I    between atoms: C_10  and  N_16 
REMARK    4  A    between atoms: C_11  and  C_17 
REMARK       I    between atoms: C_12  and  N_15 
REMARK    5  A    between atoms: C_12  and  C_14 
REMARK    6  A    between atoms: C_14  and  C_20 
REMARK    7  A    between atoms: C_17  and  C_18 
REMARK    8  A    between atoms: C_18  and  C_19 
REMARK    9  A    between atoms: C_20  and  C_21 
ROOT
HETATM    1  N           1     -33.347  -4.018 -14.284  0.00  0.00    -0.344 N 
HETATM    2  O           1     -34.990  -4.843 -15.551  0.00  0.00    -0.271 OA
HETATM    3  C           1     -33.845  -4.467 -15.478  0.00  0.00     0.249 C 
HETATM    4  H           1     -32.387  -3.704 -14.223  0.00  0.00     0.163 HD
ENDROOT
BRANCH   3   5
HETATM    5  C           1     -32.963  -4.492 -16.702  0.00  0.00     0.275 C 
BRANCH   5   6
HETATM    6  N           1     -33.117  -3.204 -17.455  0.00  0.00    -0.066 N 
HETATM    7  H           1     -34.057  -2.792 -17.252  0.00  0.00     0.275 HD
HETATM    8  H           1     -32.372  -2.535 -17.158  0.00  0.00     0.275 HD
HETATM    9  H           1     -33.033  -3.387 -18.480  0.00  0.00     0.275 HD
ENDBRANCH   5   6
BRANCH   5  10
HETATM   10  C           1     -31.510  -4.661 -16.278  0.00  0.00     0.052 C 
BRANCH  10  11
HETATM   11  C           1     -30.620  -4.700 -17.514  0.00  0.00     0.105 C 
BRANCH  11  12
HETATM   12  C           1     -29.475  -3.733 -17.342  0.00  0.00     0.215 C 
HETATM   13  O           1     -28.380  -4.141 -17.033  0.00  0.00    -0.274 OA
HETATM   14  N           1     -29.676  -2.393 -17.534  0.00  0.00    -0.370 N 
HETATM   15  H           1     -28.907  -1.744 -17.418  0.00  0.00     0.159 HD
HETATM   16  H           1     -30.592  -2.050 -17.793  0.00  0.00     0.159 HD
ENDBRANCH  11  12
ENDBRANCH  10  11
ENDBRANCH   5  10
ENDBRANCH   3   5
BRANCH   1  17
HETATM   17  C           1     -34.194  -3.993 -13.108  0.00  0.00     0.194 C 
BRANCH  17  18
HETATM   18  C           1     -33.437  -4.584 -11.925  0.00  0.00     0.138 C 
BRANCH  18  19
HETATM   19  C           1     -34.220  -5.739 -11.351  0.00  0.00     0.217 C 
HETATM   20  O           1     -34.187  -5.960 -10.164  0.00  0.00    -0.274 OA
HETATM   21  N           1     -34.968  -6.536 -12.175  0.00  0.00    -0.370 N 
HETATM   22  H           1     -35.494  -7.310 -11.790  0.00  0.00     0.159 HD
HETATM   23  H           1     -34.996  -6.350 -13.169  0.00  0.00     0.159 HD
ENDBRANCH  18  19
ENDBRANCH  17  18
BRANCH  17  24
HETATM   24  C           1     -34.580  -2.568 -12.797  0.00  0.00     0.197 C 
HETATM   25  O           1     -34.441  -2.122 -11.638  0.00  0.00    -0.646 OA
HETATM   26  O           1     -35.040  -1.835 -13.699  0.00  0.00    -0.646 OA
ENDBRANCH  17  24
ENDBRANCH   1  17
TORSDOF 9
ENDMDL
MODEL 5
REMARK VINA RESULT:      -6.0     11.283     13.055
REMARK  9 active torsions:
REMARK  status: ('A' for Active; 'I' for Inactive)
REMARK    1  A    between atoms: N_1  and  C_20 
REMARK       I    between atoms: N_1  and  C_19 
REMARK    2  A    between atoms: N_7  and  C_18 
REMARK    3  A    between atoms: C_10  and  C_11 
REMARK       I    between atoms: C_10  and  N_16 
REMARK    4  A    between atoms: C_11  and  C_17 
REMARK       I    between atoms: C_12  and  N_15 
REMARK    5  A    between atoms: C_12  and  C_14 
REMARK    6  A    between atoms: C_14  and  C_20 
REMARK    7  A    between atoms: C_17  and  C_18 
REMARK    8  A    between atoms: C_18  and  C_19 
REMARK    9  A    between atoms: C_20  and  C_21 
ROOT
HETATM    1  N           1     -20.892  -4.411  -9.280  0.00  0.00    -0.344 N 
HETATM    2  O           1     -22.237  -5.473  -7.849  0.00  0.00    -0.271 OA
HETATM    3  C           1     -21.128  -5.068  -8.102  0.00  0.00     0.249 C 
HETATM    4  H           1     -19.963  -4.071  -9.492  0.00  0.00     0.163 HD
ENDROOT
BRANCH   3   5
HETATM    5  C           1     -20.002  -5.286  -7.121  0.00  0.00     0.275 C 
BRANCH   5   6
HETATM    6  N           1     -18.848  -4.397  -7.481  0.00  0.00    -0.066 N 
HETATM    7  H           1     -19.181  -3.410  -7.564  0.00  0.00     0.275 HD
HETATM    8  H           1     -18.117  -4.457  -6.736  0.00  0.00     0.275 HD
HETATM    9  H           1     -18.443  -4.706  -8.393  0.00  0.00     0.275 HD
ENDBRANCH   5   6
BRANCH   5  10
HETATM   10  C           1     -20.482  -4.950  -5.715  0.00  0.00     0.052 C 
BRANCH  10  11
HETATM   11  C           1     -20.629  -6.233  -4.907  0.00  0.00     0.105 C 
BRANCH  11  12
HETATM   12  C           1     -21.971  -6.243  -4.218  0.00  0.00     0.215 C 
HETATM   13  O           1     -22.984  -6.350  -4.869  0.00  0.00    -0.274 OA
HETATM   14  N           1     -22.042  -6.132  -2.856  0.00  0.00    -0.370 N 
HETATM   15  H           1     -22.943  -6.138  -2.393  0.00  0.00     0.159 HD
HETATM   16  H           1     -21.194  -6.042  -2.311  0.00  0.00     0.159 HD
ENDBRANCH  11  12
ENDBRANCH  10  11
ENDBRANCH   5  10
ENDBRANCH   3   5
BRANCH   1  17
HETATM   17  C           1     -21.973  -4.202 -10.223  0.00  0.00     0.194 C 
BRANCH  17  18
HETATM   18  C           1     -23.015  -3.279  -9.604  0.00  0.00     0.138 C 
BRANCH  18  19
HETATM   19  C           1     -24.393  -3.709 -10.042  0.00  0.00     0.217 C 
HETATM   20  O           1     -24.964  -3.104 -10.918  0.00  0.00    -0.274 OA
HETATM   21  N           1     -24.996  -4.784  -9.448  0.00  0.00    -0.370 N 
HETATM   22  H           1     -25.921  -5.073  -9.742  0.00  0.00     0.159 HD
HETATM   23  H           1     -24.517  -5.291  -8.714  0.00  0.00     0.159 HD
ENDBRANCH  18  19
ENDBRANCH  17  18
BRANCH  17  24
HETATM   24  C           1     -21.427  -3.573 -11.482  0.00  0.00     0.197 C 
HETATM   25  O           1     -21.966  -3.810 -12.584  0.00  0.00    -0.646 OA
HETATM   26  O           1     -20.435  -2.814 -11.421  0.00  0.00    -0.646 OA
ENDBRANCH  17  24
ENDBRANCH   1  17
TORSDOF 9
ENDMDL
MODEL 6
REMARK VINA RESULT:      -6.0     13.572     15.301
REMARK  9 active torsions:
REMARK  status: ('A' for Active; 'I' for Inactive)
REMARK    1  A    between atoms: N_1  and  C_20 
REMARK       I    between atoms: N_1  and  C_19 
REMARK    2  A    between atoms: N_7  and  C_18 
REMARK    3  A    between atoms: C_10  and  C_11 
REMARK       I    between atoms: C_10  and  N_16 
REMARK    4  A    between atoms: C_11  and  C_17 
REMARK       I    between atoms: C_12  and  N_15 
REMARK    5  A    between atoms: C_12  and  C_14 
REMARK    6  A    between atoms: C_14  and  C_20 
REMARK    7  A    between atoms: C_17  and  C_18 
REMARK    8  A    between atoms: C_18  and  C_19 
REMARK    9  A    between atoms: C_20  and  C_21 
ROOT
HETATM    1  N           1     -20.873  -6.657  -4.852  0.00  0.00    -0.344 N 
HETATM    2  O           1     -22.592  -5.542  -5.741  0.00  0.00    -0.271 OA
HETATM    3  C           1     -21.399  -5.731  -5.714  0.00  0.00     0.249 C 
HETATM    4  H           1     -19.874  -6.816  -4.830  0.00  0.00     0.163 HD
ENDROOT
BRANCH   3   5
HETATM    5  C           1     -20.489  -4.949  -6.629  0.00  0.00     0.275 C 
BRANCH   5   6
HETATM    6  N           1     -20.015  -5.839  -7.739  0.00  0.00    -0.066 N 
HETATM    7  H           1     -20.022  -5.307  -8.640  0.00  0.00     0.275 HD
HETATM    8  H           1     -19.043  -6.163  -7.534  0.00  0.00     0.275 HD
HETATM    9  H           1     -20.649  -6.665  -7.819  0.00  0.00     0.275 HD
ENDBRANCH   5   6
BRANCH   5  10
HETATM   10  C           1     -21.252  -3.768  -7.215  0.00  0.00     0.052 C 
BRANCH  10  11
HETATM   11  C           1     -21.478  -3.997  -8.704  0.00  0.00     0.105 C 
BRANCH  11  12
HETATM   12  C           1     -22.942  -3.820  -9.024  0.00  0.00     0.215 C 
HETATM   13  O           1     -23.280  -3.469 -10.130  0.00  0.00    -0.274 OA
HETATM   14  N           1     -23.886  -4.058  -8.063  0.00  0.00    -0.370 N 
HETATM   15  H           1     -24.869  -3.938  -8.278  0.00  0.00     0.159 HD
HETATM   16  H           1     -23.603  -4.352  -7.137  0.00  0.00     0.159 HD
ENDBRANCH  11  12
ENDBRANCH  10  11
ENDBRANCH   5  10
ENDBRANCH   3   5
BRANCH   1  17
HETATM   17  C           1     -21.747  -7.409  -3.973  0.00  0.00     0.194 C 
BRANCH  17  18
HETATM   18  C           1     -21.346  -8.878  -3.995  0.00  0.00     0.138 C 
BRANCH  18  19
HETATM   19  C           1     -19.932  -9.007  -4.505  0.00  0.00     0.217 C 
HETATM   20  O           1     -19.722  -9.063  -5.693  0.00  0.00    -0.274 OA
HETATM   21  N           1     -18.888  -9.062  -3.623  0.00  0.00    -0.370 N 
HETATM   22  H           1     -17.939  -9.148  -3.965  0.00  0.00     0.159 HD
HETATM   23  H           1     -19.064  -9.015  -2.627  0.00  0.00     0.159 HD
ENDBRANCH  18  19
ENDBRANCH  17  18
BRANCH  17  24
HETATM   24  C           1     -21.625  -6.874  -2.567  0.00  0.00     0.197 C 
HETATM   25  O           1     -22.304  -5.887  -2.212  0.00  0.00    -0.646 OA
HETATM   26  O           1     -20.844  -7.420  -1.757  0.00  0.00    -0.646 OA
ENDBRANCH  17  24
ENDBRANCH   1  17
TORSDOF 9
ENDMDL
MODEL 7
REMARK VINA RESULT:      -5.6     12.978     14.676
REMARK  9 active torsions:
REMARK  status: ('A' for Active; 'I' for Inactive)
REMARK    1  A    between atoms: N_1  and  C_20 
REMARK       I    between atoms: N_1  and  C_19 
REMARK    2  A    between atoms: N_7  and  C_18 
REMARK    3  A    between atoms: C_10  and  C_11 
REMARK       I    between atoms: C_10  and  N_16 
REMARK    4  A    between atoms: C_11  and  C_17 
REMARK       I    between atoms: C_12  and  N_15 
REMARK    5  A    between atoms: C_12  and  C_14 
REMARK    6  A    between atoms: C_14  and  C_20 
REMARK    7  A    between atoms: C_17  and  C_18 
REMARK    8  A    between atoms: C_18  and  C_19 
REMARK    9  A    between atoms: C_20  and  C_21 
ROOT
HETATM    1  N           1     -20.919  -6.334  -6.149  0.00  0.00    -0.344 N 
HETATM    2  O           1     -20.194  -4.373  -5.364  0.00  0.00    -0.271 OA
HETATM    3  C           1     -20.662  -4.996  -6.287  0.00  0.00     0.249 C 
HETATM    4  H           1     -21.312  -6.856  -6.922  0.00  0.00     0.163 HD
ENDROOT
BRANCH   3   5
HETATM    5  C           1     -20.963  -4.300  -7.592  0.00  0.00     0.275 C 
BRANCH   5   6
HETATM    6  N           1     -20.252  -5.005  -8.709  0.00  0.00    -0.066 N 
HETATM    7  H           1     -19.654  -5.768  -8.315  0.00  0.00     0.275 HD
HETATM    8  H           1     -20.954  -5.416  -9.364  0.00  0.00     0.275 HD
HETATM    9  H           1     -19.650  -4.324  -9.224  0.00  0.00     0.275 HD
ENDBRANCH   5   6
BRANCH   5  10
HETATM   10  C           1     -22.464  -4.328  -7.848  0.00  0.00     0.052 C 
BRANCH  10  11
HETATM   11  C           1     -22.764  -3.662  -9.185  0.00  0.00     0.105 C 
BRANCH  11  12
HETATM   12  C           1     -23.990  -4.292  -9.798  0.00  0.00     0.215 C 
HETATM   13  O           1     -23.882  -5.274 -10.493  0.00  0.00    -0.274 OA
HETATM   14  N           1     -25.226  -3.751  -9.566  0.00  0.00    -0.370 N 
HETATM   15  H           1     -26.049  -4.174  -9.977  0.00  0.00     0.159 HD
HETATM   16  H           1     -25.317  -2.929  -8.983  0.00  0.00     0.159 HD
ENDBRANCH  11  12
ENDBRANCH  10  11
ENDBRANCH   5  10
ENDBRANCH   3   5
BRANCH   1  17
HETATM   17  C           1     -20.630  -7.003  -4.896  0.00  0.00     0.194 C 
BRANCH  17  18
HETATM   18  C           1     -21.923  -7.195  -4.114  0.00  0.00     0.138 C 
BRANCH  18  19
HETATM   19  C           1     -21.705  -6.797  -2.675  0.00  0.00     0.217 C 
HETATM   20  O           1     -22.263  -5.823  -2.227  0.00  0.00    -0.274 OA
HETATM   21  N           1     -20.877  -7.538  -1.877  0.00  0.00    -0.370 N 
HETATM   22  H           1     -20.731  -7.270  -0.911  0.00  0.00     0.159 HD
HETATM   23  H           1     -20.410  -8.353  -2.252  0.00  0.00     0.159 HD
ENDBRANCH  18  19
ENDBRANCH  17  18
BRANCH  17  24
HETATM   24  C           1     -20.006  -8.348  -5.176  0.00  0.00     0.197 C 
HETATM   25  O           1     -19.119  -8.455  -6.050  0.00  0.00    -0.646 OA
HETATM   26  O           1     -20.378  -9.355  -4.535  0.00  0.00    -0.646 OA
ENDBRANCH  17  24
ENDBRANCH   1  17
TORSDOF 9
ENDMDL
MODEL 8
REMARK VINA RESULT:      -5.5     14.590     16.423
REMARK  9 active torsions:
REMARK  status: ('A' for Active; 'I' for Inactive)
REMARK    1  A    between atoms: N_1  and  C_20 
REMARK       I    between atoms: N_1  and  C_19 
REMARK    2  A    between atoms: N_7  and  C_18 
REMARK    3  A    between atoms: C_10  and  C_11 
REMARK       I    between atoms: C_10  and  N_16 
REMARK    4  A    between atoms: C_11  and  C_17 
REMARK       I    between atoms: C_12  and  N_15 
REMARK    5  A    between atoms: C_12  and  C_14 
REMARK    6  A    between atoms: C_14  and  C_20 
REMARK    7  A    between atoms: C_17  and  C_18 
REMARK    8  A    between atoms: C_18  and  C_19 
REMARK    9  A    between atoms: C_20  and  C_21 
ROOT
HETATM    1  N           1     -20.938  -5.396  -4.935  0.00  0.00    -0.344 N 
HETATM    2  O           1     -22.081  -7.312  -4.821  0.00  0.00    -0.271 OA
HETATM    3  C           1     -21.473  -6.446  -4.237  0.00  0.00     0.249 C 
HETATM    4  H           1     -20.430  -4.671  -4.447  0.00  0.00     0.163 HD
ENDROOT
BRANCH   3   5
HETATM    5  C           1     -21.303  -6.522  -2.740  0.00  0.00     0.275 C 
BRANCH   5   6
HETATM    6  N           1     -22.391  -5.732  -2.074  0.00  0.00    -0.066 N 
HETATM    7  H           1     -23.288  -5.865  -2.595  0.00  0.00     0.275 HD
HETATM    8  H           1     -22.507  -6.061  -1.089  0.00  0.00     0.275 HD
HETATM    9  H           1     -22.136  -4.718  -2.076  0.00  0.00     0.275 HD
ENDBRANCH   5   6
BRANCH   5  10
HETATM   10  C           1     -21.384  -7.975  -2.292  0.00  0.00     0.052 C 
BRANCH  10  11
HETATM   11  C           1     -22.056  -8.050  -0.926  0.00  0.00     0.105 C 
BRANCH  11  12
HETATM   12  C           1     -21.230  -8.912  -0.005  0.00  0.00     0.215 C 
HETATM   13  O           1     -20.640  -9.871  -0.443  0.00  0.00    -0.274 OA
HETATM   14  N           1     -21.149  -8.609   1.327  0.00  0.00    -0.370 N 
HETATM   15  H           1     -20.595  -9.188   1.946  0.00  0.00     0.159 HD
HETATM   16  H           1     -21.644  -7.806   1.694  0.00  0.00     0.159 HD
ENDBRANCH  11  12
ENDBRANCH  10  11
ENDBRANCH   5  10
ENDBRANCH   3   5
BRANCH   1  17
HETATM   17  C           1     -21.101  -5.323  -6.374  0.00  0.00     0.194 C 
BRANCH  17  18
HETATM   18  C           1     -21.493  -3.906  -6.769  0.00  0.00     0.138 C 
BRANCH  18  19
HETATM   19  C           1     -22.429  -3.952  -7.952  0.00  0.00     0.217 C 
HETATM   20  O           1     -22.004  -3.757  -9.066  0.00  0.00    -0.274 OA
HETATM   21  N           1     -23.758  -4.214  -7.762  0.00  0.00    -0.370 N 
HETATM   22  H           1     -24.386  -4.245  -8.556  0.00  0.00     0.159 HD
HETATM   23  H           1     -24.114  -4.377  -6.829  0.00  0.00     0.159 HD
ENDBRANCH  18  19
ENDBRANCH  17  18
BRANCH  17  24
HETATM   24  C           1     -19.802  -5.693  -7.046  0.00  0.00     0.197 C 
HETATM   25  O           1     -19.115  -4.812  -7.607  0.00  0.00    -0.646 OA
HETATM   26  O           1     -19.412  -6.881  -7.042  0.00  0.00    -0.646 OA
ENDBRANCH  17  24
ENDBRANCH   1  17
TORSDOF 9
ENDMDL
MODEL 9
REMARK VINA RESULT:      -5.5     12.192     14.178
REMARK  9 active torsions:
REMARK  status: ('A' for Active; 'I' for Inactive)
REMARK    1  A    between atoms: N_1  and  C_20 
REMARK       I    between atoms: N_1  and  C_19 
REMARK    2  A    between atoms: N_7  and  C_18 
REMARK    3  A    between atoms: C_10  and  C_11 
REMARK       I    between atoms: C_10  and  N_16 
REMARK    4  A    between atoms: C_11  and  C_17 
REMARK       I    between atoms: C_12  and  N_15 
REMARK    5  A    between atoms: C_12  and  C_14 
REMARK    6  A    between atoms: C_14  and  C_20 
REMARK    7  A    between atoms: C_17  and  C_18 
REMARK    8  A    between atoms: C_18  and  C_19 
REMARK    9  A    between atoms: C_20  and  C_21 
ROOT
HETATM    1  N           1     -21.721  -4.770  -6.979  0.00  0.00    -0.344 N 
HETATM    2  O           1     -21.082  -6.908  -7.069  0.00  0.00    -0.271 OA
HETATM    3  C           1     -21.340  -5.945  -6.387  0.00  0.00     0.249 C 
HETATM    4  H           1     -21.938  -3.963  -6.407  0.00  0.00     0.163 HD
ENDROOT
BRANCH   3   5
HETATM    5  C           1     -21.243  -6.037  -4.884  0.00  0.00     0.275 C 
BRANCH   5   6
HETATM    6  N           1     -22.621  -6.153  -4.302  0.00  0.00    -0.066 N 
HETATM    7  H           1     -23.051  -5.202  -4.231  0.00  0.00     0.275 HD
HETATM    8  H           1     -23.210  -6.757  -4.918  0.00  0.00     0.275 HD
HETATM    9  H           1     -22.561  -6.579  -3.349  0.00  0.00     0.275 HD
ENDBRANCH   5   6
BRANCH   5  10
HETATM   10  C           1     -20.425  -7.263  -4.502  0.00  0.00     0.052 C 
BRANCH  10  11
HETATM   11  C           1     -21.297  -8.229  -3.710  0.00  0.00     0.105 C 
BRANCH  11  12
HETATM   12  C           1     -21.450  -9.517  -4.481  0.00  0.00     0.215 C 
HETATM   13  O           1     -22.080 -10.433  -4.007  0.00  0.00    -0.274 OA
HETATM   14  N           1     -20.878  -9.647  -5.717  0.00  0.00    -0.370 N 
HETATM   15  H           1     -20.980 -10.511  -6.234  0.00  0.00     0.159 HD
HETATM   16  H           1     -20.350  -8.880  -6.113  0.00  0.00     0.159 HD
ENDBRANCH  11  12
ENDBRANCH  10  11
ENDBRANCH   5  10
ENDBRANCH   3   5
BRANCH   1  17
HETATM   17  C           1     -21.815  -4.682  -8.423  0.00  0.00     0.194 C 
BRANCH  17  18
HETATM   18  C           1     -22.867  -3.647  -8.801  0.00  0.00     0.138 C 
BRANCH  18  19
HETATM   19  C           1     -23.911  -4.289  -9.680  0.00  0.00     0.217 C 
HETATM   20  O           1     -23.610  -5.209 -10.402  0.00  0.00    -0.274 OA
HETATM   21  N           1     -25.200  -3.828  -9.661  0.00  0.00    -0.370 N 
HETATM   22  H           1     -25.901  -4.259 -10.251  0.00  0.00     0.159 HD
HETATM   23  H           1     -25.452  -3.057  -9.056  0.00  0.00     0.159 HD
ENDBRANCH  18  19
ENDBRANCH  17  18
BRANCH  17  24
HETATM   24  C           1     -20.478  -4.270  -8.988  0.00  0.00     0.197 C 
HETATM   25  O           1     -19.630  -3.722  -8.252  0.00  0.00    -0.646 OA
HETATM   26  O           1     -20.219  -4.477 -10.194  0.00  0.00    -0.646 OA
ENDBRANCH  17  24
ENDBRANCH   1  17
TORSDOF 9
ENDMDL
