MODEL 1
REMARK VINA RESULT:      -5.0      0.000      0.000
REMARK  6 active torsions:
REMARK  status: ('A' for Active; 'I' for Inactive)
REMARK    1  A    between atoms: C_1  and  C_10 
REMARK    2  A    between atoms: C_1  and  N_2 
REMARK    3  A    between atoms: C_6  and  C_7 
REMARK    4  A    between atoms: C_6  and  C_14 
REMARK    5  A    between atoms: C_6  and  N_11 
REMARK    6  A    between atoms: C_7  and  S_8 
REMARK       I    between atoms: C_10  and  N_11 
ROOT
HETATM    1  H           1     -27.208  -6.967 -18.700  0.00  0.00     0.163 HD
HETATM    2  C           1     -25.160  -6.857 -18.980  0.00  0.00     0.243 C 
HETATM    3  N           1     -26.331  -6.661 -18.298  0.00  0.00    -0.344 N 
HETATM    4  O           1     -24.113  -6.490 -18.500  0.00  0.00    -0.272 OA
ENDROOT
BRANCH   3   5
HETATM    5  C           1     -26.315  -6.012 -17.001  0.00  0.00     0.194 C 
BRANCH   5   6
HETATM    6  C           1     -27.556  -5.140 -16.856  0.00  0.00     0.106 C 
BRANCH   6   7
HETATM    7  S           1     -28.653  -5.408 -18.276  0.00  0.00    -0.180 SA
HETATM    8  H           1     -29.784  -5.033 -17.653  0.00  0.00     0.101 HD
ENDBRANCH   6   7
ENDBRANCH   5   6
BRANCH   5   9
HETATM    9  C           1     -26.306  -7.060 -15.916  0.00  0.00     0.197 C 
HETATM   10  O           1     -25.222  -7.534 -15.513  0.00  0.00    -0.646 OA
HETATM   11  O           1     -27.383  -7.456 -15.420  0.00  0.00    -0.646 OA
ENDBRANCH   5   9
ENDBRANCH   3   5
BRANCH   2  12
HETATM   12  C           1     -25.176  -7.531 -20.329  0.00  0.00     0.332 C 
BRANCH  12  13
HETATM   13  N           1     -23.916  -8.324 -20.508  0.00  0.00    -0.071 N 
HETATM   14  H           1     -23.936  -8.809 -21.434  0.00  0.00     0.274 HD
HETATM   15  H           1     -23.092  -7.682 -20.470  0.00  0.00     0.274 HD
HETATM   16  H           1     -23.840  -9.034 -19.745  0.00  0.00     0.274 HD
ENDBRANCH  12  13
ENDBRANCH   2  12
TORSDOF 6
ENDMDL
MODEL 2
REMARK VINA RESULT:      -4.8      1.973      2.455
REMARK  6 active torsions:
REMARK  status: ('A' for Active; 'I' for Inactive)
REMARK    1  A    between atoms: C_1  and  C_10 
REMARK    2  A    between atoms: C_1  and  N_2 
REMARK    3  A    between atoms: C_6  and  C_7 
REMARK    4  A    between atoms: C_6  and  C_14 
REMARK    5  A    between atoms: C_6  and  N_11 
REMARK    6  A    between atoms: C_7  and  S_8 
REMARK       I    between atoms: C_10  and  N_11 
ROOT
HETATM    1  H           1     -26.841  -7.327 -17.683  0.00  0.00     0.163 HD
HETATM    2  C           1     -25.318  -6.533 -16.527  0.00  0.00     0.243 C 
HETATM    3  N           1     -26.602  -6.624 -16.995  0.00  0.00    -0.344 N 
HETATM    4  O           1     -25.032  -5.693 -15.707  0.00  0.00    -0.272 OA
ENDROOT
BRANCH   3   5
HETATM    5  C           1     -27.618  -5.712 -16.506  0.00  0.00     0.194 C 
BRANCH   5   6
HETATM    6  C           1     -28.576  -5.368 -17.639  0.00  0.00     0.106 C 
BRANCH   6   7
HETATM    7  S           1     -29.380  -6.883 -18.233  0.00  0.00    -0.180 SA
HETATM    8  H           1     -29.818  -7.291 -17.030  0.00  0.00     0.101 HD
ENDBRANCH   6   7
ENDBRANCH   5   6
BRANCH   5   9
HETATM    9  C           1     -28.382  -6.368 -15.382  0.00  0.00     0.197 C 
HETATM   10  O           1     -29.340  -5.771 -14.846  0.00  0.00    -0.646 OA
HETATM   11  O           1     -28.055  -7.508 -14.986  0.00  0.00    -0.646 OA
ENDBRANCH   5   9
ENDBRANCH   3   5
BRANCH   2  12
HETATM   12  C           1     -24.260  -7.481 -17.036  0.00  0.00     0.332 C 
BRANCH  12  13
HETATM   13  N           1     -24.255  -7.469 -18.535  0.00  0.00    -0.071 N 
HETATM   14  H           1     -24.205  -6.482 -18.876  0.00  0.00     0.274 HD
HETATM   15  H           1     -23.425  -8.000 -18.885  0.00  0.00     0.274 HD
HETATM   16  H           1     -25.130  -7.916 -18.890  0.00  0.00     0.274 HD
ENDBRANCH  12  13
ENDBRANCH   2  12
TORSDOF 6
ENDMDL
MODEL 3
REMARK VINA RESULT:      -4.6      2.876      4.093
REMARK  6 active torsions:
REMARK  status: ('A' for Active; 'I' for Inactive)
REMARK    1  A    between atoms: C_1  and  C_10 
REMARK    2  A    between atoms: C_1  and  N_2 
REMARK    3  A    between atoms: C_6  and  C_7 
REMARK    4  A    between atoms: C_6  and  C_14 
REMARK    5  A    between atoms: C_6  and  N_11 
REMARK    6  A    between atoms: C_7  and  S_8 
REMARK       I    between atoms: C_10  and  N_11 
ROOT
HETATM    1  H           1     -27.797  -6.723 -18.031  0.00  0.00     0.163 HD
HETATM    2  C           1     -27.538  -7.145 -16.021  0.00  0.00     0.243 C 
HETATM    3  N           1     -28.263  -6.985 -17.172  0.00  0.00    -0.344 N 
HETATM    4  O           1     -28.094  -7.458 -14.995  0.00  0.00    -0.272 OA
ENDROOT
BRANCH   3   5
HETATM    5  C           1     -29.698  -7.192 -17.158  0.00  0.00     0.194 C 
BRANCH   5   6
HETATM    6  C           1     -30.403  -5.845 -17.072  0.00  0.00     0.106 C 
BRANCH   6   7
HETATM    7  S           1     -29.532  -4.638 -18.111  0.00  0.00    -0.180 SA
HETATM    8  H           1     -28.461  -5.413 -18.359  0.00  0.00     0.101 HD
ENDBRANCH   6   7
ENDBRANCH   5   6
BRANCH   5   9
HETATM    9  C           1     -30.116  -7.899 -18.424  0.00  0.00     0.197 C 
HETATM   10  O           1     -29.305  -8.635 -19.026  0.00  0.00    -0.646 OA
HETATM   11  O           1     -31.273  -7.747 -18.872  0.00  0.00    -0.646 OA
ENDBRANCH   5   9
ENDBRANCH   3   5
BRANCH   2  12
HETATM   12  C           1     -26.044  -6.930 -16.034  0.00  0.00     0.332 C 
BRANCH  12  13
HETATM   13  N           1     -25.564  -6.837 -17.452  0.00  0.00    -0.071 N 
HETATM   14  H           1     -24.744  -7.471 -17.585  0.00  0.00     0.274 HD
HETATM   15  H           1     -26.333  -7.122 -18.100  0.00  0.00     0.274 HD
HETATM   16  H           1     -25.280  -5.853 -17.659  0.00  0.00     0.274 HD
ENDBRANCH  12  13
ENDBRANCH   2  12
TORSDOF 6
ENDMDL
MODEL 4
REMARK VINA RESULT:      -4.5      9.199     10.352
REMARK  6 active torsions:
REMARK  status: ('A' for Active; 'I' for Inactive)
REMARK    1  A    between atoms: C_1  and  C_10 
REMARK    2  A    between atoms: C_1  and  N_2 
REMARK    3  A    between atoms: C_6  and  C_7 
REMARK    4  A    between atoms: C_6  and  C_14 
REMARK    5  A    between atoms: C_6  and  N_11 
REMARK    6  A    between atoms: C_7  and  S_8 
REMARK       I    between atoms: C_10  and  N_11 
ROOT
HETATM    1  H           1     -22.476  -5.837  -9.163  0.00  0.00     0.163 HD
HETATM    2  C           1     -21.870  -4.473  -7.729  0.00  0.00     0.243 C 
HETATM    3  N           1     -22.365  -4.855  -8.948  0.00  0.00    -0.344 N 
HETATM    4  O           1     -21.735  -3.301  -7.472  0.00  0.00    -0.272 OA
ENDROOT
BRANCH   3   5
HETATM    5  C           1     -22.727  -3.851  -9.929  0.00  0.00     0.194 C 
BRANCH   5   6
HETATM    6  C           1     -22.012  -4.144 -11.241  0.00  0.00     0.106 C 
BRANCH   6   7
HETATM    7  S           1     -20.219  -4.171 -10.960  0.00  0.00    -0.180 SA
HETATM    8  H           1     -20.262  -4.926  -9.848  0.00  0.00     0.101 HD
ENDBRANCH   6   7
ENDBRANCH   5   6
BRANCH   5   9
HETATM    9  C           1     -24.219  -3.882 -10.151  0.00  0.00     0.197 C 
HETATM   10  O           1     -24.894  -4.846  -9.732  0.00  0.00    -0.646 OA
HETATM   11  O           1     -24.781  -2.942 -10.756  0.00  0.00    -0.646 OA
ENDBRANCH   5   9
ENDBRANCH   3   5
BRANCH   2  12
HETATM   12  C           1     -21.492  -5.518  -6.707  0.00  0.00     0.332 C 
BRANCH  12  13
HETATM   13  N           1     -20.308  -6.295  -7.200  0.00  0.00    -0.071 N 
HETATM   14  H           1     -19.428  -5.802  -6.927  0.00  0.00     0.274 HD
HETATM   15  H           1     -20.317  -7.250  -6.774  0.00  0.00     0.274 HD
HETATM   16  H           1     -20.354  -6.377  -8.241  0.00  0.00     0.274 HD
ENDBRANCH  12  13
ENDBRANCH   2  12
TORSDOF 6
ENDMDL
MODEL 5
REMARK VINA RESULT:      -4.5      3.542      4.560
REMARK  6 active torsions:
REMARK  status: ('A' for Active; 'I' for Inactive)
REMARK    1  A    between atoms: C_1  and  C_10 
REMARK    2  A    between atoms: C_1  and  N_2 
REMARK    3  A    between atoms: C_6  and  C_7 
REMARK    4  A    between atoms: C_6  and  C_14 
REMARK    5  A    between atoms: C_6  and  N_11 
REMARK    6  A    between atoms: C_7  and  S_8 
REMARK       I    between atoms: C_10  and  N_11 
ROOT
HETATM    1  H           1     -27.717  -4.370 -15.610  0.00  0.00     0.163 HD
HETATM    2  C           1     -28.588  -4.304 -17.487  0.00  0.00     0.243 C 
HETATM    3  N           1     -27.852  -4.869 -16.480  0.00  0.00    -0.344 N 
HETATM    4  O           1     -28.748  -4.900 -18.525  0.00  0.00    -0.272 OA
ENDROOT
BRANCH   3   5
HETATM    5  C           1     -27.266  -6.183 -16.660  0.00  0.00     0.194 C 
BRANCH   5   6
HETATM    6  C           1     -25.916  -6.236 -15.957  0.00  0.00     0.106 C 
BRANCH   6   7
HETATM    7  S           1     -24.721  -7.111 -17.006  0.00  0.00    -0.180 SA
HETATM    8  H           1     -24.148  -6.008 -17.517  0.00  0.00     0.101 HD
ENDBRANCH   6   7
ENDBRANCH   5   6
BRANCH   5   9
HETATM    9  C           1     -28.183  -7.227 -16.070  0.00  0.00     0.197 C 
HETATM   10  O           1     -29.139  -7.670 -16.741  0.00  0.00    -0.646 OA
HETATM   11  O           1     -27.986  -7.647 -14.909  0.00  0.00    -0.646 OA
ENDBRANCH   5   9
ENDBRANCH   3   5
BRANCH   2  12
HETATM   12  C           1     -29.198  -2.937 -17.301  0.00  0.00     0.332 C 
BRANCH  12  13
HETATM   13  N           1     -30.657  -2.988 -17.643  0.00  0.00    -0.071 N 
HETATM   14  H           1     -30.952  -2.073 -18.052  0.00  0.00     0.274 HD
HETATM   15  H           1     -30.825  -3.750 -18.338  0.00  0.00     0.274 HD
HETATM   16  H           1     -31.211  -3.177 -16.777  0.00  0.00     0.274 HD
ENDBRANCH  12  13
ENDBRANCH   2  12
TORSDOF 6
ENDMDL
MODEL 6
REMARK VINA RESULT:      -4.4      4.530      6.293
REMARK  6 active torsions:
REMARK  status: ('A' for Active; 'I' for Inactive)
REMARK    1  A    between atoms: C_1  and  C_10 
REMARK    2  A    between atoms: C_1  and  N_2 
REMARK    3  A    between atoms: C_6  and  C_7 
REMARK    4  A    between atoms: C_6  and  C_14 
REMARK    5  A    between atoms: C_6  and  N_11 
REMARK    6  A    between atoms: C_7  and  S_8 
REMARK       I    between atoms: C_10  and  N_11 
ROOT
HETATM    1  H           1     -30.841  -5.945 -16.876  0.00  0.00     0.163 HD
HETATM    2  C           1     -31.536  -4.034 -17.266  0.00  0.00     0.243 C 
HETATM    3  N           1     -30.613  -5.045 -17.279  0.00  0.00    -0.344 N 
HETATM    4  O           1     -31.262  -2.960 -17.746  0.00  0.00    -0.272 OA
ENDROOT
BRANCH   3   5
HETATM    5  C           1     -29.307  -4.826 -17.870  0.00  0.00     0.194 C 
BRANCH   5   6
HETATM    6  C           1     -28.325  -4.401 -16.785  0.00  0.00     0.106 C 
BRANCH   6   7
HETATM    7  S           1     -28.478  -5.516 -15.361  0.00  0.00    -0.180 SA
HETATM    8  H           1     -27.495  -6.355 -15.732  0.00  0.00     0.101 HD
ENDBRANCH   6   7
ENDBRANCH   5   6
BRANCH   5   9
HETATM    9  C           1     -28.826  -6.103 -18.513  0.00  0.00     0.197 C 
HETATM   10  O           1     -29.533  -7.133 -18.464  0.00  0.00    -0.646 OA
HETATM   11  O           1     -27.719  -6.132 -19.093  0.00  0.00    -0.646 OA
ENDBRANCH   5   9
ENDBRANCH   3   5
BRANCH   2  12
HETATM   12  C           1     -32.895  -4.261 -16.651  0.00  0.00     0.332 C 
BRANCH  12  13
HETATM   13  N           1     -33.832  -3.176 -17.092  0.00  0.00    -0.071 N 
HETATM   14  H           1     -33.288  -2.309 -17.300  0.00  0.00     0.274 HD
HETATM   15  H           1     -34.341  -3.483 -17.952  0.00  0.00     0.274 HD
HETATM   16  H           1     -34.521  -2.980 -16.330  0.00  0.00     0.274 HD
ENDBRANCH  12  13
ENDBRANCH   2  12
TORSDOF 6
ENDMDL
MODEL 7
REMARK VINA RESULT:      -4.2      3.083      4.832
REMARK  6 active torsions:
REMARK  status: ('A' for Active; 'I' for Inactive)
REMARK    1  A    between atoms: C_1  and  C_10 
REMARK    2  A    between atoms: C_1  and  N_2 
REMARK    3  A    between atoms: C_6  and  C_7 
REMARK    4  A    between atoms: C_6  and  C_14 
REMARK    5  A    between atoms: C_6  and  N_11 
REMARK    6  A    between atoms: C_7  and  S_8 
REMARK       I    between atoms: C_10  and  N_11 
ROOT
HETATM    1  H           1     -28.751  -4.322 -16.773  0.00  0.00     0.163 HD
HETATM    2  C           1     -30.398  -5.534 -17.093  0.00  0.00     0.243 C 
HETATM    3  N           1     -29.060  -5.263 -16.979  0.00  0.00    -0.344 N 
HETATM    4  O           1     -30.767  -6.658 -17.340  0.00  0.00    -0.272 OA
ENDROOT
BRANCH   3   5
HETATM    5  C           1     -28.088  -6.324 -17.153  0.00  0.00     0.194 C 
BRANCH   5   6
HETATM    6  C           1     -27.014  -5.870 -18.133  0.00  0.00     0.106 C 
BRANCH   6   7
HETATM    7  S           1     -27.345  -6.586 -19.768  0.00  0.00    -0.180 SA
HETATM    8  H           1     -27.045  -5.479 -20.470  0.00  0.00     0.101 HD
ENDBRANCH   6   7
ENDBRANCH   5   6
BRANCH   5   9
HETATM    9  C           1     -27.452  -6.647 -15.823  0.00  0.00     0.197 C 
HETATM   10  O           1     -27.972  -7.500 -15.072  0.00  0.00    -0.646 OA
HETATM   11  O           1     -26.406  -6.059 -15.472  0.00  0.00    -0.646 OA
ENDBRANCH   5   9
ENDBRANCH   3   5
BRANCH   2  12
HETATM   12  C           1     -31.410  -4.431 -16.912  0.00  0.00     0.332 C 
BRANCH  12  13
HETATM   13  N           1     -30.942  -3.198 -17.626  0.00  0.00    -0.071 N 
HETATM   14  H           1     -31.632  -2.940 -18.367  0.00  0.00     0.274 HD
HETATM   15  H           1     -30.855  -2.412 -16.943  0.00  0.00     0.274 HD
HETATM   16  H           1     -30.012  -3.383 -18.065  0.00  0.00     0.274 HD
ENDBRANCH  12  13
ENDBRANCH   2  12
TORSDOF 6
ENDMDL
MODEL 8
REMARK VINA RESULT:      -4.0     18.626     19.491
REMARK  6 active torsions:
REMARK  status: ('A' for Active; 'I' for Inactive)
REMARK    1  A    between atoms: C_1  and  C_10 
REMARK    2  A    between atoms: C_1  and  N_2 
REMARK    3  A    between atoms: C_6  and  C_7 
REMARK    4  A    between atoms: C_6  and  C_14 
REMARK    5  A    between atoms: C_6  and  N_11 
REMARK    6  A    between atoms: C_7  and  S_8 
REMARK       I    between atoms: C_10  and  N_11 
ROOT
HETATM    1  H           1     -12.681   4.967 -19.624  0.00  0.00     0.163 HD
HETATM    2  C           1     -11.921   4.092 -21.339  0.00  0.00     0.243 C 
HETATM    3  N           1     -12.035   5.078 -20.395  0.00  0.00    -0.344 N 
HETATM    4  O           1     -11.151   4.224 -22.260  0.00  0.00    -0.272 OA
ENDROOT
BRANCH   3   5
HETATM    5  C           1     -11.231   6.279 -20.502  0.00  0.00     0.194 C 
BRANCH   5   6
HETATM    6  C           1     -12.023   7.467 -19.970  0.00  0.00     0.106 C 
BRANCH   6   7
HETATM    7  S           1     -11.103   8.999 -20.288  0.00  0.00    -0.180 SA
HETATM    8  H           1     -11.811   9.366 -21.371  0.00  0.00     0.101 HD
ENDBRANCH   6   7
ENDBRANCH   5   6
BRANCH   5   9
HETATM    9  C           1      -9.969   6.112 -19.692  0.00  0.00     0.197 C 
HETATM   10  O           1      -8.853   6.200 -20.248  0.00  0.00    -0.646 OA
HETATM   11  O           1     -10.040   5.886 -18.464  0.00  0.00    -0.646 OA
ENDBRANCH   5   9
ENDBRANCH   3   5
BRANCH   2  12
HETATM   12  C           1     -12.758   2.841 -21.229  0.00  0.00     0.332 C 
BRANCH  12  13
HETATM   13  N           1     -13.822   2.855 -22.285  0.00  0.00    -0.071 N 
HETATM   14  H           1     -14.575   2.177 -22.030  0.00  0.00     0.274 HD
HETATM   15  H           1     -14.229   3.816 -22.356  0.00  0.00     0.274 HD
HETATM   16  H           1     -13.405   2.584 -23.203  0.00  0.00     0.274 HD
ENDBRANCH  12  13
ENDBRANCH   2  12
TORSDOF 6
ENDMDL
MODEL 9
REMARK VINA RESULT:      -4.0     10.586     11.926
REMARK  6 active torsions:
REMARK  status: ('A' for Active; 'I' for Inactive)
REMARK    1  A    between atoms: C_1  and  C_10 
REMARK    2  A    between atoms: C_1  and  N_2 
REMARK    3  A    between atoms: C_6  and  C_7 
REMARK    4  A    between atoms: C_6  and  C_14 
REMARK    5  A    between atoms: C_6  and  N_11 
REMARK    6  A    between atoms: C_7  and  S_8 
REMARK       I    between atoms: C_10  and  N_11 
ROOT
HETATM    1  H           1     -21.695  -3.882  -6.483  0.00  0.00     0.163 HD
HETATM    2  C           1     -21.193  -5.879  -6.267  0.00  0.00     0.243 C 
HETATM    3  N           1     -21.536  -4.755  -6.970  0.00  0.00    -0.344 N 
HETATM    4  O           1     -21.004  -6.921  -6.849  0.00  0.00    -0.272 OA
ENDROOT
BRANCH   3   5
HETATM    5  C           1     -21.672  -4.816  -8.413  0.00  0.00     0.194 C 
BRANCH   5   6
HETATM    6  C           1     -22.806  -3.899  -8.853  0.00  0.00     0.106 C 
BRANCH   6   7
HETATM    7  S           1     -23.718  -4.676 -10.216  0.00  0.00    -0.180 SA
HETATM    8  H           1     -22.835  -4.354 -11.178  0.00  0.00     0.101 HD
ENDBRANCH   6   7
ENDBRANCH   5   6
BRANCH   5   9
HETATM    9  C           1     -20.384  -4.368  -9.058  0.00  0.00     0.197 C 
HETATM   10  O           1     -19.553  -3.705  -8.401  0.00  0.00    -0.646 OA
HETATM   11  O           1     -20.148  -4.661 -10.250  0.00  0.00    -0.646 OA
ENDBRANCH   5   9
ENDBRANCH   3   5
BRANCH   2  12
HETATM   12  C           1     -21.051  -5.817  -4.766  0.00  0.00     0.332 C 
BRANCH  12  13
HETATM   13  N           1     -22.332  -6.256  -4.123  0.00  0.00    -0.071 N 
HETATM   14  H           1     -22.965  -5.432  -4.008  0.00  0.00     0.274 HD
HETATM   15  H           1     -22.799  -6.970  -4.727  0.00  0.00     0.274 HD
HETATM   16  H           1     -22.127  -6.671  -3.187  0.00  0.00     0.274 HD
ENDBRANCH  12  13
ENDBRANCH   2  12
TORSDOF 6
ENDMDL
