MODEL 1
REMARK VINA RESULT:      -7.6      0.000      0.000
REMARK  8 active torsions:
REMARK  status: ('A' for Active; 'I' for Inactive)
REMARK    1  A    between atoms: C_1  and  C_2 
REMARK    2  A    between atoms: C_1  and  C_15 
REMARK    3  A    between atoms: C_2  and  C_3 
REMARK    4  A    between atoms: C_2  and  N_20 
REMARK       I    between atoms: C_3  and  N_5 
REMARK    5  A    between atoms: C_4  and  C_22 
REMARK    6  A    between atoms: N_5  and  C_22 
REMARK    7  A    between atoms: O_13  and  C_16 
REMARK    8  A    between atoms: C_16  and  C_22 
ROOT
HETATM    1  C           1     -35.960  -0.535 -11.168  0.00  0.00     0.278 C 
ENDROOT
BRANCH   1   2
HETATM    2  C           1     -36.361  -1.926 -10.696  0.00  0.00     0.081 C 
BRANCH   2   3
HETATM    3  C           1     -35.233  -2.881 -10.942  0.00  0.00    -0.056 A 
HETATM    4  C           1     -35.467  -4.256 -10.917  0.00  0.00     0.007 A 
HETATM    5  C           1     -34.416  -5.146 -11.146  0.00  0.00     0.001 A 
HETATM    6  C           1     -33.133  -4.659 -11.398  0.00  0.00     0.000 A 
HETATM    7  C           1     -32.901  -3.285 -11.423  0.00  0.00     0.001 A 
HETATM    8  C           1     -33.950  -2.396 -11.194  0.00  0.00     0.007 A 
ENDBRANCH   2   3
ENDBRANCH   1   2
BRANCH   1   9
HETATM    9  C           1     -36.540  -0.283 -12.538  0.00  0.00     0.249 C 
HETATM   10  N           1     -35.721   0.095 -13.570  0.00  0.00    -0.343 N 
HETATM   11  H           1     -34.727   0.204 -13.412  0.00  0.00     0.163 HD
HETATM   12  O           1     -37.725  -0.414 -12.726  0.00  0.00    -0.271 OA
BRANCH  10  13
HETATM   13  C           1     -36.277   0.338 -14.885  0.00  0.00     0.209 C 
BRANCH  13  14
HETATM   14  C           1     -35.890  -0.790 -15.811  0.00  0.00     0.198 C 
HETATM   15  O           1     -36.307  -0.804 -16.988  0.00  0.00    -0.646 OA
HETATM   16  O           1     -35.151  -1.710 -15.398  0.00  0.00    -0.646 OA
ENDBRANCH  13  14
BRANCH  13  17
HETATM   17  C           1     -35.736   1.652 -15.432  0.00  0.00     0.200 C 
BRANCH  17  18
HETATM   18  O           1     -36.645   2.183 -16.359  0.00  0.00    -0.398 OA
HETATM   19  H           1     -36.873   1.485 -16.949  0.00  0.00     0.209 HD
ENDBRANCH  17  18
ENDBRANCH  13  17
ENDBRANCH  10  13
ENDBRANCH   1   9
BRANCH   1  20
HETATM   20  N           1     -36.486   0.489 -10.206  0.00  0.00    -0.066 N 
HETATM   21  H           1     -36.001   0.383  -9.287  0.00  0.00     0.275 HD
HETATM   22  H           1     -37.513   0.349 -10.076  0.00  0.00     0.275 HD
HETATM   23  H           1     -36.310   1.446 -10.586  0.00  0.00     0.275 HD
ENDBRANCH   1  20
TORSDOF 8
ENDMDL
MODEL 2
REMARK VINA RESULT:      -7.0     13.526     15.461
REMARK  8 active torsions:
REMARK  status: ('A' for Active; 'I' for Inactive)
REMARK    1  A    between atoms: C_1  and  C_2 
REMARK    2  A    between atoms: C_1  and  C_15 
REMARK    3  A    between atoms: C_2  and  C_3 
REMARK    4  A    between atoms: C_2  and  N_20 
REMARK       I    between atoms: C_3  and  N_5 
REMARK    5  A    between atoms: C_4  and  C_22 
REMARK    6  A    between atoms: N_5  and  C_22 
REMARK    7  A    between atoms: O_13  and  C_16 
REMARK    8  A    between atoms: C_16  and  C_22 
ROOT
HETATM    1  C           1     -21.192  -5.713  -6.982  0.00  0.00     0.278 C 
ENDROOT
BRANCH   1   2
HETATM    2  C           1     -21.023  -5.187  -5.563  0.00  0.00     0.081 C 
BRANCH   2   3
HETATM    3  C           1     -21.227  -6.306  -4.589  0.00  0.00    -0.056 A 
HETATM    4  C           1     -21.254  -6.042  -3.220  0.00  0.00     0.007 A 
HETATM    5  C           1     -21.444  -7.085  -2.312  0.00  0.00     0.001 A 
HETATM    6  C           1     -21.605  -8.391  -2.775  0.00  0.00     0.000 A 
HETATM    7  C           1     -21.577  -8.655  -4.144  0.00  0.00     0.001 A 
HETATM    8  C           1     -21.388  -7.613  -5.051  0.00  0.00     0.007 A 
ENDBRANCH   2   3
ENDBRANCH   1   2
BRANCH   1   9
HETATM    9  C           1     -21.671  -4.597  -7.878  0.00  0.00     0.249 C 
HETATM   10  N           1     -22.093  -4.874  -9.152  0.00  0.00    -0.343 N 
HETATM   11  H           1     -22.084  -5.828  -9.491  0.00  0.00     0.163 HD
HETATM   12  O           1     -21.683  -3.459  -7.473  0.00  0.00    -0.271 OA
BRANCH  10  13
HETATM   13  C           1     -22.553  -3.802 -10.012  0.00  0.00     0.209 C 
BRANCH  13  14
HETATM   14  C           1     -24.044  -3.923 -10.211  0.00  0.00     0.198 C 
HETATM   15  O           1     -24.689  -2.968 -10.694  0.00  0.00    -0.646 OA
HETATM   16  O           1     -24.634  -4.978  -9.892  0.00  0.00    -0.646 OA
ENDBRANCH  13  14
BRANCH  13  17
HETATM   17  C           1     -21.851  -3.897 -11.360  0.00  0.00     0.200 C 
BRANCH  17  18
HETATM   18  O           1     -22.705  -4.509 -12.290  0.00  0.00    -0.398 OA
HETATM   19  H           1     -23.086  -3.820 -12.807  0.00  0.00     0.209 HD
ENDBRANCH  17  18
ENDBRANCH  13  17
ENDBRANCH  10  13
ENDBRANCH   1   9
BRANCH   1  20
HETATM   20  N           1     -19.874  -6.225  -7.484  0.00  0.00    -0.066 N 
HETATM   21  H           1     -19.098  -5.694  -7.026  0.00  0.00     0.275 HD
HETATM   22  H           1     -19.821  -6.095  -8.519  0.00  0.00     0.275 HD
HETATM   23  H           1     -19.785  -7.240  -7.255  0.00  0.00     0.275 HD
ENDBRANCH   1  20
TORSDOF 8
ENDMDL
MODEL 3
REMARK VINA RESULT:      -6.8     14.955     17.154
REMARK  8 active torsions:
REMARK  status: ('A' for Active; 'I' for Inactive)
REMARK    1  A    between atoms: C_1  and  C_2 
REMARK    2  A    between atoms: C_1  and  C_15 
REMARK    3  A    between atoms: C_2  and  C_3 
REMARK    4  A    between atoms: C_2  and  N_20 
REMARK       I    between atoms: C_3  and  N_5 
REMARK    5  A    between atoms: C_4  and  C_22 
REMARK    6  A    between atoms: N_5  and  C_22 
REMARK    7  A    between atoms: O_13  and  C_16 
REMARK    8  A    between atoms: C_16  and  C_22 
ROOT
HETATM    1  C           1     -22.276  -5.165  -6.753  0.00  0.00     0.278 C 
ENDROOT
BRANCH   1   2
HETATM    2  C           1     -21.690  -3.901  -7.367  0.00  0.00     0.081 C 
BRANCH   2   3
HETATM    3  C           1     -21.632  -4.051  -8.856  0.00  0.00    -0.056 A 
HETATM    4  C           1     -22.812  -4.131  -9.596  0.00  0.00     0.007 A 
HETATM    5  C           1     -22.758  -4.270 -10.983  0.00  0.00     0.001 A 
HETATM    6  C           1     -21.523  -4.330 -11.630  0.00  0.00     0.000 A 
HETATM    7  C           1     -20.344  -4.250 -10.891  0.00  0.00     0.001 A 
HETATM    8  C           1     -20.398  -4.111  -9.504  0.00  0.00     0.007 A 
ENDBRANCH   2   3
ENDBRANCH   1   2
BRANCH   1   9
HETATM    9  C           1     -21.480  -5.544  -5.528  0.00  0.00     0.249 C 
HETATM   10  N           1     -22.103  -6.144  -4.465  0.00  0.00    -0.343 N 
HETATM   11  H           1     -23.097  -6.332  -4.502  0.00  0.00     0.163 HD
HETATM   12  O           1     -20.294  -5.320  -5.484  0.00  0.00    -0.271 OA
BRANCH  10  13
HETATM   13  C           1     -21.339  -6.508  -3.288  0.00  0.00     0.209 C 
BRANCH  13  14
HETATM   14  C           1     -21.032  -7.984  -3.326  0.00  0.00     0.198 C 
HETATM   15  O           1     -21.815  -8.772  -3.899  0.00  0.00    -0.646 OA
HETATM   16  O           1     -19.994  -8.421  -2.783  0.00  0.00    -0.646 OA
ENDBRANCH  13  14
BRANCH  13  17
HETATM   17  C           1     -22.149  -6.189  -2.039  0.00  0.00     0.200 C 
BRANCH  17  18
HETATM   18  O           1     -22.157  -7.306  -1.190  0.00  0.00    -0.398 OA
HETATM   19  H           1     -23.048  -7.608  -1.145  0.00  0.00     0.209 HD
ENDBRANCH  17  18
ENDBRANCH  13  17
ENDBRANCH  10  13
ENDBRANCH   1   9
BRANCH   1  20
HETATM   20  N           1     -23.703  -4.914  -6.364  0.00  0.00    -0.066 N 
HETATM   21  H           1     -23.797  -4.986  -5.325  0.00  0.00     0.275 HD
HETATM   22  H           1     -24.318  -5.625  -6.819  0.00  0.00     0.275 HD
HETATM   23  H           1     -23.986  -3.958  -6.675  0.00  0.00     0.275 HD
ENDBRANCH   1  20
TORSDOF 8
ENDMDL
MODEL 4
REMARK VINA RESULT:      -6.5      5.453      7.201
REMARK  8 active torsions:
REMARK  status: ('A' for Active; 'I' for Inactive)
REMARK    1  A    between atoms: C_1  and  C_2 
REMARK    2  A    between atoms: C_1  and  C_15 
REMARK    3  A    between atoms: C_2  and  C_3 
REMARK    4  A    between atoms: C_2  and  N_20 
REMARK       I    between atoms: C_3  and  N_5 
REMARK    5  A    between atoms: C_4  and  C_22 
REMARK    6  A    between atoms: N_5  and  C_22 
REMARK    7  A    between atoms: O_13  and  C_16 
REMARK    8  A    between atoms: C_16  and  C_22 
ROOT
HETATM    1  C           1     -32.915  -4.494 -16.712  0.00  0.00     0.278 C 
ENDROOT
BRANCH   1   2
HETATM    2  C           1     -31.477  -4.483 -16.211  0.00  0.00     0.081 C 
BRANCH   2   3
HETATM    3  C           1     -30.633  -5.346 -17.098  0.00  0.00    -0.056 A 
HETATM    4  C           1     -30.974  -6.683 -17.300  0.00  0.00     0.007 A 
HETATM    5  C           1     -30.187  -7.486 -18.126  0.00  0.00     0.001 A 
HETATM    6  C           1     -29.059  -6.952 -18.749  0.00  0.00     0.000 A 
HETATM    7  C           1     -28.718  -5.615 -18.547  0.00  0.00     0.001 A 
HETATM    8  C           1     -29.504  -4.812 -17.721  0.00  0.00     0.007 A 
ENDBRANCH   2   3
ENDBRANCH   1   2
BRANCH   1   9
HETATM    9  C           1     -33.858  -4.461 -15.534  0.00  0.00     0.249 C 
HETATM   10  N           1     -33.399  -4.084 -14.300  0.00  0.00    -0.343 N 
HETATM   11  H           1     -32.427  -3.827 -14.179  0.00  0.00     0.163 HD
HETATM   12  O           1     -35.017  -4.767 -15.680  0.00  0.00    -0.271 OA
BRANCH  10  13
HETATM   13  C           1     -34.305  -4.053 -13.169  0.00  0.00     0.209 C 
BRANCH  13  14
HETATM   14  C           1     -34.529  -2.622 -12.745  0.00  0.00     0.198 C 
HETATM   15  O           1     -34.134  -2.232 -11.625  0.00  0.00    -0.646 OA
HETATM   16  O           1     -35.110  -1.826 -13.514  0.00  0.00    -0.646 OA
ENDBRANCH  13  14
BRANCH  13  17
HETATM   17  C           1     -33.700  -4.836 -12.012  0.00  0.00     0.200 C 
BRANCH  17  18
HETATM   18  O           1     -32.300  -4.779 -12.089  0.00  0.00    -0.398 OA
HETATM   19  H           1     -32.079  -4.707 -13.001  0.00  0.00     0.209 HD
ENDBRANCH  17  18
ENDBRANCH  13  17
ENDBRANCH  10  13
ENDBRANCH   1   9
BRANCH   1  20
HETATM   20  N           1     -33.151  -3.290 -17.575  0.00  0.00    -0.066 N 
HETATM   21  H           1     -32.643  -2.470 -17.174  0.00  0.00     0.275 HD
HETATM   22  H           1     -34.175  -3.082 -17.610  0.00  0.00     0.275 HD
HETATM   23  H           1     -32.802  -3.480 -18.541  0.00  0.00     0.275 HD
ENDBRANCH   1  20
TORSDOF 8
ENDMDL
MODEL 5
REMARK VINA RESULT:      -6.3      2.190      3.622
REMARK  8 active torsions:
REMARK  status: ('A' for Active; 'I' for Inactive)
REMARK    1  A    between atoms: C_1  and  C_2 
REMARK    2  A    between atoms: C_1  and  C_15 
REMARK    3  A    between atoms: C_2  and  C_3 
REMARK    4  A    between atoms: C_2  and  N_20 
REMARK       I    between atoms: C_3  and  N_5 
REMARK    5  A    between atoms: C_4  and  C_22 
REMARK    6  A    between atoms: N_5  and  C_22 
REMARK    7  A    between atoms: O_13  and  C_16 
REMARK    8  A    between atoms: C_16  and  C_22 
ROOT
HETATM    1  C           1     -34.162  -3.907 -12.760  0.00  0.00     0.278 C 
ENDROOT
BRANCH   1   2
HETATM    2  C           1     -33.118  -4.367 -11.752  0.00  0.00     0.081 C 
BRANCH   2   3
HETATM    3  C           1     -33.625  -5.573 -11.024  0.00  0.00    -0.056 A 
HETATM    4  C           1     -34.858  -5.528 -10.373  0.00  0.00     0.007 A 
HETATM    5  C           1     -35.330  -6.652  -9.695  0.00  0.00     0.001 A 
HETATM    6  C           1     -34.568  -7.820  -9.667  0.00  0.00     0.000 A 
HETATM    7  C           1     -33.336  -7.865 -10.317  0.00  0.00     0.001 A 
HETATM    8  C           1     -32.864  -6.742 -10.995  0.00  0.00     0.007 A 
ENDBRANCH   2   3
ENDBRANCH   1   2
BRANCH   1   9
HETATM    9  C           1     -34.555  -2.480 -12.462  0.00  0.00     0.249 C 
HETATM   10  N           1     -35.034  -1.678 -13.464  0.00  0.00    -0.343 N 
HETATM   11  H           1     -35.125  -2.043 -14.404  0.00  0.00     0.163 HD
HETATM   12  O           1     -34.448  -2.046 -11.340  0.00  0.00    -0.271 OA
BRANCH  10  13
HETATM   13  C           1     -35.411  -0.308 -13.178  0.00  0.00     0.209 C 
BRANCH  13  14
HETATM   14  C           1     -36.908  -0.226 -13.001  0.00  0.00     0.198 C 
HETATM   15  O           1     -37.668  -0.672 -13.887  0.00  0.00    -0.646 OA
HETATM   16  O           1     -37.387   0.290 -11.968  0.00  0.00    -0.646 OA
ENDBRANCH  13  14
BRANCH  13  17
HETATM   17  C           1     -34.986   0.588 -14.333  0.00  0.00     0.200 C 
BRANCH  17  18
HETATM   18  O           1     -35.503   0.079 -15.534  0.00  0.00    -0.398 OA
HETATM   19  H           1     -34.809   0.121 -16.169  0.00  0.00     0.209 HD
ENDBRANCH  17  18
ENDBRANCH  13  17
ENDBRANCH  10  13
ENDBRANCH   1   9
BRANCH   1  20
HETATM   20  N           1     -33.589  -3.988 -14.144  0.00  0.00    -0.066 N 
HETATM   21  H           1     -34.068  -4.750 -14.674  0.00  0.00     0.275 HD
HETATM   22  H           1     -32.567  -4.194 -14.087  0.00  0.00     0.275 HD
HETATM   23  H           1     -33.734  -3.077 -14.635  0.00  0.00     0.275 HD
ENDBRANCH   1  20
TORSDOF 8
ENDMDL
MODEL 6
REMARK VINA RESULT:      -6.2     14.930     17.357
REMARK  8 active torsions:
REMARK  status: ('A' for Active; 'I' for Inactive)
REMARK    1  A    between atoms: C_1  and  C_2 
REMARK    2  A    between atoms: C_1  and  C_15 
REMARK    3  A    between atoms: C_2  and  C_3 
REMARK    4  A    between atoms: C_2  and  N_20 
REMARK       I    between atoms: C_3  and  N_5 
REMARK    5  A    between atoms: C_4  and  C_22 
REMARK    6  A    between atoms: N_5  and  C_22 
REMARK    7  A    between atoms: O_13  and  C_16 
REMARK    8  A    between atoms: C_16  and  C_22 
ROOT
HETATM    1  C           1     -22.276  -5.179  -6.797  0.00  0.00     0.278 C 
ENDROOT
BRANCH   1   2
HETATM    2  C           1     -21.705  -3.880  -7.351  0.00  0.00     0.081 C 
BRANCH   2   3
HETATM    3  C           1     -21.616  -3.971  -8.843  0.00  0.00    -0.056 A 
HETATM    4  C           1     -22.767  -3.834  -9.620  0.00  0.00     0.007 A 
HETATM    5  C           1     -22.684  -3.918 -11.010  0.00  0.00     0.001 A 
HETATM    6  C           1     -21.451  -4.141 -11.623  0.00  0.00     0.000 A 
HETATM    7  C           1     -20.301  -4.278 -10.846  0.00  0.00     0.001 A 
HETATM    8  C           1     -20.384  -4.194  -9.457  0.00  0.00     0.007 A 
ENDBRANCH   2   3
ENDBRANCH   1   2
BRANCH   1   9
HETATM    9  C           1     -21.367  -5.704  -5.713  0.00  0.00     0.249 C 
HETATM   10  N           1     -21.512  -6.990  -5.261  0.00  0.00    -0.343 N 
HETATM   11  H           1     -22.228  -7.586  -5.656  0.00  0.00     0.163 HD
HETATM   12  O           1     -20.512  -4.993  -5.243  0.00  0.00    -0.271 OA
BRANCH  10  13
HETATM   13  C           1     -20.640  -7.495  -4.220  0.00  0.00     0.209 C 
BRANCH  13  14
HETATM   14  C           1     -19.876  -8.688  -4.740  0.00  0.00     0.198 C 
HETATM   15  O           1     -18.741  -8.950  -4.287  0.00  0.00    -0.646 OA
HETATM   16  O           1     -20.378  -9.415  -5.624  0.00  0.00    -0.646 OA
ENDBRANCH  13  14
BRANCH  13  17
HETATM   17  C           1     -21.474  -7.911  -3.016  0.00  0.00     0.200 C 
BRANCH  17  18
HETATM   18  O           1     -21.226  -9.259  -2.719  0.00  0.00    -0.398 OA
HETATM   19  H           1     -20.308  -9.332  -2.521  0.00  0.00     0.209 HD
ENDBRANCH  17  18
ENDBRANCH  13  17
ENDBRANCH  10  13
ENDBRANCH   1   9
BRANCH   1  20
HETATM   20  N           1     -23.638  -4.921  -6.225  0.00  0.00    -0.066 N 
HETATM   21  H           1     -23.731  -3.906  -5.994  0.00  0.00     0.275 HD
HETATM   22  H           1     -23.765  -5.489  -5.357  0.00  0.00     0.275 HD
HETATM   23  H           1     -24.366  -5.188  -6.926  0.00  0.00     0.275 HD
ENDBRANCH   1  20
TORSDOF 8
ENDMDL
MODEL 7
REMARK VINA RESULT:      -6.2     15.394     17.457
REMARK  8 active torsions:
REMARK  status: ('A' for Active; 'I' for Inactive)
REMARK    1  A    between atoms: C_1  and  C_2 
REMARK    2  A    between atoms: C_1  and  C_15 
REMARK    3  A    between atoms: C_2  and  C_3 
REMARK    4  A    between atoms: C_2  and  N_20 
REMARK       I    between atoms: C_3  and  N_5 
REMARK    5  A    between atoms: C_4  and  C_22 
REMARK    6  A    between atoms: N_5  and  C_22 
REMARK    7  A    between atoms: O_13  and  C_16 
REMARK    8  A    between atoms: C_16  and  C_22 
ROOT
HETATM    1  C           1     -21.462  -7.946  -4.473  0.00  0.00     0.278 C 
ENDROOT
BRANCH   1   2
HETATM    2  C           1     -20.592  -8.159  -3.242  0.00  0.00     0.081 C 
BRANCH   2   3
HETATM    3  C           1     -21.466  -8.340  -2.039  0.00  0.00    -0.056 A 
HETATM    4  C           1     -21.837  -7.233  -1.275  0.00  0.00     0.007 A 
HETATM    5  C           1     -22.651  -7.402  -0.154  0.00  0.00     0.001 A 
HETATM    6  C           1     -23.092  -8.677   0.202  0.00  0.00     0.000 A 
HETATM    7  C           1     -22.720  -9.782  -0.562  0.00  0.00     0.001 A 
HETATM    8  C           1     -21.907  -9.614  -1.682  0.00  0.00     0.007 A 
ENDBRANCH   2   3
ENDBRANCH   1   2
BRANCH   1   9
HETATM    9  C           1     -21.239  -6.553  -5.010  0.00  0.00     0.249 C 
HETATM   10  N           1     -21.311  -6.318  -6.358  0.00  0.00    -0.343 N 
HETATM   11  H           1     -21.514  -7.080  -6.993  0.00  0.00     0.163 HD
HETATM   12  O           1     -20.999  -5.644  -4.252  0.00  0.00    -0.271 OA
BRANCH  10  13
HETATM   13  C           1     -21.098  -4.981  -6.874  0.00  0.00     0.209 C 
BRANCH  13  14
HETATM   14  C           1     -22.408  -4.419  -7.369  0.00  0.00     0.198 C 
HETATM   15  O           1     -22.443  -3.757  -8.429  0.00  0.00    -0.646 OA
HETATM   16  O           1     -23.457  -4.615  -6.719  0.00  0.00    -0.646 OA
ENDBRANCH  13  14
BRANCH  13  17
HETATM   17  C           1     -20.100  -5.033  -8.023  0.00  0.00     0.200 C 
BRANCH  17  18
HETATM   18  O           1     -19.554  -3.757  -8.226  0.00  0.00    -0.398 OA
HETATM   19  H           1     -20.234  -3.134  -8.034  0.00  0.00     0.209 HD
ENDBRANCH  17  18
ENDBRANCH  13  17
ENDBRANCH  10  13
ENDBRANCH   1   9
BRANCH   1  20
HETATM   20  N           1     -21.094  -8.950  -5.525  0.00  0.00    -0.066 N 
HETATM   21  H           1     -20.182  -9.396  -5.275  0.00  0.00     0.275 HD
HETATM   22  H           1     -21.006  -8.472  -6.449  0.00  0.00     0.275 HD
HETATM   23  H           1     -21.836  -9.683  -5.581  0.00  0.00     0.275 HD
ENDBRANCH   1  20
TORSDOF 8
ENDMDL
MODEL 8
REMARK VINA RESULT:      -6.1     16.031     18.117
REMARK  8 active torsions:
REMARK  status: ('A' for Active; 'I' for Inactive)
REMARK    1  A    between atoms: C_1  and  C_2 
REMARK    2  A    between atoms: C_1  and  C_15 
REMARK    3  A    between atoms: C_2  and  C_3 
REMARK    4  A    between atoms: C_2  and  N_20 
REMARK       I    between atoms: C_3  and  N_5 
REMARK    5  A    between atoms: C_4  and  C_22 
REMARK    6  A    between atoms: N_5  and  C_22 
REMARK    7  A    between atoms: O_13  and  C_16 
REMARK    8  A    between atoms: C_16  and  C_22 
ROOT
HETATM    1  C           1     -21.471  -8.412  -4.125  0.00  0.00     0.278 C 
ENDROOT
BRANCH   1   2
HETATM    2  C           1     -20.421  -8.277  -3.031  0.00  0.00     0.081 C 
BRANCH   2   3
HETATM    3  C           1     -21.095  -8.230  -1.695  0.00  0.00    -0.056 A 
HETATM    4  C           1     -21.974  -7.189  -1.394  0.00  0.00     0.007 A 
HETATM    5  C           1     -22.602  -7.145  -0.149  0.00  0.00     0.001 A 
HETATM    6  C           1     -22.351  -8.141   0.795  0.00  0.00     0.000 A 
HETATM    7  C           1     -21.472  -9.180   0.494  0.00  0.00     0.001 A 
HETATM    8  C           1     -20.844  -9.225  -0.750  0.00  0.00     0.007 A 
ENDBRANCH   2   3
ENDBRANCH   1   2
BRANCH   1   9
HETATM    9  C           1     -21.056  -7.594  -5.323  0.00  0.00     0.249 C 
HETATM   10  N           1     -21.679  -6.403  -5.588  0.00  0.00    -0.343 N 
HETATM   11  H           1     -22.418  -6.072  -4.980  0.00  0.00     0.163 HD
HETATM   12  O           1     -20.175  -7.988  -6.049  0.00  0.00    -0.271 OA
BRANCH  10  13
HETATM   13  C           1     -21.282  -5.617  -6.739  0.00  0.00     0.209 C 
BRANCH  13  14
HETATM   14  C           1     -20.060  -4.802  -6.392  0.00  0.00     0.198 C 
HETATM   15  O           1     -19.190  -4.579  -7.261  0.00  0.00    -0.646 OA
HETATM   16  O           1     -19.919  -4.349  -5.236  0.00  0.00    -0.646 OA
ENDBRANCH  13  14
BRANCH  13  17
HETATM   17  C           1     -22.418  -4.685  -7.136  0.00  0.00     0.200 C 
BRANCH  17  18
HETATM   18  O           1     -21.923  -3.382  -7.293  0.00  0.00    -0.398 OA
HETATM   19  H           1     -22.324  -2.854  -6.624  0.00  0.00     0.209 HD
ENDBRANCH  17  18
ENDBRANCH  13  17
ENDBRANCH  10  13
ENDBRANCH   1   9
BRANCH   1  20
HETATM   20  N           1     -21.594  -9.853  -4.523  0.00  0.00    -0.066 N 
HETATM   21  H           1     -21.270 -10.460  -3.736  0.00  0.00     0.275 HD
HETATM   22  H           1     -21.005 -10.034  -5.367  0.00  0.00     0.275 HD
HETATM   23  H           1     -22.592 -10.070  -4.743  0.00  0.00     0.275 HD
ENDBRANCH   1  20
TORSDOF 8
ENDMDL
MODEL 9
REMARK VINA RESULT:      -6.1     14.949     17.407
REMARK  8 active torsions:
REMARK  status: ('A' for Active; 'I' for Inactive)
REMARK    1  A    between atoms: C_1  and  C_2 
REMARK    2  A    between atoms: C_1  and  C_15 
REMARK    3  A    between atoms: C_2  and  C_3 
REMARK    4  A    between atoms: C_2  and  N_20 
REMARK       I    between atoms: C_3  and  N_5 
REMARK    5  A    between atoms: C_4  and  C_22 
REMARK    6  A    between atoms: N_5  and  C_22 
REMARK    7  A    between atoms: O_13  and  C_16 
REMARK    8  A    between atoms: C_16  and  C_22 
ROOT
HETATM    1  C           1     -20.460  -5.029  -6.648  0.00  0.00     0.278 C 
ENDROOT
BRANCH   1   2
HETATM    2  C           1     -21.184  -3.826  -7.236  0.00  0.00     0.081 C 
BRANCH   2   3
HETATM    3  C           1     -21.398  -4.040  -8.703  0.00  0.00    -0.056 A 
HETATM    4  C           1     -22.655  -4.417  -9.177  0.00  0.00     0.007 A 
HETATM    5  C           1     -22.853  -4.616 -10.543  0.00  0.00     0.001 A 
HETATM    6  C           1     -21.795  -4.438 -11.435  0.00  0.00     0.000 A 
HETATM    7  C           1     -20.540  -4.061 -10.960  0.00  0.00     0.001 A 
HETATM    8  C           1     -20.341  -3.862  -9.595  0.00  0.00     0.007 A 
ENDBRANCH   2   3
ENDBRANCH   1   2
BRANCH   1   9
HETATM    9  C           1     -21.386  -5.765  -5.710  0.00  0.00     0.249 C 
HETATM   10  N           1     -20.879  -6.677  -4.822  0.00  0.00    -0.343 N 
HETATM   11  H           1     -19.883  -6.857  -4.796  0.00  0.00     0.163 HD
HETATM   12  O           1     -22.574  -5.549  -5.740  0.00  0.00    -0.271 OA
BRANCH  10  13
HETATM   13  C           1     -21.768  -7.383  -3.921  0.00  0.00     0.209 C 
BRANCH  13  14
HETATM   14  C           1     -21.599  -6.842  -2.523  0.00  0.00     0.198 C 
HETATM   15  O           1     -20.785  -7.375  -1.740  0.00  0.00    -0.646 OA
HETATM   16  O           1     -22.275  -5.860  -2.147  0.00  0.00    -0.646 OA
ENDBRANCH  13  14
BRANCH  13  17
HETATM   17  C           1     -21.431  -8.868  -3.936  0.00  0.00     0.200 C 
BRANCH  17  18
HETATM   18  O           1     -20.041  -9.031  -4.026  0.00  0.00    -0.398 OA
HETATM   19  H           1     -19.794  -8.793  -4.903  0.00  0.00     0.209 HD
ENDBRANCH  17  18
ENDBRANCH  13  17
ENDBRANCH  10  13
ENDBRANCH   1   9
BRANCH   1  20
HETATM   20  N           1     -20.039  -5.949  -7.756  0.00  0.00    -0.066 N 
HETATM   21  H           1     -19.786  -6.881  -7.357  0.00  0.00     0.275 HD
HETATM   22  H           1     -19.211  -5.545  -8.249  0.00  0.00     0.275 HD
HETATM   23  H           1     -20.827  -6.061  -8.434  0.00  0.00     0.275 HD
ENDBRANCH   1  20
TORSDOF 8
ENDMDL
