MODEL 1
REMARK VINA RESULT:      -5.4      0.000      0.000
REMARK  6 active torsions:
REMARK  status: ('A' for Active; 'I' for Inactive)
REMARK    1  A    between atoms: O_2  and  C_4 
REMARK    2  A    between atoms: C_3  and  C_9 
REMARK    3  A    between atoms: C_4  and  C_11 
REMARK    4  A    between atoms: N_5  and  C_11 
REMARK    5  A    between atoms: C_9  and  N_12 
REMARK    6  A    between atoms: C_11  and  C_13 
REMARK       I    between atoms: N_12  and  C_13 
ROOT
HETATM    1  H           1     -28.032  -7.111 -20.126  0.00  0.00     0.163 HD
HETATM    2  O           1     -26.108  -6.225 -17.812  0.00  0.00    -0.271 OA
HETATM    3  N           1     -27.759  -6.781 -19.210  0.00  0.00    -0.345 N 
HETATM    4  C           1     -26.433  -6.619 -18.906  0.00  0.00     0.251 C 
ENDROOT
BRANCH   4   5
HETATM    5  C           1     -25.380  -6.935 -19.939  0.00  0.00     0.297 C 
BRANCH   5   6
HETATM    6  C           1     -25.961  -7.877 -20.986  0.00  0.00     0.206 C 
BRANCH   6   7
HETATM    7  O           1     -24.918  -8.476 -21.708  0.00  0.00    -0.398 OA
HETATM    8  H           1     -24.430  -9.002 -21.098  0.00  0.00     0.209 HD
ENDBRANCH   6   7
ENDBRANCH   5   6
BRANCH   5   9
HETATM    9  N           1     -24.208  -7.592 -19.273  0.00  0.00    -0.064 N 
HETATM   10  H           1     -24.345  -7.582 -18.236  0.00  0.00     0.275 HD
HETATM   11  H           1     -24.129  -8.581 -19.602  0.00  0.00     0.275 HD
HETATM   12  H           1     -23.333  -7.073 -19.513  0.00  0.00     0.275 HD
ENDBRANCH   5   9
ENDBRANCH   4   5
BRANCH   3  13
HETATM   13  C           1     -28.772  -6.477 -18.217  0.00  0.00     0.181 C 
HETATM   14  C           1     -29.290  -5.062 -18.437  0.00  0.00     0.043 C 
BRANCH  13  15
HETATM   15  C           1     -29.912  -7.457 -18.348  0.00  0.00     0.196 C 
HETATM   16  O           1     -30.972  -7.271 -17.712  0.00  0.00    -0.646 OA
HETATM   17  O           1     -29.796  -8.455 -19.092  0.00  0.00    -0.646 OA
ENDBRANCH  13  15
ENDBRANCH   3  13
TORSDOF 6
ENDMDL
MODEL 2
REMARK VINA RESULT:      -5.4      3.224      4.874
REMARK  6 active torsions:
REMARK  status: ('A' for Active; 'I' for Inactive)
REMARK    1  A    between atoms: O_2  and  C_4 
REMARK    2  A    between atoms: C_3  and  C_9 
REMARK    3  A    between atoms: C_4  and  C_11 
REMARK    4  A    between atoms: N_5  and  C_11 
REMARK    5  A    between atoms: C_9  and  N_12 
REMARK    6  A    between atoms: C_11  and  C_13 
REMARK       I    between atoms: N_12  and  C_13 
ROOT
HETATM    1  H           1     -28.281  -7.599 -16.756  0.00  0.00     0.163 HD
HETATM    2  O           1     -29.091  -5.256 -18.678  0.00  0.00    -0.271 OA
HETATM    3  N           1     -28.257  -6.676 -17.170  0.00  0.00    -0.345 N 
HETATM    4  C           1     -29.119  -6.358 -18.185  0.00  0.00     0.251 C 
ENDROOT
BRANCH   4   5
HETATM    5  C           1     -30.106  -7.384 -18.686  0.00  0.00     0.297 C 
BRANCH   5   6
HETATM    6  C           1     -31.301  -7.442 -17.744  0.00  0.00     0.206 C 
BRANCH   6   7
HETATM    7  O           1     -31.300  -6.311 -16.916  0.00  0.00    -0.398 OA
HETATM    8  H           1     -30.996  -5.589 -17.439  0.00  0.00     0.209 HD
ENDBRANCH   6   7
ENDBRANCH   5   6
BRANCH   5   9
HETATM    9  N           1     -29.444  -8.729 -18.736  0.00  0.00    -0.064 N 
HETATM   10  H           1     -28.762  -8.753 -19.528  0.00  0.00     0.275 HD
HETATM   11  H           1     -28.939  -8.903 -17.838  0.00  0.00     0.275 HD
HETATM   12  H           1     -30.168  -9.469 -18.878  0.00  0.00     0.275 HD
ENDBRANCH   5   9
ENDBRANCH   4   5
BRANCH   3  13
HETATM   13  C           1     -27.309  -5.690 -16.687  0.00  0.00     0.181 C 
HETATM   14  C           1     -28.001  -4.764 -15.696  0.00  0.00     0.043 C 
BRANCH  13  15
HETATM   15  C           1     -26.160  -6.390 -16.005  0.00  0.00     0.196 C 
HETATM   16  O           1     -25.019  -5.881 -16.021  0.00  0.00    -0.646 OA
HETATM   17  O           1     -26.350  -7.481 -15.423  0.00  0.00    -0.646 OA
ENDBRANCH  13  15
ENDBRANCH   3  13
TORSDOF 6
ENDMDL
MODEL 3
REMARK VINA RESULT:      -5.3     11.294     12.569
REMARK  6 active torsions:
REMARK  status: ('A' for Active; 'I' for Inactive)
REMARK    1  A    between atoms: O_2  and  C_4 
REMARK    2  A    between atoms: C_3  and  C_9 
REMARK    3  A    between atoms: C_4  and  C_11 
REMARK    4  A    between atoms: N_5  and  C_11 
REMARK    5  A    between atoms: C_9  and  N_12 
REMARK    6  A    between atoms: C_11  and  C_13 
REMARK       I    between atoms: N_12  and  C_13 
ROOT
HETATM    1  H           1     -22.267  -5.744  -9.488  0.00  0.00     0.163 HD
HETATM    2  O           1     -21.670  -3.675  -7.207  0.00  0.00    -0.271 OA
HETATM    3  N           1     -22.221  -4.844  -9.028  0.00  0.00    -0.345 N 
HETATM    4  C           1     -21.726  -4.749  -7.755  0.00  0.00     0.251 C 
ENDROOT
BRANCH   4   5
HETATM    5  C           1     -21.250  -5.989  -7.037  0.00  0.00     0.297 C 
BRANCH   5   6
HETATM    6  C           1     -21.482  -5.830  -5.541  0.00  0.00     0.206 C 
BRANCH   6   7
HETATM    7  O           1     -22.857  -5.890  -5.271  0.00  0.00    -0.398 OA
HETATM    8  H           1     -22.949  -6.026  -4.343  0.00  0.00     0.209 HD
ENDBRANCH   6   7
ENDBRANCH   5   6
BRANCH   5   9
HETATM    9  N           1     -19.785  -6.184  -7.297  0.00  0.00    -0.064 N 
HETATM   10  H           1     -19.653  -6.616  -8.240  0.00  0.00     0.275 HD
HETATM   11  H           1     -19.300  -5.259  -7.268  0.00  0.00     0.275 HD
HETATM   12  H           1     -19.382  -6.813  -6.566  0.00  0.00     0.275 HD
ENDBRANCH   5   9
ENDBRANCH   4   5
BRANCH   3  13
HETATM   13  C           1     -22.678  -3.653  -9.718  0.00  0.00     0.181 C 
HETATM   14  C           1     -21.798  -3.402 -10.936  0.00  0.00     0.043 C 
BRANCH  13  15
HETATM   15  C           1     -24.107  -3.847 -10.161  0.00  0.00     0.196 C 
HETATM   16  O           1     -24.671  -2.975 -10.857  0.00  0.00    -0.646 OA
HETATM   17  O           1     -24.728  -4.881  -9.832  0.00  0.00    -0.646 OA
ENDBRANCH  13  15
ENDBRANCH   3  13
TORSDOF 6
ENDMDL
MODEL 4
REMARK VINA RESULT:      -5.3      1.928      2.451
REMARK  6 active torsions:
REMARK  status: ('A' for Active; 'I' for Inactive)
REMARK    1  A    between atoms: O_2  and  C_4 
REMARK    2  A    between atoms: C_3  and  C_9 
REMARK    3  A    between atoms: C_4  and  C_11 
REMARK    4  A    between atoms: N_5  and  C_11 
REMARK    5  A    between atoms: C_9  and  N_12 
REMARK    6  A    between atoms: C_11  and  C_13 
REMARK       I    between atoms: N_12  and  C_13 
ROOT
HETATM    1  H           1     -26.607  -7.156 -18.007  0.00  0.00     0.163 HD
HETATM    2  O           1     -27.034  -5.706 -20.756  0.00  0.00    -0.271 OA
HETATM    3  N           1     -27.075  -6.596 -18.708  0.00  0.00    -0.345 N 
HETATM    4  C           1     -26.476  -6.374 -19.919  0.00  0.00     0.251 C 
ENDROOT
BRANCH   4   5
HETATM    5  C           1     -25.117  -6.964 -20.208  0.00  0.00     0.297 C 
BRANCH   5   6
HETATM    6  C           1     -25.265  -8.124 -21.184  0.00  0.00     0.206 C 
BRANCH   6   7
HETATM    7  O           1     -26.599  -8.555 -21.202  0.00  0.00    -0.398 OA
HETATM    8  H           1     -26.673  -9.187 -21.897  0.00  0.00     0.209 HD
ENDBRANCH   6   7
ENDBRANCH   5   6
BRANCH   5   9
HETATM    9  N           1     -24.508  -7.462 -18.931  0.00  0.00    -0.064 N 
HETATM   10  H           1     -23.519  -7.751 -19.106  0.00  0.00     0.275 HD
HETATM   11  H           1     -24.525  -6.700 -18.216  0.00  0.00     0.275 HD
HETATM   12  H           1     -25.054  -8.281 -18.580  0.00  0.00     0.275 HD
ENDBRANCH   5   9
ENDBRANCH   4   5
BRANCH   3  13
HETATM   13  C           1     -28.381  -6.029 -18.430  0.00  0.00     0.181 C 
HETATM   14  C           1     -29.250  -7.071 -17.739  0.00  0.00     0.043 C 
BRANCH  13  15
HETATM   15  C           1     -28.225  -4.826 -17.533  0.00  0.00     0.196 C 
HETATM   16  O           1     -28.950  -3.822 -17.700  0.00  0.00    -0.646 OA
HETATM   17  O           1     -27.369  -4.834 -16.620  0.00  0.00    -0.646 OA
ENDBRANCH  13  15
ENDBRANCH   3  13
TORSDOF 6
ENDMDL
MODEL 5
REMARK VINA RESULT:      -5.2      1.948      4.431
REMARK  6 active torsions:
REMARK  status: ('A' for Active; 'I' for Inactive)
REMARK    1  A    between atoms: O_2  and  C_4 
REMARK    2  A    between atoms: C_3  and  C_9 
REMARK    3  A    between atoms: C_4  and  C_11 
REMARK    4  A    between atoms: N_5  and  C_11 
REMARK    5  A    between atoms: C_9  and  N_12 
REMARK    6  A    between atoms: C_11  and  C_13 
REMARK       I    between atoms: N_12  and  C_13 
ROOT
HETATM    1  H           1     -27.184  -8.059 -18.636  0.00  0.00     0.163 HD
HETATM    2  O           1     -28.451  -5.231 -19.122  0.00  0.00    -0.271 OA
HETATM    3  N           1     -27.358  -7.178 -19.102  0.00  0.00    -0.345 N 
HETATM    4  C           1     -28.244  -6.282 -18.565  0.00  0.00     0.251 C 
ENDROOT
BRANCH   4   5
HETATM    5  C           1     -28.960  -6.609 -17.278  0.00  0.00     0.297 C 
BRANCH   5   6
HETATM    6  C           1     -28.050  -6.294 -16.097  0.00  0.00     0.206 C 
BRANCH   6   7
HETATM    7  O           1     -27.038  -5.415 -16.507  0.00  0.00    -0.398 OA
HETATM    8  H           1     -27.439  -4.571 -16.624  0.00  0.00     0.209 HD
ENDBRANCH   6   7
ENDBRANCH   5   6
BRANCH   5   9
HETATM    9  N           1     -29.314  -8.066 -17.260  0.00  0.00    -0.064 N 
HETATM   10  H           1     -29.699  -8.320 -16.322  0.00  0.00     0.275 HD
HETATM   11  H           1     -30.033  -8.259 -17.994  0.00  0.00     0.275 HD
HETATM   12  H           1     -28.459  -8.636 -17.451  0.00  0.00     0.275 HD
ENDBRANCH   5   9
ENDBRANCH   4   5
BRANCH   3  13
HETATM   13  C           1     -26.670  -6.864 -20.340  0.00  0.00     0.181 C 
HETATM   14  C           1     -25.261  -6.377 -20.027  0.00  0.00     0.043 C 
BRANCH  13  15
HETATM   15  C           1     -26.596  -8.101 -21.201  0.00  0.00     0.196 C 
HETATM   16  O           1     -27.626  -8.776 -21.414  0.00  0.00    -0.646 OA
HETATM   17  O           1     -25.504  -8.450 -21.701  0.00  0.00    -0.646 OA
ENDBRANCH  13  15
ENDBRANCH   3  13
TORSDOF 6
ENDMDL
MODEL 6
REMARK VINA RESULT:      -4.9     11.892     13.223
REMARK  6 active torsions:
REMARK  status: ('A' for Active; 'I' for Inactive)
REMARK    1  A    between atoms: O_2  and  C_4 
REMARK    2  A    between atoms: C_3  and  C_9 
REMARK    3  A    between atoms: C_4  and  C_11 
REMARK    4  A    between atoms: N_5  and  C_11 
REMARK    5  A    between atoms: C_9  and  N_12 
REMARK    6  A    between atoms: C_11  and  C_13 
REMARK       I    between atoms: N_12  and  C_13 
ROOT
HETATM    1  H           1     -22.681  -4.818  -7.392  0.00  0.00     0.163 HD
HETATM    2  O           1     -20.169  -4.796  -9.270  0.00  0.00    -0.271 OA
HETATM    3  N           1     -21.727  -4.991  -7.683  0.00  0.00    -0.345 N 
HETATM    4  C           1     -21.307  -4.591  -8.923  0.00  0.00     0.251 C 
ENDROOT
BRANCH   4   5
HETATM    5  C           1     -22.266  -3.891  -9.855  0.00  0.00     0.297 C 
BRANCH   5   6
HETATM    6  C           1     -23.684  -4.372  -9.578  0.00  0.00     0.206 C 
BRANCH   6   7
HETATM    7  O           1     -24.215  -3.664  -8.490  0.00  0.00    -0.398 OA
HETATM    8  H           1     -24.964  -4.148  -8.187  0.00  0.00     0.209 HD
ENDBRANCH   6   7
ENDBRANCH   5   6
BRANCH   5   9
HETATM    9  N           1     -21.901  -4.207 -11.275  0.00  0.00    -0.064 N 
HETATM   10  H           1     -22.771  -4.293 -11.848  0.00  0.00     0.275 HD
HETATM   11  H           1     -21.306  -3.438 -11.660  0.00  0.00     0.275 HD
HETATM   12  H           1     -21.371  -5.107 -11.308  0.00  0.00     0.275 HD
ENDBRANCH   5   9
ENDBRANCH   4   5
BRANCH   3  13
HETATM   13  C           1     -20.806  -5.663  -6.786  0.00  0.00     0.181 C 
HETATM   14  C           1     -20.099  -4.630  -5.919  0.00  0.00     0.043 C 
BRANCH  13  15
HETATM   15  C           1     -21.570  -6.621  -5.907  0.00  0.00     0.196 C 
HETATM   16  O           1     -22.451  -6.192  -5.132  0.00  0.00    -0.646 OA
HETATM   17  O           1     -21.322  -7.846  -5.954  0.00  0.00    -0.646 OA
ENDBRANCH  13  15
ENDBRANCH   3  13
TORSDOF 6
ENDMDL
MODEL 7
REMARK VINA RESULT:      -4.8     12.108     13.384
REMARK  6 active torsions:
REMARK  status: ('A' for Active; 'I' for Inactive)
REMARK    1  A    between atoms: O_2  and  C_4 
REMARK    2  A    between atoms: C_3  and  C_9 
REMARK    3  A    between atoms: C_4  and  C_11 
REMARK    4  A    between atoms: N_5  and  C_11 
REMARK    5  A    between atoms: C_9  and  N_12 
REMARK    6  A    between atoms: C_11  and  C_13 
REMARK       I    between atoms: N_12  and  C_13 
ROOT
HETATM    1  H           1     -22.652  -5.450  -6.862  0.00  0.00     0.163 HD
HETATM    2  O           1     -20.608  -4.733  -9.131  0.00  0.00    -0.271 OA
HETATM    3  N           1     -21.753  -5.347  -7.315  0.00  0.00    -0.345 N 
HETATM    4  C           1     -21.681  -4.856  -8.591  0.00  0.00     0.251 C 
ENDROOT
BRANCH   4   5
HETATM    5  C           1     -22.943  -4.467  -9.322  0.00  0.00     0.297 C 
BRANCH   5   6
HETATM    6  C           1     -22.609  -3.454 -10.408  0.00  0.00     0.206 C 
BRANCH   6   7
HETATM    7  O           1     -22.365  -4.124 -11.616  0.00  0.00    -0.398 OA
HETATM    8  H           1     -22.941  -4.869 -11.636  0.00  0.00     0.209 HD
ENDBRANCH   6   7
ENDBRANCH   5   6
BRANCH   5   9
HETATM    9  N           1     -23.914  -3.860  -8.354  0.00  0.00    -0.064 N 
HETATM   10  H           1     -23.501  -2.990  -7.945  0.00  0.00     0.275 HD
HETATM   11  H           1     -24.800  -3.622  -8.853  0.00  0.00     0.275 HD
HETATM   12  H           1     -24.116  -4.542  -7.588  0.00  0.00     0.275 HD
ENDBRANCH   5   9
ENDBRANCH   4   5
BRANCH   3  13
HETATM   13  C           1     -20.541  -5.720  -6.612  0.00  0.00     0.181 C 
HETATM   14  C           1     -20.171  -4.623  -5.622  0.00  0.00     0.043 C 
BRANCH  13  15
HETATM   15  C           1     -20.769  -7.013  -5.869  0.00  0.00     0.196 C 
HETATM   16  O           1     -21.859  -7.219  -5.293  0.00  0.00    -0.646 OA
HETATM   17  O           1     -19.867  -7.879  -5.830  0.00  0.00    -0.646 OA
ENDBRANCH  13  15
ENDBRANCH   3  13
TORSDOF 6
ENDMDL
MODEL 8
REMARK VINA RESULT:      -4.7      3.219      5.652
REMARK  6 active torsions:
REMARK  status: ('A' for Active; 'I' for Inactive)
REMARK    1  A    between atoms: O_2  and  C_4 
REMARK    2  A    between atoms: C_3  and  C_9 
REMARK    3  A    between atoms: C_4  and  C_11 
REMARK    4  A    between atoms: N_5  and  C_11 
REMARK    5  A    between atoms: C_9  and  N_12 
REMARK    6  A    between atoms: C_11  and  C_13 
REMARK       I    between atoms: N_12  and  C_13 
ROOT
HETATM    1  H           1     -29.283  -4.643 -18.657  0.00  0.00     0.163 HD
HETATM    2  O           1     -29.962  -5.825 -15.832  0.00  0.00    -0.271 OA
HETATM    3  N           1     -29.204  -5.251 -17.852  0.00  0.00    -0.345 N 
HETATM    4  C           1     -30.056  -5.099 -16.792  0.00  0.00     0.251 C 
ENDROOT
BRANCH   4   5
HETATM    5  C           1     -31.114  -4.023 -16.824  0.00  0.00     0.297 C 
BRANCH   5   6
HETATM    6  C           1     -32.494  -4.668 -16.852  0.00  0.00     0.206 C 
BRANCH   6   7
HETATM    7  O           1     -32.361  -6.049 -17.058  0.00  0.00    -0.398 OA
HETATM    8  H           1     -32.224  -6.440 -16.211  0.00  0.00     0.209 HD
ENDBRANCH   6   7
ENDBRANCH   5   6
BRANCH   5   9
HETATM    9  N           1     -30.932  -3.180 -18.051  0.00  0.00    -0.064 N 
HETATM   10  H           1     -31.703  -3.380 -18.729  0.00  0.00     0.275 HD
HETATM   11  H           1     -30.956  -2.170 -17.786  0.00  0.00     0.275 HD
HETATM   12  H           1     -30.012  -3.403 -18.494  0.00  0.00     0.275 HD
ENDBRANCH   5   9
ENDBRANCH   4   5
BRANCH   3  13
HETATM   13  C           1     -28.187  -6.285 -17.822  0.00  0.00     0.181 C 
HETATM   14  C           1     -27.497  -6.358 -19.178  0.00  0.00     0.043 C 
BRANCH  13  15
HETATM   15  C           1     -27.170  -5.958 -16.756  0.00  0.00     0.196 C 
HETATM   16  O           1     -26.742  -6.859 -16.003  0.00  0.00    -0.646 OA
HETATM   17  O           1     -26.756  -4.785 -16.626  0.00  0.00    -0.646 OA
ENDBRANCH  13  15
ENDBRANCH   3  13
TORSDOF 6
ENDMDL
MODEL 9
REMARK VINA RESULT:      -4.7      2.712      3.414
REMARK  6 active torsions:
REMARK  status: ('A' for Active; 'I' for Inactive)
REMARK    1  A    between atoms: O_2  and  C_4 
REMARK    2  A    between atoms: C_3  and  C_9 
REMARK    3  A    between atoms: C_4  and  C_11 
REMARK    4  A    between atoms: N_5  and  C_11 
REMARK    5  A    between atoms: C_9  and  N_12 
REMARK    6  A    between atoms: C_11  and  C_13 
REMARK       I    between atoms: N_12  and  C_13 
ROOT
HETATM    1  H           1     -28.136  -5.096 -16.112  0.00  0.00     0.163 HD
HETATM    2  O           1     -27.404  -6.267 -18.928  0.00  0.00    -0.271 OA
HETATM    3  N           1     -28.259  -5.336 -17.087  0.00  0.00    -0.345 N 
HETATM    4  C           1     -27.258  -5.980 -17.765  0.00  0.00     0.251 C 
ENDROOT
BRANCH   4   5
HETATM    5  C           1     -25.973  -6.332 -17.056  0.00  0.00     0.297 C 
BRANCH   5   6
HETATM    6  C           1     -25.074  -7.123 -17.997  0.00  0.00     0.206 C 
BRANCH   6   7
HETATM    7  O           1     -24.553  -6.267 -18.978  0.00  0.00    -0.398 OA
HETATM    8  H           1     -25.170  -6.258 -19.690  0.00  0.00     0.209 HD
ENDBRANCH   6   7
ENDBRANCH   5   6
BRANCH   5   9
HETATM    9  N           1     -26.281  -7.161 -15.845  0.00  0.00    -0.064 N 
HETATM   10  H           1     -26.845  -7.995 -16.128  0.00  0.00     0.275 HD
HETATM   11  H           1     -25.389  -7.479 -15.404  0.00  0.00     0.275 HD
HETATM   12  H           1     -26.825  -6.590 -15.160  0.00  0.00     0.275 HD
ENDBRANCH   5   9
ENDBRANCH   4   5
BRANCH   3  13
HETATM   13  C           1     -29.494  -4.999 -17.768  0.00  0.00     0.181 C 
HETATM   14  C           1     -30.620  -5.880 -17.243  0.00  0.00     0.043 C 
BRANCH  13  15
HETATM   15  C           1     -29.828  -3.550 -17.513  0.00  0.00     0.196 C 
HETATM   16  O           1     -28.913  -2.727 -17.292  0.00  0.00    -0.646 OA
HETATM   17  O           1     -31.020  -3.171 -17.523  0.00  0.00    -0.646 OA
ENDBRANCH  13  15
ENDBRANCH   3  13
TORSDOF 6
ENDMDL
