MODEL 1
REMARK VINA RESULT:      -6.2      0.000      0.000
REMARK  9 active torsions:
REMARK  status: ('A' for Active; 'I' for Inactive)
REMARK    1  A    between atoms: C_2  and  C_24 
REMARK    2  A    between atoms: S_6  and  C_9 
REMARK    3  A    between atoms: N_8  and  C_16 
REMARK    4  A    between atoms: C_9  and  C_11 
REMARK    5  A    between atoms: C_11  and  C_16 
REMARK    6  A    between atoms: N_14  and  C_24 
REMARK       I    between atoms: N_14  and  C_15 
REMARK    7  A    between atoms: C_15  and  C_16 
REMARK    8  A    between atoms: C_22  and  C_23 
REMARK    9  A    between atoms: C_23  and  C_24 
ROOT
HETATM    1  O           1     -19.482  -6.543  -7.210  0.00  0.00    -0.271 OA
HETATM    2  N           1     -20.876  -7.734  -5.935  0.00  0.00    -0.344 N 
HETATM    3  C           1     -20.398  -6.547  -6.423  0.00  0.00     0.249 C 
HETATM    4  H           1     -21.623  -8.215  -6.417  0.00  0.00     0.163 HD
ENDROOT
BRANCH   2   5
HETATM    5  C           1     -20.312  -8.298  -4.724  0.00  0.00     0.189 C 
BRANCH   5   6
HETATM    6  C           1     -19.150  -9.192  -5.080  0.00  0.00     0.197 C 
HETATM    7  O           1     -19.184  -9.874  -6.127  0.00  0.00    -0.646 OA
HETATM    8  O           1     -18.153  -9.250  -4.329  0.00  0.00    -0.646 OA
ENDBRANCH   5   6
BRANCH   5   9
HETATM    9  C           1     -21.377  -9.112  -4.000  0.00  0.00     0.074 C 
BRANCH   9  10
HETATM   10  C           1     -21.706  -8.456  -2.696  0.00  0.00    -0.056 A 
HETATM   11  C           1     -21.842  -7.070  -2.627  0.00  0.00     0.007 A 
HETATM   12  C           1     -22.150  -6.458  -1.412  0.00  0.00     0.001 A 
HETATM   13  C           1     -22.322  -7.233  -0.265  0.00  0.00     0.000 A 
HETATM   14  C           1     -22.187  -8.619  -0.334  0.00  0.00     0.001 A 
HETATM   15  C           1     -21.879  -9.232  -1.549  0.00  0.00     0.007 A 
ENDBRANCH   9  10
ENDBRANCH   5   9
ENDBRANCH   2   5
BRANCH   3  16
HETATM   16  C           1     -21.017  -5.244  -5.979  0.00  0.00     0.275 C 
BRANCH  16  17
HETATM   17  N           1     -20.161  -4.624  -4.914  0.00  0.00    -0.066 N 
HETATM   18  H           1     -19.740  -3.738  -5.277  0.00  0.00     0.275 HD
HETATM   19  H           1     -19.401  -5.288  -4.648  0.00  0.00     0.275 HD
HETATM   20  H           1     -20.747  -4.411  -4.076  0.00  0.00     0.275 HD
ENDBRANCH  16  17
BRANCH  16  21
HETATM   21  C           1     -21.114  -4.297  -7.167  0.00  0.00     0.053 C 
BRANCH  21  22
HETATM   22  C           1     -22.509  -4.380  -7.771  0.00  0.00     0.076 C 
BRANCH  22  23
HETATM   23  S           1     -22.404  -4.177  -9.572  0.00  0.00    -0.173 SA
HETATM   24  C           1     -20.596  -4.292  -9.679  0.00  0.00     0.089 C 
ENDBRANCH  22  23
ENDBRANCH  21  22
ENDBRANCH  16  21
ENDBRANCH   3  16
TORSDOF 9
ENDMDL
MODEL 2
REMARK VINA RESULT:      -6.2      2.863      7.150
REMARK  9 active torsions:
REMARK  status: ('A' for Active; 'I' for Inactive)
REMARK    1  A    between atoms: C_2  and  C_24 
REMARK    2  A    between atoms: S_6  and  C_9 
REMARK    3  A    between atoms: N_8  and  C_16 
REMARK    4  A    between atoms: C_9  and  C_11 
REMARK    5  A    between atoms: C_11  and  C_16 
REMARK    6  A    between atoms: N_14  and  C_24 
REMARK       I    between atoms: N_14  and  C_15 
REMARK    7  A    between atoms: C_15  and  C_16 
REMARK    8  A    between atoms: C_22  and  C_23 
REMARK    9  A    between atoms: C_23  and  C_24 
ROOT
HETATM    1  O           1     -21.116  -5.842  -3.738  0.00  0.00    -0.271 OA
HETATM    2  N           1     -22.305  -5.802  -5.628  0.00  0.00    -0.344 N 
HETATM    3  C           1     -21.713  -6.462  -4.585  0.00  0.00     0.249 C 
HETATM    4  H           1     -23.262  -5.484  -5.548  0.00  0.00     0.163 HD
ENDROOT
BRANCH   2   5
HETATM    5  C           1     -21.560  -5.561  -6.849  0.00  0.00     0.189 C 
BRANCH   5   6
HETATM    6  C           1     -20.082  -5.586  -6.549  0.00  0.00     0.197 C 
HETATM    7  O           1     -19.529  -4.583  -6.048  0.00  0.00    -0.646 OA
HETATM    8  O           1     -19.410  -6.609  -6.800  0.00  0.00    -0.646 OA
ENDBRANCH   5   6
BRANCH   5   9
HETATM    9  C           1     -21.942  -4.200  -7.416  0.00  0.00     0.074 C 
BRANCH   9  10
HETATM   10  C           1     -21.895  -4.250  -8.911  0.00  0.00    -0.056 A 
HETATM   11  C           1     -20.688  -4.044  -9.579  0.00  0.00     0.007 A 
HETATM   12  C           1     -20.644  -4.091 -10.972  0.00  0.00     0.001 A 
HETATM   13  C           1     -21.808  -4.345 -11.698  0.00  0.00     0.000 A 
HETATM   14  C           1     -23.015  -4.552 -11.030  0.00  0.00     0.001 A 
HETATM   15  C           1     -23.059  -4.505  -9.637  0.00  0.00     0.007 A 
ENDBRANCH   9  10
ENDBRANCH   5   9
ENDBRANCH   2   5
BRANCH   3  16
HETATM   16  C           1     -21.808  -7.966  -4.492  0.00  0.00     0.275 C 
BRANCH  16  17
HETATM   17  N           1     -21.118  -8.583  -5.672  0.00  0.00    -0.066 N 
HETATM   18  H           1     -20.348  -9.207  -5.338  0.00  0.00     0.275 HD
HETATM   19  H           1     -20.719  -7.829  -6.275  0.00  0.00     0.275 HD
HETATM   20  H           1     -21.805  -9.144  -6.223  0.00  0.00     0.275 HD
ENDBRANCH  16  17
BRANCH  16  21
HETATM   21  C           1     -21.140  -8.438  -3.208  0.00  0.00     0.053 C 
BRANCH  21  22
HETATM   22  C           1     -21.845  -9.688  -2.697  0.00  0.00     0.076 C 
BRANCH  22  23
HETATM   23  S           1     -21.996  -9.603  -0.890  0.00  0.00    -0.173 SA
HETATM   24  C           1     -22.041  -7.792  -0.779  0.00  0.00     0.089 C 
ENDBRANCH  22  23
ENDBRANCH  21  22
ENDBRANCH  16  21
ENDBRANCH   3  16
TORSDOF 9
ENDMDL
MODEL 3
REMARK VINA RESULT:      -6.1      3.181      6.714
REMARK  9 active torsions:
REMARK  status: ('A' for Active; 'I' for Inactive)
REMARK    1  A    between atoms: C_2  and  C_24 
REMARK    2  A    between atoms: S_6  and  C_9 
REMARK    3  A    between atoms: N_8  and  C_16 
REMARK    4  A    between atoms: C_9  and  C_11 
REMARK    5  A    between atoms: C_11  and  C_16 
REMARK    6  A    between atoms: N_14  and  C_24 
REMARK       I    between atoms: N_14  and  C_15 
REMARK    7  A    between atoms: C_15  and  C_16 
REMARK    8  A    between atoms: C_22  and  C_23 
REMARK    9  A    between atoms: C_23  and  C_24 
ROOT
HETATM    1  O           1     -21.272  -5.280  -2.495  0.00  0.00    -0.271 OA
HETATM    2  N           1     -22.418  -6.345  -4.088  0.00  0.00    -0.344 N 
HETATM    3  C           1     -21.778  -6.307  -2.878  0.00  0.00     0.249 C 
HETATM    4  H           1     -23.406  -6.135  -4.145  0.00  0.00     0.163 HD
ENDROOT
BRANCH   2   5
HETATM    5  C           1     -21.680  -6.689  -5.287  0.00  0.00     0.189 C 
BRANCH   5   6
HETATM    6  C           1     -20.934  -7.982  -5.065  0.00  0.00     0.197 C 
HETATM    7  O           1     -19.697  -7.966  -4.884  0.00  0.00    -0.646 OA
HETATM    8  O           1     -21.552  -9.068  -5.060  0.00  0.00    -0.646 OA
ENDBRANCH   5   6
BRANCH   5   9
HETATM    9  C           1     -20.688  -5.579  -5.609  0.00  0.00     0.074 C 
BRANCH   9  10
HETATM   10  C           1     -20.960  -5.049  -6.982  0.00  0.00    -0.056 A 
HETATM   11  C           1     -22.204  -4.494  -7.282  0.00  0.00     0.007 A 
HETATM   12  C           1     -22.458  -3.999  -8.561  0.00  0.00     0.001 A 
HETATM   13  C           1     -21.467  -4.059  -9.541  0.00  0.00     0.000 A 
HETATM   14  C           1     -20.222  -4.613  -9.241  0.00  0.00     0.001 A 
HETATM   15  C           1     -19.968  -5.108  -7.962  0.00  0.00     0.007 A 
ENDBRANCH   9  10
ENDBRANCH   5   9
ENDBRANCH   2   5
BRANCH   3  16
HETATM   16  C           1     -21.707  -7.548  -2.022  0.00  0.00     0.275 C 
BRANCH  16  17
HETATM   17  N           1     -20.271  -7.877  -1.740  0.00  0.00    -0.066 N 
HETATM   18  H           1     -19.899  -8.494  -2.497  0.00  0.00     0.275 HD
HETATM   19  H           1     -20.201  -8.370  -0.822  0.00  0.00     0.275 HD
HETATM   20  H           1     -19.712  -6.995  -1.706  0.00  0.00     0.275 HD
ENDBRANCH  16  17
BRANCH  16  21
HETATM   21  C           1     -22.438  -7.303  -0.710  0.00  0.00     0.053 C 
BRANCH  21  22
HETATM   22  C           1     -22.136  -8.437   0.261  0.00  0.00     0.076 C 
BRANCH  22  23
HETATM   23  S           1     -23.095  -9.906  -0.205  0.00  0.00    -0.173 SA
HETATM   24  C           1     -21.716 -11.082  -0.112  0.00  0.00     0.089 C 
ENDBRANCH  22  23
ENDBRANCH  21  22
ENDBRANCH  16  21
ENDBRANCH   3  16
TORSDOF 9
ENDMDL
MODEL 4
REMARK VINA RESULT:      -6.0      3.528      5.411
REMARK  9 active torsions:
REMARK  status: ('A' for Active; 'I' for Inactive)
REMARK    1  A    between atoms: C_2  and  C_24 
REMARK    2  A    between atoms: S_6  and  C_9 
REMARK    3  A    between atoms: N_8  and  C_16 
REMARK    4  A    between atoms: C_9  and  C_11 
REMARK    5  A    between atoms: C_11  and  C_16 
REMARK    6  A    between atoms: N_14  and  C_24 
REMARK       I    between atoms: N_14  and  C_15 
REMARK    7  A    between atoms: C_15  and  C_16 
REMARK    8  A    between atoms: C_22  and  C_23 
REMARK    9  A    between atoms: C_23  and  C_24 
ROOT
HETATM    1  O           1     -19.112 -10.350  -4.768  0.00  0.00    -0.271 OA
HETATM    2  N           1     -19.624  -8.210  -4.386  0.00  0.00    -0.344 N 
HETATM    3  C           1     -19.038  -9.395  -4.033  0.00  0.00     0.249 C 
HETATM    4  H           1     -19.100  -7.524  -4.913  0.00  0.00     0.163 HD
ENDROOT
BRANCH   2   5
HETATM    5  C           1     -20.996  -7.937  -4.003  0.00  0.00     0.189 C 
BRANCH   5   6
HETATM    6  C           1     -21.674  -7.145  -5.094  0.00  0.00     0.197 C 
HETATM    7  O           1     -21.287  -7.254  -6.278  0.00  0.00    -0.646 OA
HETATM    8  O           1     -22.623  -6.382  -4.815  0.00  0.00    -0.646 OA
ENDBRANCH   5   6
BRANCH   5   9
HETATM    9  C           1     -21.012  -7.136  -2.708  0.00  0.00     0.074 C 
BRANCH   9  10
HETATM   10  C           1     -21.785  -7.884  -1.668  0.00  0.00    -0.056 A 
HETATM   11  C           1     -22.358  -7.198  -0.597  0.00  0.00     0.007 A 
HETATM   12  C           1     -23.079  -7.894   0.373  0.00  0.00     0.001 A 
HETATM   13  C           1     -23.226  -9.278   0.272  0.00  0.00     0.000 A 
HETATM   14  C           1     -22.653  -9.964  -0.799  0.00  0.00     0.001 A 
HETATM   15  C           1     -21.933  -9.267  -1.769  0.00  0.00     0.007 A 
ENDBRANCH   9  10
ENDBRANCH   5   9
ENDBRANCH   2   5
BRANCH   3  16
HETATM   16  C           1     -18.296  -9.510  -2.723  0.00  0.00     0.275 C 
BRANCH  16  17
HETATM   17  N           1     -18.635 -10.818  -2.071  0.00  0.00    -0.066 N 
HETATM   18  H           1     -17.779 -11.416  -2.023  0.00  0.00     0.275 HD
HETATM   19  H           1     -19.370 -11.305  -2.630  0.00  0.00     0.275 HD
HETATM   20  H           1     -18.991 -10.644  -1.104  0.00  0.00     0.275 HD
ENDBRANCH  16  17
BRANCH  16  21
HETATM   21  C           1     -16.797  -9.445  -2.980  0.00  0.00     0.053 C 
BRANCH  21  22
HETATM   22  C           1     -16.155 -10.769  -2.586  0.00  0.00     0.076 C 
BRANCH  22  23
HETATM   23  S           1     -15.594 -11.637  -4.078  0.00  0.00    -0.173 SA
HETATM   24  C           1     -15.560 -10.178  -5.157  0.00  0.00     0.089 C 
ENDBRANCH  22  23
ENDBRANCH  21  22
ENDBRANCH  16  21
ENDBRANCH   3  16
TORSDOF 9
ENDMDL
MODEL 5
REMARK VINA RESULT:      -6.0      3.493      4.660
REMARK  9 active torsions:
REMARK  status: ('A' for Active; 'I' for Inactive)
REMARK    1  A    between atoms: C_2  and  C_24 
REMARK    2  A    between atoms: S_6  and  C_9 
REMARK    3  A    between atoms: N_8  and  C_16 
REMARK    4  A    between atoms: C_9  and  C_11 
REMARK    5  A    between atoms: C_11  and  C_16 
REMARK    6  A    between atoms: N_14  and  C_24 
REMARK       I    between atoms: N_14  and  C_15 
REMARK    7  A    between atoms: C_15  and  C_16 
REMARK    8  A    between atoms: C_22  and  C_23 
REMARK    9  A    between atoms: C_23  and  C_24 
ROOT
HETATM    1  O           1     -22.192  -5.641  -2.420  0.00  0.00    -0.271 OA
HETATM    2  N           1     -21.121  -7.531  -1.900  0.00  0.00    -0.344 N 
HETATM    3  C           1     -21.742  -6.698  -2.792  0.00  0.00     0.249 C 
HETATM    4  H           1     -20.126  -7.452  -1.742  0.00  0.00     0.163 HD
ENDROOT
BRANCH   2   5
HETATM    5  C           1     -21.893  -8.527  -1.181  0.00  0.00     0.189 C 
BRANCH   5   6
HETATM    6  C           1     -22.304  -7.972   0.160  0.00  0.00     0.197 C 
HETATM    7  O           1     -23.451  -7.499   0.315  0.00  0.00    -0.646 OA
HETATM    8  O           1     -21.500  -7.986   1.116  0.00  0.00    -0.646 OA
ENDBRANCH   5   6
BRANCH   5   9
HETATM    9  C           1     -21.044  -9.775  -0.976  0.00  0.00     0.074 C 
BRANCH   9  10
HETATM   10  C           1     -21.913 -10.897  -0.500  0.00  0.00    -0.056 A 
HETATM   11  C           1     -21.491 -11.706   0.555  0.00  0.00     0.007 A 
HETATM   12  C           1     -22.301 -12.752   1.000  0.00  0.00     0.001 A 
HETATM   13  C           1     -23.532 -12.988   0.388  0.00  0.00     0.000 A 
HETATM   14  C           1     -23.954 -12.179  -0.666  0.00  0.00     0.001 A 
HETATM   15  C           1     -23.145 -11.133  -1.111  0.00  0.00     0.007 A 
ENDBRANCH   9  10
ENDBRANCH   5   9
ENDBRANCH   2   5
BRANCH   3  16
HETATM   16  C           1     -21.863  -7.101  -4.242  0.00  0.00     0.275 C 
BRANCH  16  17
HETATM   17  N           1     -22.921  -6.268  -4.904  0.00  0.00    -0.066 N 
HETATM   18  H           1     -23.700  -6.094  -4.229  0.00  0.00     0.275 HD
HETATM   19  H           1     -23.289  -6.774  -5.740  0.00  0.00     0.275 HD
HETATM   20  H           1     -22.510  -5.355  -5.202  0.00  0.00     0.275 HD
ENDBRANCH  16  17
BRANCH  16  21
HETATM   21  C           1     -20.530  -6.880  -4.944  0.00  0.00     0.053 C 
BRANCH  21  22
HETATM   22  C           1     -20.501  -5.484  -5.552  0.00  0.00     0.076 C 
BRANCH  22  23
HETATM   23  S           1     -20.182  -5.606  -7.334  0.00  0.00    -0.173 SA
HETATM   24  C           1     -21.574  -4.566  -7.858  0.00  0.00     0.089 C 
ENDBRANCH  22  23
ENDBRANCH  21  22
ENDBRANCH  16  21
ENDBRANCH   3  16
TORSDOF 9
ENDMDL
MODEL 6
REMARK VINA RESULT:      -6.0      3.549      5.591
REMARK  9 active torsions:
REMARK  status: ('A' for Active; 'I' for Inactive)
REMARK    1  A    between atoms: C_2  and  C_24 
REMARK    2  A    between atoms: S_6  and  C_9 
REMARK    3  A    between atoms: N_8  and  C_16 
REMARK    4  A    between atoms: C_9  and  C_11 
REMARK    5  A    between atoms: C_11  and  C_16 
REMARK    6  A    between atoms: N_14  and  C_24 
REMARK       I    between atoms: N_14  and  C_15 
REMARK    7  A    between atoms: C_15  and  C_16 
REMARK    8  A    between atoms: C_22  and  C_23 
REMARK    9  A    between atoms: C_23  and  C_24 
ROOT
HETATM    1  O           1     -20.318  -9.928  -5.820  0.00  0.00    -0.271 OA
HETATM    2  N           1     -20.026  -8.094  -4.579  0.00  0.00    -0.344 N 
HETATM    3  C           1     -19.879  -9.436  -4.809  0.00  0.00     0.249 C 
HETATM    4  H           1     -19.319  -7.446  -4.899  0.00  0.00     0.163 HD
ENDROOT
BRANCH   2   5
HETATM    5  C           1     -21.195  -7.603  -3.876  0.00  0.00     0.189 C 
BRANCH   5   6
HETATM    6  C           1     -21.711  -6.363  -4.564  0.00  0.00     0.197 C 
HETATM    7  O           1     -22.919  -6.278  -4.875  0.00  0.00    -0.646 OA
HETATM    8  O           1     -20.932  -5.421  -4.821  0.00  0.00    -0.646 OA
ENDBRANCH   5   6
BRANCH   5   9
HETATM    9  C           1     -20.820  -7.268  -2.438  0.00  0.00     0.074 C 
BRANCH   9  10
HETATM   10  C           1     -21.719  -8.011  -1.501  0.00  0.00    -0.056 A 
HETATM   11  C           1     -21.948  -9.374  -1.686  0.00  0.00     0.007 A 
HETATM   12  C           1     -22.786 -10.067  -0.812  0.00  0.00     0.001 A 
HETATM   13  C           1     -23.397  -9.395   0.247  0.00  0.00     0.000 A 
HETATM   14  C           1     -23.167  -8.032   0.433  0.00  0.00     0.001 A 
HETATM   15  C           1     -22.329  -7.339  -0.441  0.00  0.00     0.007 A 
ENDBRANCH   9  10
ENDBRANCH   5   9
ENDBRANCH   2   5
BRANCH   3  16
HETATM   16  C           1     -19.166 -10.301  -3.797  0.00  0.00     0.275 C 
BRANCH  16  17
HETATM   17  N           1     -18.576 -11.494  -4.490  0.00  0.00    -0.066 N 
HETATM   18  H           1     -17.895 -11.174  -5.216  0.00  0.00     0.275 HD
HETATM   19  H           1     -19.338 -12.044  -4.944  0.00  0.00     0.275 HD
HETATM   20  H           1     -18.082 -12.093  -3.791  0.00  0.00     0.275 HD
ENDBRANCH  16  17
BRANCH  16  21
HETATM   21  C           1     -18.055  -9.498  -3.136  0.00  0.00     0.053 C 
BRANCH  21  22
HETATM   22  C           1     -16.705  -9.958  -3.671  0.00  0.00     0.076 C 
BRANCH  22  23
HETATM   23  S           1     -15.738 -10.695  -2.324  0.00  0.00    -0.173 SA
HETATM   24  C           1     -14.916 -11.957  -3.336  0.00  0.00     0.089 C 
ENDBRANCH  22  23
ENDBRANCH  21  22
ENDBRANCH  16  21
ENDBRANCH   3  16
TORSDOF 9
ENDMDL
MODEL 7
REMARK VINA RESULT:      -5.9     12.824     15.004
REMARK  9 active torsions:
REMARK  status: ('A' for Active; 'I' for Inactive)
REMARK    1  A    between atoms: C_2  and  C_24 
REMARK    2  A    between atoms: S_6  and  C_9 
REMARK    3  A    between atoms: N_8  and  C_16 
REMARK    4  A    between atoms: C_9  and  C_11 
REMARK    5  A    between atoms: C_11  and  C_16 
REMARK    6  A    between atoms: N_14  and  C_24 
REMARK       I    between atoms: N_14  and  C_15 
REMARK    7  A    between atoms: C_15  and  C_16 
REMARK    8  A    between atoms: C_22  and  C_23 
REMARK    9  A    between atoms: C_23  and  C_24 
ROOT
HETATM    1  O           1     -25.381  -7.035 -15.060  0.00  0.00    -0.271 OA
HETATM    2  N           1     -26.945  -7.256 -16.639  0.00  0.00    -0.344 N 
HETATM    3  C           1     -25.659  -7.014 -16.235  0.00  0.00     0.249 C 
HETATM    4  H           1     -27.240  -8.201 -16.847  0.00  0.00     0.163 HD
ENDROOT
BRANCH   2   5
HETATM    5  C           1     -27.882  -6.158 -16.771  0.00  0.00     0.189 C 
BRANCH   5   6
HETATM    6  C           1     -28.302  -5.688 -15.400  0.00  0.00     0.197 C 
HETATM    7  O           1     -28.061  -4.515 -15.041  0.00  0.00    -0.646 OA
HETATM    8  O           1     -28.891  -6.471 -14.624  0.00  0.00    -0.646 OA
ENDBRANCH   5   6
BRANCH   5   9
HETATM    9  C           1     -29.107  -6.626 -17.546  0.00  0.00     0.074 C 
BRANCH   9  10
HETATM   10  C           1     -30.165  -5.569 -17.494  0.00  0.00    -0.056 A 
HETATM   11  C           1     -29.891  -4.284 -17.963  0.00  0.00     0.007 A 
HETATM   12  C           1     -30.878  -3.299 -17.915  0.00  0.00     0.001 A 
HETATM   13  C           1     -32.138  -3.598 -17.398  0.00  0.00     0.000 A 
HETATM   14  C           1     -32.412  -4.883 -16.930  0.00  0.00     0.001 A 
HETATM   15  C           1     -31.426  -5.869 -16.978  0.00  0.00     0.007 A 
ENDBRANCH   9  10
ENDBRANCH   5   9
ENDBRANCH   2   5
BRANCH   3  16
HETATM   16  C           1     -24.589  -6.721 -17.258  0.00  0.00     0.275 C 
BRANCH  16  17
HETATM   17  N           1     -23.487  -7.732 -17.130  0.00  0.00    -0.066 N 
HETATM   18  H           1     -23.827  -8.662 -17.466  0.00  0.00     0.275 HD
HETATM   19  H           1     -23.199  -7.806 -16.129  0.00  0.00     0.275 HD
HETATM   20  H           1     -22.670  -7.432 -17.707  0.00  0.00     0.275 HD
ENDBRANCH  16  17
BRANCH  16  21
HETATM   21  C           1     -25.187  -6.798 -18.656  0.00  0.00     0.053 C 
BRANCH  21  22
HETATM   22  C           1     -24.183  -7.438 -19.605  0.00  0.00     0.076 C 
BRANCH  22  23
HETATM   23  S           1     -25.021  -7.914 -21.143  0.00  0.00    -0.173 SA
HETATM   24  C           1     -23.513  -8.153 -22.125  0.00  0.00     0.089 C 
ENDBRANCH  22  23
ENDBRANCH  21  22
ENDBRANCH  16  21
ENDBRANCH   3  16
TORSDOF 9
ENDMDL
MODEL 8
REMARK VINA RESULT:      -5.9      3.787      5.563
REMARK  9 active torsions:
REMARK  status: ('A' for Active; 'I' for Inactive)
REMARK    1  A    between atoms: C_2  and  C_24 
REMARK    2  A    between atoms: S_6  and  C_9 
REMARK    3  A    between atoms: N_8  and  C_16 
REMARK    4  A    between atoms: C_9  and  C_11 
REMARK    5  A    between atoms: C_11  and  C_16 
REMARK    6  A    between atoms: N_14  and  C_24 
REMARK       I    between atoms: N_14  and  C_15 
REMARK    7  A    between atoms: C_15  and  C_16 
REMARK    8  A    between atoms: C_22  and  C_23 
REMARK    9  A    between atoms: C_23  and  C_24 
ROOT
HETATM    1  O           1     -19.923  -8.012  -5.858  0.00  0.00    -0.271 OA
HETATM    2  N           1     -20.014  -7.963  -3.627  0.00  0.00    -0.344 N 
HETATM    3  C           1     -19.822  -8.614  -4.816  0.00  0.00     0.249 C 
HETATM    4  H           1     -19.231  -7.527  -3.157  0.00  0.00     0.163 HD
ENDROOT
BRANCH   2   5
HETATM    5  C           1     -21.339  -7.900  -3.040  0.00  0.00     0.189 C 
BRANCH   5   6
HETATM    6  C           1     -21.857  -6.485  -3.121  0.00  0.00     0.197 C 
HETATM    7  O           1     -22.253  -5.905  -2.087  0.00  0.00    -0.646 OA
HETATM    8  O           1     -21.889  -5.893  -4.221  0.00  0.00    -0.646 OA
ENDBRANCH   5   6
BRANCH   5   9
HETATM    9  C           1     -21.270  -8.334  -1.582  0.00  0.00     0.074 C 
BRANCH   9  10
HETATM   10  C           1     -22.217  -9.469  -1.353  0.00  0.00    -0.056 A 
HETATM   11  C           1     -22.294 -10.510  -2.279  0.00  0.00     0.007 A 
HETATM   12  C           1     -23.177 -11.569  -2.066  0.00  0.00     0.001 A 
HETATM   13  C           1     -23.982 -11.588  -0.927  0.00  0.00     0.000 A 
HETATM   14  C           1     -23.903 -10.548  -0.001  0.00  0.00     0.001 A 
HETATM   15  C           1     -23.021  -9.488  -0.213  0.00  0.00     0.007 A 
ENDBRANCH   9  10
ENDBRANCH   5   9
ENDBRANCH   2   5
BRANCH   3  16
HETATM   16  C           1     -19.483 -10.085  -4.825  0.00  0.00     0.275 C 
BRANCH  16  17
HETATM   17  N           1     -18.968 -10.469  -6.180  0.00  0.00    -0.066 N 
HETATM   18  H           1     -19.426  -9.875  -6.908  0.00  0.00     0.275 HD
HETATM   19  H           1     -19.185 -11.474  -6.363  0.00  0.00     0.275 HD
HETATM   20  H           1     -17.934 -10.324  -6.215  0.00  0.00     0.275 HD
ENDBRANCH  16  17
BRANCH  16  21
HETATM   21  C           1     -18.414 -10.366  -3.778  0.00  0.00     0.053 C 
BRANCH  21  22
HETATM   22  C           1     -17.405 -11.362  -4.335  0.00  0.00     0.076 C 
BRANCH  22  23
HETATM   23  S           1     -15.842 -11.215  -3.425  0.00  0.00    -0.173 SA
HETATM   24  C           1     -16.100  -9.510  -2.860  0.00  0.00     0.089 C 
ENDBRANCH  22  23
ENDBRANCH  21  22
ENDBRANCH  16  21
ENDBRANCH   3  16
TORSDOF 9
ENDMDL
MODEL 9
REMARK VINA RESULT:      -5.7      2.479      3.524
REMARK  9 active torsions:
REMARK  status: ('A' for Active; 'I' for Inactive)
REMARK    1  A    between atoms: C_2  and  C_24 
REMARK    2  A    between atoms: S_6  and  C_9 
REMARK    3  A    between atoms: N_8  and  C_16 
REMARK    4  A    between atoms: C_9  and  C_11 
REMARK    5  A    between atoms: C_11  and  C_16 
REMARK    6  A    between atoms: N_14  and  C_24 
REMARK       I    between atoms: N_14  and  C_15 
REMARK    7  A    between atoms: C_15  and  C_16 
REMARK    8  A    between atoms: C_22  and  C_23 
REMARK    9  A    between atoms: C_23  and  C_24 
ROOT
HETATM    1  O           1     -20.256  -4.449  -6.137  0.00  0.00    -0.271 OA
HETATM    2  N           1     -20.398  -6.648  -6.503  0.00  0.00    -0.344 N 
HETATM    3  C           1     -20.694  -5.348  -6.814  0.00  0.00     0.249 C 
HETATM    4  H           1     -19.579  -7.088  -6.901  0.00  0.00     0.163 HD
ENDROOT
BRANCH   2   5
HETATM    5  C           1     -21.259  -7.393  -5.606  0.00  0.00     0.189 C 
BRANCH   5   6
HETATM    6  C           1     -22.067  -6.430  -4.771  0.00  0.00     0.197 C 
HETATM    7  O           1     -23.196  -6.060  -5.160  0.00  0.00    -0.646 OA
HETATM    8  O           1     -21.609  -6.004  -3.689  0.00  0.00    -0.646 OA
ENDBRANCH   5   6
BRANCH   5   9
HETATM    9  C           1     -20.407  -8.267  -4.694  0.00  0.00     0.074 C 
BRANCH   9  10
HETATM   10  C           1     -21.131  -9.545  -4.409  0.00  0.00    -0.056 A 
HETATM   11  C           1     -21.726  -9.747  -3.164  0.00  0.00     0.007 A 
HETATM   12  C           1     -22.401 -10.939  -2.898  0.00  0.00     0.001 A 
HETATM   13  C           1     -22.480 -11.929  -3.878  0.00  0.00     0.000 A 
HETATM   14  C           1     -21.885 -11.726  -5.123  0.00  0.00     0.001 A 
HETATM   15  C           1     -21.211 -10.535  -5.389  0.00  0.00     0.007 A 
ENDBRANCH   9  10
ENDBRANCH   5   9
ENDBRANCH   2   5
BRANCH   3  16
HETATM   16  C           1     -21.569  -5.036  -8.004  0.00  0.00     0.275 C 
BRANCH  16  17
HETATM   17  N           1     -22.662  -4.096  -7.587  0.00  0.00    -0.066 N 
HETATM   18  H           1     -22.277  -3.389  -6.921  0.00  0.00     0.275 HD
HETATM   19  H           1     -23.425  -4.635  -7.122  0.00  0.00     0.275 HD
HETATM   20  H           1     -23.042  -3.609  -8.430  0.00  0.00     0.275 HD
ENDBRANCH  16  17
BRANCH  16  21
HETATM   21  C           1     -20.730  -4.387  -9.095  0.00  0.00     0.053 C 
BRANCH  21  22
HETATM   22  C           1     -21.624  -3.531  -9.984  0.00  0.00     0.076 C 
BRANCH  22  23
HETATM   23  S           1     -21.891  -4.376 -11.568  0.00  0.00    -0.173 SA
HETATM   24  C           1     -23.599  -4.890 -11.234  0.00  0.00     0.089 C 
ENDBRANCH  22  23
ENDBRANCH  21  22
ENDBRANCH  16  21
ENDBRANCH   3  16
TORSDOF 9
ENDMDL
