MODEL 1
REMARK VINA RESULT:      -5.6      0.000      0.000
REMARK  8 active torsions:
REMARK  status: ('A' for Active; 'I' for Inactive)
REMARK    1  A    between atoms: C_5  and  C_6 
REMARK    2  A    between atoms: C_6  and  C_7 
REMARK    3  A    between atoms: C_6  and  N_15 
REMARK    4  A    between atoms: C_7  and  C_16 
REMARK       I    between atoms: C_13  and  N_15 
REMARK    5  A    between atoms: C_13  and  C_14 
REMARK    6  A    between atoms: C_14  and  N_20 
REMARK    7  A    between atoms: C_16  and  C_17 
REMARK    8  A    between atoms: C_17  and  N_18 
ROOT
HETATM    1  C           1     -35.102  -1.645 -11.417  0.00  0.00     0.185 C 
ENDROOT
BRANCH   1   2
HETATM    2  C           1     -36.203  -1.313 -10.440  0.00  0.00     0.196 C 
HETATM    3  O           1     -37.374  -1.685 -10.668  0.00  0.00    -0.646 OA
HETATM    4  O           1     -35.943  -0.664  -9.403  0.00  0.00    -0.646 OA
ENDBRANCH   1   2
BRANCH   1   5
HETATM    5  C           1     -33.884  -2.155 -10.657  0.00  0.00     0.038 C 
BRANCH   5   6
HETATM    6  C           1     -33.209  -3.259 -11.461  0.00  0.00     0.030 C 
BRANCH   6   7
HETATM    7  C           1     -34.253  -3.991 -12.295  0.00  0.00     0.230 C 
BRANCH   7   8
HETATM    8  N           1     -33.861  -3.942 -13.742  0.00  0.00    -0.079 N 
HETATM    9  H           1     -33.784  -4.914 -14.116  0.00  0.00     0.274 HD
HETATM   10  H           1     -34.587  -3.418 -14.282  0.00  0.00     0.274 HD
HETATM   11  H           1     -32.940  -3.458 -13.838  0.00  0.00     0.274 HD
ENDBRANCH   7   8
ENDBRANCH   6   7
ENDBRANCH   5   6
ENDBRANCH   1   5
BRANCH   1  12
HETATM   12  N           1     -34.741  -0.453 -12.161  0.00  0.00    -0.345 N 
HETATM   13  H           1     -34.232   0.293 -11.705  0.00  0.00     0.163 HD
HETATM   14  C           1     -35.090  -0.339 -13.480  0.00  0.00     0.243 C 
HETATM   15  O           1     -35.697  -1.230 -14.023  0.00  0.00    -0.272 OA
BRANCH  14  16
HETATM   16  C           1     -34.715   0.901 -14.254  0.00  0.00     0.332 C 
BRANCH  16  17
HETATM   17  N           1     -35.871   1.324 -15.112  0.00  0.00    -0.071 N 
HETATM   18  H           1     -36.206   2.264 -14.804  0.00  0.00     0.274 HD
HETATM   19  H           1     -36.645   0.628 -15.019  0.00  0.00     0.274 HD
HETATM   20  H           1     -35.565   1.372 -16.109  0.00  0.00     0.274 HD
ENDBRANCH  16  17
ENDBRANCH  14  16
ENDBRANCH   1  12
TORSDOF 8
ENDMDL
MODEL 2
REMARK VINA RESULT:      -5.4      2.328      4.409
REMARK  8 active torsions:
REMARK  status: ('A' for Active; 'I' for Inactive)
REMARK    1  A    between atoms: C_5  and  C_6 
REMARK    2  A    between atoms: C_6  and  C_7 
REMARK    3  A    between atoms: C_6  and  N_15 
REMARK    4  A    between atoms: C_7  and  C_16 
REMARK       I    between atoms: C_13  and  N_15 
REMARK    5  A    between atoms: C_13  and  C_14 
REMARK    6  A    between atoms: C_14  and  N_20 
REMARK    7  A    between atoms: C_16  and  C_17 
REMARK    8  A    between atoms: C_17  and  N_18 
ROOT
HETATM    1  C           1     -35.641  -0.298 -12.620  0.00  0.00     0.185 C 
ENDROOT
BRANCH   1   2
HETATM    2  C           1     -34.763  -1.504 -12.394  0.00  0.00     0.196 C 
HETATM    3  O           1     -34.727  -2.419 -13.246  0.00  0.00    -0.646 OA
HETATM    4  O           1     -34.074  -1.589 -11.355  0.00  0.00    -0.646 OA
ENDBRANCH   1   2
BRANCH   1   5
HETATM    5  C           1     -34.867   0.754 -13.406  0.00  0.00     0.038 C 
BRANCH   5   6
HETATM    6  C           1     -35.288   0.707 -14.869  0.00  0.00     0.030 C 
BRANCH   6   7
HETATM    7  C           1     -36.734   0.240 -14.967  0.00  0.00     0.230 C 
BRANCH   7   8
HETATM    8  N           1     -37.500   1.168 -15.862  0.00  0.00    -0.079 N 
HETATM    9  H           1     -37.093   2.129 -15.799  0.00  0.00     0.274 HD
HETATM   10  H           1     -37.438   0.829 -16.849  0.00  0.00     0.274 HD
HETATM   11  H           1     -38.501   1.194 -15.564  0.00  0.00     0.274 HD
ENDBRANCH   7   8
ENDBRANCH   6   7
ENDBRANCH   5   6
ENDBRANCH   1   5
BRANCH   1  12
HETATM   12  N           1     -36.041   0.254 -11.340  0.00  0.00    -0.345 N 
HETATM   13  H           1     -35.396   0.828 -10.813  0.00  0.00     0.163 HD
HETATM   14  C           1     -37.292  -0.001 -10.847  0.00  0.00     0.243 C 
HETATM   15  O           1     -38.062  -0.686 -11.477  0.00  0.00    -0.272 OA
BRANCH  14  16
HETATM   16  C           1     -37.709   0.573  -9.515  0.00  0.00     0.332 C 
BRANCH  16  17
HETATM   17  N           1     -36.584   1.388  -8.947  0.00  0.00    -0.071 N 
HETATM   18  H           1     -35.679   0.890  -9.105  0.00  0.00     0.274 HD
HETATM   19  H           1     -36.736   1.522  -7.922  0.00  0.00     0.274 HD
HETATM   20  H           1     -36.556   2.319  -9.419  0.00  0.00     0.274 HD
ENDBRANCH  16  17
ENDBRANCH  14  16
ENDBRANCH   1  12
TORSDOF 8
ENDMDL
MODEL 3
REMARK VINA RESULT:      -5.0     12.506     13.818
REMARK  8 active torsions:
REMARK  status: ('A' for Active; 'I' for Inactive)
REMARK    1  A    between atoms: C_5  and  C_6 
REMARK    2  A    between atoms: C_6  and  C_7 
REMARK    3  A    between atoms: C_6  and  N_15 
REMARK    4  A    between atoms: C_7  and  C_16 
REMARK       I    between atoms: C_13  and  N_15 
REMARK    5  A    between atoms: C_13  and  C_14 
REMARK    6  A    between atoms: C_14  and  N_20 
REMARK    7  A    between atoms: C_16  and  C_17 
REMARK    8  A    between atoms: C_17  and  N_18 
ROOT
HETATM    1  C           1     -21.637  -4.672  -8.218  0.00  0.00     0.185 C 
ENDROOT
BRANCH   1   2
HETATM    2  C           1     -21.503  -4.883  -6.730  0.00  0.00     0.196 C 
HETATM    3  O           1     -20.415  -4.646  -6.161  0.00  0.00    -0.646 OA
HETATM    4  O           1     -22.478  -5.297  -6.067  0.00  0.00    -0.646 OA
ENDBRANCH   1   2
BRANCH   1   5
HETATM    5  C           1     -20.319  -4.156  -8.780  0.00  0.00     0.038 C 
BRANCH   5   6
HETATM    6  C           1     -20.123  -4.693 -10.192  0.00  0.00     0.030 C 
BRANCH   6   7
HETATM    7  C           1     -20.443  -3.597 -11.201  0.00  0.00     0.230 C 
BRANCH   7   8
HETATM    8  N           1     -21.433  -4.113 -12.203  0.00  0.00    -0.079 N 
HETATM    9  H           1     -22.251  -3.466 -12.251  0.00  0.00     0.274 HD
HETATM   10  H           1     -20.978  -4.170 -13.143  0.00  0.00     0.274 HD
HETATM   11  H           1     -21.758  -5.064 -11.915  0.00  0.00     0.274 HD
ENDBRANCH   7   8
ENDBRANCH   6   7
ENDBRANCH   5   6
ENDBRANCH   1   5
BRANCH   1  12
HETATM   12  N           1     -22.684  -3.701  -8.475  0.00  0.00    -0.345 N 
HETATM   13  H           1     -22.718  -2.842  -7.942  0.00  0.00     0.163 HD
HETATM   14  C           1     -23.624  -3.948  -9.438  0.00  0.00     0.243 C 
HETATM   15  O           1     -23.583  -4.974 -10.073  0.00  0.00    -0.272 OA
BRANCH  14  16
HETATM   16  C           1     -24.714  -2.938  -9.704  0.00  0.00     0.332 C 
BRANCH  16  17
HETATM   17  N           1     -26.050  -3.618  -9.653  0.00  0.00    -0.071 N 
HETATM   18  H           1     -26.275  -4.013 -10.594  0.00  0.00     0.274 HD
HETATM   19  H           1     -26.783  -2.924  -9.381  0.00  0.00     0.274 HD
HETATM   20  H           1     -26.022  -4.389  -8.949  0.00  0.00     0.274 HD
ENDBRANCH  16  17
ENDBRANCH  14  16
ENDBRANCH   1  12
TORSDOF 8
ENDMDL
MODEL 4
REMARK VINA RESULT:      -5.0      1.851      2.214
REMARK  8 active torsions:
REMARK  status: ('A' for Active; 'I' for Inactive)
REMARK    1  A    between atoms: C_5  and  C_6 
REMARK    2  A    between atoms: C_6  and  C_7 
REMARK    3  A    between atoms: C_6  and  N_15 
REMARK    4  A    between atoms: C_7  and  C_16 
REMARK       I    between atoms: C_13  and  N_15 
REMARK    5  A    between atoms: C_13  and  C_14 
REMARK    6  A    between atoms: C_14  and  N_20 
REMARK    7  A    between atoms: C_16  and  C_17 
REMARK    8  A    between atoms: C_17  and  N_18 
ROOT
HETATM    1  C           1     -34.939  -2.363 -12.303  0.00  0.00     0.185 C 
ENDROOT
BRANCH   1   2
HETATM    2  C           1     -34.512  -1.768 -10.984  0.00  0.00     0.196 C 
HETATM    3  O           1     -33.313  -1.821 -10.633  0.00  0.00    -0.646 OA
HETATM    4  O           1     -35.358  -1.222 -10.242  0.00  0.00    -0.646 OA
ENDBRANCH   1   2
BRANCH   1   5
HETATM    5  C           1     -34.058  -3.562 -12.629  0.00  0.00     0.038 C 
BRANCH   5   6
HETATM    6  C           1     -34.687  -4.826 -12.057  0.00  0.00     0.030 C 
BRANCH   6   7
HETATM    7  C           1     -33.710  -5.488 -11.094  0.00  0.00     0.230 C 
BRANCH   7   8
HETATM    8  N           1     -34.142  -6.900 -10.835  0.00  0.00    -0.079 N 
HETATM    9  H           1     -35.136  -6.907 -10.513  0.00  0.00     0.274 HD
HETATM   10  H           1     -34.059  -7.457 -11.716  0.00  0.00     0.274 HD
HETATM   11  H           1     -33.534  -7.322 -10.097  0.00  0.00     0.274 HD
ENDBRANCH   7   8
ENDBRANCH   6   7
ENDBRANCH   5   6
ENDBRANCH   1   5
BRANCH   1  12
HETATM   12  N           1     -34.805  -1.367 -13.348  0.00  0.00    -0.345 N 
HETATM   13  H           1     -33.899  -1.183 -13.759  0.00  0.00     0.163 HD
HETATM   14  C           1     -35.905  -0.675 -13.779  0.00  0.00     0.243 C 
HETATM   15  O           1     -36.986  -0.894 -13.289  0.00  0.00    -0.272 OA
BRANCH  14  16
HETATM   16  C           1     -35.765   0.362 -14.866  0.00  0.00     0.332 C 
BRANCH  16  17
HETATM   17  N           1     -37.125   0.853 -15.268  0.00  0.00    -0.071 N 
HETATM   18  H           1     -37.790   0.722 -14.473  0.00  0.00     0.274 HD
HETATM   19  H           1     -37.459   0.311 -16.097  0.00  0.00     0.274 HD
HETATM   20  H           1     -37.070   1.867 -15.514  0.00  0.00     0.274 HD
ENDBRANCH  16  17
ENDBRANCH  14  16
ENDBRANCH   1  12
TORSDOF 8
ENDMDL
MODEL 5
REMARK VINA RESULT:      -4.8     12.244     13.888
REMARK  8 active torsions:
REMARK  status: ('A' for Active; 'I' for Inactive)
REMARK    1  A    between atoms: C_5  and  C_6 
REMARK    2  A    between atoms: C_6  and  C_7 
REMARK    3  A    between atoms: C_6  and  N_15 
REMARK    4  A    between atoms: C_7  and  C_16 
REMARK       I    between atoms: C_13  and  N_15 
REMARK    5  A    between atoms: C_13  and  C_14 
REMARK    6  A    between atoms: C_14  and  N_20 
REMARK    7  A    between atoms: C_16  and  C_17 
REMARK    8  A    between atoms: C_17  and  N_18 
ROOT
HETATM    1  C           1     -23.056  -3.748  -9.848  0.00  0.00     0.185 C 
ENDROOT
BRANCH   1   2
HETATM    2  C           1     -24.476  -3.344 -10.159  0.00  0.00     0.196 C 
HETATM    3  O           1     -25.172  -2.782  -9.286  0.00  0.00    -0.646 OA
HETATM    4  O           1     -24.957  -3.573 -11.290  0.00  0.00    -0.646 OA
ENDBRANCH   1   2
BRANCH   1   5
HETATM    5  C           1     -22.483  -4.537 -11.018  0.00  0.00     0.038 C 
BRANCH   5   6
HETATM    6  C           1     -21.534  -3.650 -11.814  0.00  0.00     0.030 C 
BRANCH   6   7
HETATM    7  C           1     -20.195  -3.566 -11.094  0.00  0.00     0.230 C 
BRANCH   7   8
HETATM    8  N           1     -19.865  -4.901 -10.493  0.00  0.00    -0.079 N 
HETATM    9  H           1     -18.910  -4.867 -10.070  0.00  0.00     0.274 HD
HETATM   10  H           1     -20.565  -5.131  -9.752  0.00  0.00     0.274 HD
HETATM   11  H           1     -19.890  -5.634 -11.237  0.00  0.00     0.274 HD
ENDBRANCH   7   8
ENDBRANCH   6   7
ENDBRANCH   5   6
ENDBRANCH   1   5
BRANCH   1  12
HETATM   12  N           1     -23.040  -4.574  -8.655  0.00  0.00    -0.345 N 
HETATM   13  H           1     -23.773  -5.254  -8.501  0.00  0.00     0.163 HD
HETATM   14  C           1     -22.033  -4.432  -7.740  0.00  0.00     0.243 C 
HETATM   15  O           1     -21.158  -3.621  -7.924  0.00  0.00    -0.272 OA
BRANCH  14  16
HETATM   16  C           1     -22.016  -5.291  -6.499  0.00  0.00     0.332 C 
BRANCH  16  17
HETATM   17  N           1     -21.095  -6.457  -6.708  0.00  0.00    -0.071 N 
HETATM   18  H           1     -20.218  -6.309  -6.159  0.00  0.00     0.274 HD
HETATM   19  H           1     -20.862  -6.537  -7.724  0.00  0.00     0.274 HD
HETATM   20  H           1     -21.563  -7.333  -6.388  0.00  0.00     0.274 HD
ENDBRANCH  16  17
ENDBRANCH  14  16
ENDBRANCH   1  12
TORSDOF 8
ENDMDL
MODEL 6
REMARK VINA RESULT:      -4.8      2.254      4.759
REMARK  8 active torsions:
REMARK  status: ('A' for Active; 'I' for Inactive)
REMARK    1  A    between atoms: C_5  and  C_6 
REMARK    2  A    between atoms: C_6  and  C_7 
REMARK    3  A    between atoms: C_6  and  N_15 
REMARK    4  A    between atoms: C_7  and  C_16 
REMARK       I    between atoms: C_13  and  N_15 
REMARK    5  A    between atoms: C_13  and  C_14 
REMARK    6  A    between atoms: C_14  and  N_20 
REMARK    7  A    between atoms: C_16  and  C_17 
REMARK    8  A    between atoms: C_17  and  N_18 
ROOT
HETATM    1  C           1     -35.794  -1.094 -12.622  0.00  0.00     0.185 C 
ENDROOT
BRANCH   1   2
HETATM    2  C           1     -35.574  -0.579 -14.023  0.00  0.00     0.196 C 
HETATM    3  O           1     -35.675   0.644 -14.262  0.00  0.00    -0.646 OA
HETATM    4  O           1     -35.294  -1.376 -14.944  0.00  0.00    -0.646 OA
ENDBRANCH   1   2
BRANCH   1   5
HETATM    5  C           1     -36.284   0.042 -11.733  0.00  0.00     0.038 C 
BRANCH   5   6
HETATM    6  C           1     -37.313  -0.492 -10.746  0.00  0.00     0.030 C 
BRANCH   6   7
HETATM    7  C           1     -36.832  -0.239  -9.323  0.00  0.00     0.230 C 
BRANCH   7   8
HETATM    8  N           1     -36.490   1.213  -9.161  0.00  0.00    -0.079 N 
HETATM    9  H           1     -37.277   1.706  -8.682  0.00  0.00     0.274 HD
HETATM   10  H           1     -35.622   1.304  -8.587  0.00  0.00     0.274 HD
HETATM   11  H           1     -36.333   1.641 -10.102  0.00  0.00     0.274 HD
ENDBRANCH   7   8
ENDBRANCH   6   7
ENDBRANCH   5   6
ENDBRANCH   1   5
BRANCH   1  12
HETATM   12  N           1     -34.546  -1.613 -12.097  0.00  0.00    -0.345 N 
HETATM   13  H           1     -33.792  -0.980 -11.865  0.00  0.00     0.163 HD
HETATM   14  C           1     -34.388  -2.961 -11.917  0.00  0.00     0.243 C 
HETATM   15  O           1     -35.287  -3.717 -12.194  0.00  0.00    -0.272 OA
BRANCH  14  16
HETATM   16  C           1     -33.089  -3.501 -11.371  0.00  0.00     0.332 C 
BRANCH  16  17
HETATM   17  N           1     -32.565  -4.566 -12.288  0.00  0.00    -0.071 N 
HETATM   18  H           1     -33.366  -5.059 -12.743  0.00  0.00     0.274 HD
HETATM   19  H           1     -31.999  -5.252 -11.738  0.00  0.00     0.274 HD
HETATM   20  H           1     -31.964  -4.129 -13.022  0.00  0.00     0.274 HD
ENDBRANCH  16  17
ENDBRANCH  14  16
ENDBRANCH   1  12
TORSDOF 8
ENDMDL
MODEL 7
REMARK VINA RESULT:      -4.7     13.448     15.164
REMARK  8 active torsions:
REMARK  status: ('A' for Active; 'I' for Inactive)
REMARK    1  A    between atoms: C_5  and  C_6 
REMARK    2  A    between atoms: C_6  and  C_7 
REMARK    3  A    between atoms: C_6  and  N_15 
REMARK    4  A    between atoms: C_7  and  C_16 
REMARK       I    between atoms: C_13  and  N_15 
REMARK    5  A    between atoms: C_13  and  C_14 
REMARK    6  A    between atoms: C_14  and  N_20 
REMARK    7  A    between atoms: C_16  and  C_17 
REMARK    8  A    between atoms: C_17  and  N_18 
ROOT
HETATM    1  C           1     -21.563  -4.848  -8.215  0.00  0.00     0.185 C 
ENDROOT
BRANCH   1   2
HETATM    2  C           1     -20.261  -4.445  -8.862  0.00  0.00     0.196 C 
HETATM    3  O           1     -19.401  -3.823  -8.202  0.00  0.00    -0.646 OA
HETATM    4  O           1     -20.044  -4.731 -10.060  0.00  0.00    -0.646 OA
ENDBRANCH   1   2
BRANCH   1   5
HETATM    5  C           1     -22.667  -3.895  -8.655  0.00  0.00     0.038 C 
BRANCH   5   6
HETATM    6  C           1     -23.491  -4.546  -9.758  0.00  0.00     0.030 C 
BRANCH   6   7
HETATM    7  C           1     -24.431  -3.513 -10.366  0.00  0.00     0.230 C 
BRANCH   7   8
HETATM    8  N           1     -25.749  -3.554  -9.652  0.00  0.00    -0.079 N 
HETATM    9  H           1     -25.914  -2.641  -9.170  0.00  0.00     0.274 HD
HETATM   10  H           1     -26.514  -3.725 -10.343  0.00  0.00     0.274 HD
HETATM   11  H           1     -25.739  -4.324  -8.945  0.00  0.00     0.274 HD
ENDBRANCH   7   8
ENDBRANCH   6   7
ENDBRANCH   5   6
ENDBRANCH   1   5
BRANCH   1  12
HETATM   12  N           1     -21.423  -4.792  -6.773  0.00  0.00    -0.345 N 
HETATM   13  H           1     -21.513  -3.907  -6.290  0.00  0.00     0.163 HD
HETATM   14  C           1     -21.169  -5.935  -6.065  0.00  0.00     0.243 C 
HETATM   15  O           1     -21.062  -6.991  -6.641  0.00  0.00    -0.272 OA
BRANCH  14  16
HETATM   16  C           1     -21.023  -5.876  -4.564  0.00  0.00     0.332 C 
BRANCH  16  17
HETATM   17  N           1     -22.322  -6.260  -3.919  0.00  0.00    -0.071 N 
HETATM   18  H           1     -22.447  -5.714  -3.036  0.00  0.00     0.274 HD
HETATM   19  H           1     -22.313  -7.282  -3.700  0.00  0.00     0.274 HD
HETATM   20  H           1     -23.111  -6.050  -4.571  0.00  0.00     0.274 HD
ENDBRANCH  16  17
ENDBRANCH  14  16
ENDBRANCH   1  12
TORSDOF 8
ENDMDL
MODEL 8
REMARK VINA RESULT:      -4.5     13.018     14.337
REMARK  8 active torsions:
REMARK  status: ('A' for Active; 'I' for Inactive)
REMARK    1  A    between atoms: C_5  and  C_6 
REMARK    2  A    between atoms: C_6  and  C_7 
REMARK    3  A    between atoms: C_6  and  N_15 
REMARK    4  A    between atoms: C_7  and  C_16 
REMARK       I    between atoms: C_13  and  N_15 
REMARK    5  A    between atoms: C_13  and  C_14 
REMARK    6  A    between atoms: C_14  and  N_20 
REMARK    7  A    between atoms: C_16  and  C_17 
REMARK    8  A    between atoms: C_17  and  N_18 
ROOT
HETATM    1  C           1     -21.941  -5.204  -6.775  0.00  0.00     0.185 C 
ENDROOT
BRANCH   1   2
HETATM    2  C           1     -22.524  -5.947  -5.598  0.00  0.00     0.196 C 
HETATM    3  O           1     -21.787  -6.650  -4.875  0.00  0.00    -0.646 OA
HETATM    4  O           1     -23.746  -5.859  -5.348  0.00  0.00    -0.646 OA
ENDBRANCH   1   2
BRANCH   1   5
HETATM    5  C           1     -20.698  -4.443  -6.331  0.00  0.00     0.038 C 
BRANCH   5   6
HETATM    6  C           1     -19.514  -4.854  -7.197  0.00  0.00     0.030 C 
BRANCH   6   7
HETATM    7  C           1     -19.428  -3.936  -8.409  0.00  0.00     0.230 C 
BRANCH   7   8
HETATM    8  N           1     -19.855  -4.685  -9.636  0.00  0.00    -0.079 N 
HETATM    9  H           1     -19.908  -5.706  -9.421  0.00  0.00     0.274 HD
HETATM   10  H           1     -20.796  -4.345  -9.941  0.00  0.00     0.274 HD
HETATM   11  H           1     -19.162  -4.526 -10.401  0.00  0.00     0.274 HD
ENDBRANCH   7   8
ENDBRANCH   6   7
ENDBRANCH   5   6
ENDBRANCH   1   5
BRANCH   1  12
HETATM   12  N           1     -22.922  -4.268  -7.289  0.00  0.00    -0.345 N 
HETATM   13  H           1     -23.396  -3.634  -6.658  0.00  0.00     0.163 HD
HETATM   14  C           1     -23.207  -4.242  -8.627  0.00  0.00     0.243 C 
HETATM   15  O           1     -22.641  -4.998  -9.380  0.00  0.00    -0.272 OA
BRANCH  14  16
HETATM   16  C           1     -24.228  -3.268  -9.162  0.00  0.00     0.332 C 
BRANCH  16  17
HETATM   17  N           1     -25.436  -4.020  -9.639  0.00  0.00    -0.071 N 
HETATM   18  H           1     -26.265  -3.384  -9.636  0.00  0.00     0.274 HD
HETATM   19  H           1     -25.614  -4.830  -9.002  0.00  0.00     0.274 HD
HETATM   20  H           1     -25.268  -4.370 -10.609  0.00  0.00     0.274 HD
ENDBRANCH  16  17
ENDBRANCH  14  16
ENDBRANCH   1  12
TORSDOF 8
ENDMDL
MODEL 9
REMARK VINA RESULT:      -4.5     14.303     16.049
REMARK  8 active torsions:
REMARK  status: ('A' for Active; 'I' for Inactive)
REMARK    1  A    between atoms: C_5  and  C_6 
REMARK    2  A    between atoms: C_6  and  C_7 
REMARK    3  A    between atoms: C_6  and  N_15 
REMARK    4  A    between atoms: C_7  and  C_16 
REMARK       I    between atoms: C_13  and  N_15 
REMARK    5  A    between atoms: C_13  and  C_14 
REMARK    6  A    between atoms: C_14  and  N_20 
REMARK    7  A    between atoms: C_16  and  C_17 
REMARK    8  A    between atoms: C_17  and  N_18 
ROOT
HETATM    1  C           1     -21.274  -5.563  -6.509  0.00  0.00     0.185 C 
ENDROOT
BRANCH   1   2
HETATM    2  C           1     -19.943  -5.786  -7.183  0.00  0.00     0.196 C 
HETATM    3  O           1     -19.427  -4.874  -7.866  0.00  0.00    -0.646 OA
HETATM    4  O           1     -19.357  -6.883  -7.061  0.00  0.00    -0.646 OA
ENDBRANCH   1   2
BRANCH   1   5
HETATM    5  C           1     -21.843  -4.217  -6.939  0.00  0.00     0.038 C 
BRANCH   5   6
HETATM    6  C           1     -23.259  -4.410  -7.467  0.00  0.00     0.030 C 
BRANCH   6   7
HETATM    7  C           1     -23.327  -3.953  -8.919  0.00  0.00     0.230 C 
BRANCH   7   8
HETATM    8  N           1     -24.617  -3.227  -9.155  0.00  0.00    -0.079 N 
HETATM    9  H           1     -24.656  -2.897 -10.146  0.00  0.00     0.274 HD
HETATM   10  H           1     -25.419  -3.873  -8.973  0.00  0.00     0.274 HD
HETATM   11  H           1     -24.678  -2.405  -8.512  0.00  0.00     0.274 HD
ENDBRANCH   7   8
ENDBRANCH   6   7
ENDBRANCH   5   6
ENDBRANCH   1   5
BRANCH   1  12
HETATM   12  N           1     -21.093  -5.572  -5.070  0.00  0.00    -0.345 N 
HETATM   13  H           1     -20.651  -4.786  -4.611  0.00  0.00     0.163 HD
HETATM   14  C           1     -21.521  -6.643  -4.334  0.00  0.00     0.243 C 
HETATM   15  O           1     -22.049  -7.581  -4.882  0.00  0.00    -0.272 OA
BRANCH  14  16
HETATM   16  C           1     -21.332  -6.653  -2.836  0.00  0.00     0.332 C 
BRANCH  16  17
HETATM   17  N           1     -22.418  -5.844  -2.190  0.00  0.00    -0.071 N 
HETATM   18  H           1     -23.212  -5.729  -2.859  0.00  0.00     0.274 HD
HETATM   19  H           1     -22.042  -4.904  -1.928  0.00  0.00     0.274 HD
HETATM   20  H           1     -22.754  -6.335  -1.331  0.00  0.00     0.274 HD
ENDBRANCH  16  17
ENDBRANCH  14  16
ENDBRANCH   1  12
TORSDOF 8
ENDMDL
