MODEL 1
REMARK VINA RESULT:      -7.6      0.000      0.000
REMARK  9 active torsions:
REMARK  status: ('A' for Active; 'I' for Inactive)
REMARK    1  A    between atoms: C_1  and  C_10 
REMARK    2  A    between atoms: C_1  and  C_8 
REMARK    3  A    between atoms: C_1  and  N_21 
REMARK    4  A    between atoms: C_2  and  O_3 
REMARK    5  A    between atoms: N_6  and  C_18 
REMARK       I    between atoms: N_6  and  C_10 
REMARK    6  A    between atoms: C_8  and  C_23 
REMARK    7  A    between atoms: C_11  and  C_17 
REMARK    8  A    between atoms: C_17  and  C_18 
REMARK    9  A    between atoms: C_18  and  C_19 
ROOT
HETATM    1  N           1     -21.654  -6.423  -5.770  0.00  0.00    -0.344 N 
HETATM    2  C           1     -21.017  -7.579  -5.406  0.00  0.00     0.249 C 
HETATM    3  O           1     -19.994  -7.905  -5.961  0.00  0.00    -0.271 OA
HETATM    4  H           1     -22.512  -6.150  -5.307  0.00  0.00     0.163 HD
ENDROOT
BRANCH   1   5
HETATM    5  C           1     -21.100  -5.589  -6.819  0.00  0.00     0.189 C 
BRANCH   5   6
HETATM    6  C           1     -22.157  -4.599  -7.290  0.00  0.00     0.074 C 
BRANCH   6   7
HETATM    7  C           1     -22.047  -4.417  -8.772  0.00  0.00    -0.056 A 
HETATM    8  C           1     -23.162  -4.622  -9.585  0.00  0.00     0.010 A 
HETATM    9  C           1     -23.060  -4.452 -10.965  0.00  0.00     0.037 A 
HETATM   10  C           1     -21.843  -4.078 -11.534  0.00  0.00     0.065 A 
HETATM   11  C           1     -20.727  -3.872 -10.721  0.00  0.00     0.037 A 
HETATM   12  C           1     -20.830  -4.041  -9.340  0.00  0.00     0.010 A 
BRANCH  10  13
HETATM   13  O           1     -21.743  -3.913 -12.874  0.00  0.00    -0.361 OA
HETATM   14  H           1     -21.524  -4.775 -13.268  0.00  0.00     0.217 HD
ENDBRANCH  10  13
ENDBRANCH   6   7
ENDBRANCH   5   6
BRANCH   5  15
HETATM   15  C           1     -19.907  -4.836  -6.284  0.00  0.00     0.197 C 
HETATM   16  O           1     -19.944  -4.337  -5.140  0.00  0.00    -0.646 OA
HETATM   17  O           1     -18.881  -4.710  -6.988  0.00  0.00    -0.646 OA
ENDBRANCH   5  15
ENDBRANCH   1   5
BRANCH   2  18
HETATM   18  C           1     -21.594  -8.447  -4.314  0.00  0.00     0.275 C 
BRANCH  18  19
HETATM   19  C           1     -20.878  -8.154  -3.002  0.00  0.00     0.046 C 
BRANCH  19  20
HETATM   20  C           1     -21.888  -7.669  -1.970  0.00  0.00    -0.020 C 
HETATM   21  C           1     -22.041  -6.158  -2.081  0.00  0.00     0.009 C 
HETATM   22  C           1     -21.398  -8.028  -0.573  0.00  0.00     0.009 C 
ENDBRANCH  19  20
ENDBRANCH  18  19
BRANCH  18  23
HETATM   23  N           1     -21.407  -9.891  -4.674  0.00  0.00    -0.066 N 
HETATM   24  H           1     -20.401 -10.151  -4.562  0.00  0.00     0.275 HD
HETATM   25  H           1     -21.991 -10.485  -4.042  0.00  0.00     0.275 HD
HETATM   26  H           1     -21.699 -10.044  -5.665  0.00  0.00     0.275 HD
ENDBRANCH  18  23
ENDBRANCH   2  18
TORSDOF 9
ENDMDL
MODEL 2
REMARK VINA RESULT:      -7.3     14.028     17.217
REMARK  9 active torsions:
REMARK  status: ('A' for Active; 'I' for Inactive)
REMARK    1  A    between atoms: C_1  and  C_10 
REMARK    2  A    between atoms: C_1  and  C_8 
REMARK    3  A    between atoms: C_1  and  N_21 
REMARK    4  A    between atoms: C_2  and  O_3 
REMARK    5  A    between atoms: N_6  and  C_18 
REMARK       I    between atoms: N_6  and  C_10 
REMARK    6  A    between atoms: C_8  and  C_23 
REMARK    7  A    between atoms: C_11  and  C_17 
REMARK    8  A    between atoms: C_17  and  C_18 
REMARK    9  A    between atoms: C_18  and  C_19 
ROOT
HETATM    1  N           1     -36.011   0.082 -11.430  0.00  0.00    -0.344 N 
HETATM    2  C           1     -36.613  -0.040 -12.654  0.00  0.00     0.249 C 
HETATM    3  O           1     -37.730  -0.492 -12.734  0.00  0.00    -0.271 OA
HETATM    4  H           1     -35.074   0.459 -11.362  0.00  0.00     0.163 HD
ENDROOT
BRANCH   1   5
HETATM    5  C           1     -36.715  -0.329 -10.232  0.00  0.00     0.189 C 
BRANCH   5   6
HETATM    6  C           1     -35.818  -1.241  -9.405  0.00  0.00     0.074 C 
BRANCH   6   7
HETATM    7  C           1     -35.050  -2.148 -10.315  0.00  0.00    -0.056 A 
HETATM    8  C           1     -35.715  -3.149 -11.024  0.00  0.00     0.010 A 
HETATM    9  C           1     -35.000  -3.994 -11.872  0.00  0.00     0.037 A 
HETATM   10  C           1     -33.621  -3.839 -12.013  0.00  0.00     0.065 A 
HETATM   11  C           1     -32.957  -2.837 -11.304  0.00  0.00     0.037 A 
HETATM   12  C           1     -33.672  -1.991 -10.456  0.00  0.00     0.010 A 
BRANCH  10  13
HETATM   13  O           1     -32.927  -4.660 -12.836  0.00  0.00    -0.361 OA
HETATM   14  H           1     -32.171  -4.161 -13.191  0.00  0.00     0.217 HD
ENDBRANCH  10  13
ENDBRANCH   6   7
ENDBRANCH   5   6
BRANCH   5  15
HETATM   15  C           1     -37.081   0.890  -9.420  0.00  0.00     0.197 C 
HETATM   16  O           1     -36.392   1.209  -8.428  0.00  0.00    -0.646 OA
HETATM   17  O           1     -38.073   1.579  -9.740  0.00  0.00    -0.646 OA
ENDBRANCH   5  15
ENDBRANCH   1   5
BRANCH   2  18
HETATM   18  C           1     -35.879   0.388 -13.902  0.00  0.00     0.275 C 
BRANCH  18  19
HETATM   19  C           1     -35.428  -0.845 -14.674  0.00  0.00     0.046 C 
BRANCH  19  20
HETATM   20  C           1     -35.781  -0.680 -16.146  0.00  0.00    -0.020 C 
HETATM   21  C           1     -37.295  -0.674 -16.308  0.00  0.00     0.009 C 
HETATM   22  C           1     -35.191  -1.836 -16.942  0.00  0.00     0.009 C 
ENDBRANCH  19  20
ENDBRANCH  18  19
BRANCH  18  23
HETATM   23  N           1     -34.682   1.205 -13.520  0.00  0.00    -0.066 N 
HETATM   24  H           1     -34.515   1.939 -14.246  0.00  0.00     0.275 HD
HETATM   25  H           1     -34.852   1.663 -12.597  0.00  0.00     0.275 HD
HETATM   26  H           1     -33.844   0.586 -13.452  0.00  0.00     0.275 HD
ENDBRANCH  18  23
ENDBRANCH   2  18
TORSDOF 9
ENDMDL
MODEL 3
REMARK VINA RESULT:      -7.1     11.421     14.523
REMARK  9 active torsions:
REMARK  status: ('A' for Active; 'I' for Inactive)
REMARK    1  A    between atoms: C_1  and  C_10 
REMARK    2  A    between atoms: C_1  and  C_8 
REMARK    3  A    between atoms: C_1  and  N_21 
REMARK    4  A    between atoms: C_2  and  O_3 
REMARK    5  A    between atoms: N_6  and  C_18 
REMARK       I    between atoms: N_6  and  C_10 
REMARK    6  A    between atoms: C_8  and  C_23 
REMARK    7  A    between atoms: C_11  and  C_17 
REMARK    8  A    between atoms: C_17  and  C_18 
REMARK    9  A    between atoms: C_18  and  C_19 
ROOT
HETATM    1  N           1     -25.951  -6.655 -18.499  0.00  0.00    -0.344 N 
HETATM    2  C           1     -26.273  -6.451 -19.814  0.00  0.00     0.249 C 
HETATM    3  O           1     -27.296  -5.877 -20.102  0.00  0.00    -0.271 OA
HETATM    4  H           1     -25.094  -7.137 -18.257  0.00  0.00     0.163 HD
ENDROOT
BRANCH   1   5
HETATM    5  C           1     -26.836  -6.182 -17.454  0.00  0.00     0.189 C 
BRANCH   5   6
HETATM    6  C           1     -28.179  -6.891 -17.568  0.00  0.00     0.074 C 
BRANCH   6   7
HETATM    7  C           1     -29.285  -5.885 -17.490  0.00  0.00    -0.056 A 
HETATM    8  C           1     -30.578  -6.295 -17.164  0.00  0.00     0.010 A 
HETATM    9  C           1     -31.609  -5.358 -17.090  0.00  0.00     0.037 A 
HETATM   10  C           1     -31.347  -4.011 -17.343  0.00  0.00     0.065 A 
HETATM   11  C           1     -30.053  -3.602 -17.668  0.00  0.00     0.037 A 
HETATM   12  C           1     -29.023  -4.538 -17.741  0.00  0.00     0.010 A 
BRANCH  10  13
HETATM   13  O           1     -32.347  -3.101 -17.272  0.00  0.00    -0.361 OA
HETATM   14  H           1     -32.870  -3.164 -18.089  0.00  0.00     0.217 HD
ENDBRANCH  10  13
ENDBRANCH   6   7
ENDBRANCH   5   6
BRANCH   5  15
HETATM   15  C           1     -26.224  -6.474 -16.106  0.00  0.00     0.197 C 
HETATM   16  O           1     -26.726  -7.350 -15.368  0.00  0.00    -0.646 OA
HETATM   17  O           1     -25.216  -5.841 -15.726  0.00  0.00    -0.646 OA
ENDBRANCH   5  15
ENDBRANCH   1   5
BRANCH   2  18
HETATM   18  C           1     -25.351  -6.944 -20.903  0.00  0.00     0.275 C 
BRANCH  18  19
HETATM   19  C           1     -24.119  -7.581 -20.274  0.00  0.00     0.046 C 
BRANCH  19  20
HETATM   20  C           1     -23.482  -8.544 -21.267  0.00  0.00    -0.020 C 
HETATM   21  C           1     -21.977  -8.587 -21.040  0.00  0.00     0.009 C 
HETATM   22  C           1     -23.766  -8.069 -22.687  0.00  0.00     0.009 C 
ENDBRANCH  19  20
ENDBRANCH  18  19
BRANCH  18  23
HETATM   23  N           1     -24.932  -5.789 -21.762  0.00  0.00    -0.066 N 
HETATM   24  H           1     -25.240  -4.894 -21.319  0.00  0.00     0.275 HD
HETATM   25  H           1     -23.891  -5.787 -21.860  0.00  0.00     0.275 HD
HETATM   26  H           1     -25.370  -5.880 -22.706  0.00  0.00     0.275 HD
ENDBRANCH  18  23
ENDBRANCH   2  18
TORSDOF 9
ENDMDL
MODEL 4
REMARK VINA RESULT:      -7.1      2.264      7.545
REMARK  9 active torsions:
REMARK  status: ('A' for Active; 'I' for Inactive)
REMARK    1  A    between atoms: C_1  and  C_10 
REMARK    2  A    between atoms: C_1  and  C_8 
REMARK    3  A    between atoms: C_1  and  N_21 
REMARK    4  A    between atoms: C_2  and  O_3 
REMARK    5  A    between atoms: N_6  and  C_18 
REMARK       I    between atoms: N_6  and  C_10 
REMARK    6  A    between atoms: C_8  and  C_23 
REMARK    7  A    between atoms: C_11  and  C_17 
REMARK    8  A    between atoms: C_17  and  C_18 
REMARK    9  A    between atoms: C_18  and  C_19 
ROOT
HETATM    1  N           1     -20.224  -6.716  -6.092  0.00  0.00    -0.344 N 
HETATM    2  C           1     -20.331  -5.357  -5.965  0.00  0.00     0.249 C 
HETATM    3  O           1     -20.326  -4.851  -4.868  0.00  0.00    -0.271 OA
HETATM    4  H           1     -20.229  -7.141  -7.011  0.00  0.00     0.163 HD
ENDROOT
BRANCH   1   5
HETATM    5  C           1     -20.103  -7.547  -4.911  0.00  0.00     0.189 C 
BRANCH   5   6
HETATM    6  C           1     -21.457  -8.161  -4.582  0.00  0.00     0.074 C 
BRANCH   6   7
HETATM    7  C           1     -21.709  -8.059  -3.110  0.00  0.00    -0.056 A 
HETATM    8  C           1     -21.960  -6.815  -2.531  0.00  0.00     0.010 A 
HETATM    9  C           1     -22.195  -6.719  -1.159  0.00  0.00     0.037 A 
HETATM   10  C           1     -22.179  -7.866  -0.367  0.00  0.00     0.065 A 
HETATM   11  C           1     -21.929  -9.110  -0.946  0.00  0.00     0.037 A 
HETATM   12  C           1     -21.694  -9.206  -2.317  0.00  0.00     0.010 A 
BRANCH  10  13
HETATM   13  O           1     -22.407  -7.773   0.965  0.00  0.00    -0.361 OA
HETATM   14  H           1     -22.332  -8.665   1.346  0.00  0.00     0.217 HD
ENDBRANCH  10  13
ENDBRANCH   6   7
ENDBRANCH   5   6
BRANCH   5  15
HETATM   15  C           1     -19.101  -8.646  -5.169  0.00  0.00     0.197 C 
HETATM   16  O           1     -18.775  -9.424  -4.248  0.00  0.00    -0.646 OA
HETATM   17  O           1     -18.597  -8.778  -6.306  0.00  0.00    -0.646 OA
ENDBRANCH   5  15
ENDBRANCH   1   5
BRANCH   2  18
HETATM   18  C           1     -20.457  -4.492  -7.195  0.00  0.00     0.275 C 
BRANCH  18  19
HETATM   19  C           1     -21.453  -5.122  -8.160  0.00  0.00     0.046 C 
BRANCH  19  20
HETATM   20  C           1     -22.072  -4.038  -9.032  0.00  0.00    -0.020 C 
HETATM   21  C           1     -23.587  -4.074  -8.890  0.00  0.00     0.009 C 
HETATM   22  C           1     -21.694  -4.280 -10.488  0.00  0.00     0.009 C 
ENDBRANCH  19  20
ENDBRANCH  18  19
BRANCH  18  23
HETATM   23  N           1     -19.120  -4.377  -7.863  0.00  0.00    -0.066 N 
HETATM   24  H           1     -18.755  -5.332  -8.081  0.00  0.00     0.275 HD
HETATM   25  H           1     -19.219  -3.834  -8.750  0.00  0.00     0.275 HD
HETATM   26  H           1     -18.453  -3.886  -7.227  0.00  0.00     0.275 HD
ENDBRANCH  18  23
ENDBRANCH   2  18
TORSDOF 9
ENDMDL
MODEL 5
REMARK VINA RESULT:      -7.1     14.004     16.158
REMARK  9 active torsions:
REMARK  status: ('A' for Active; 'I' for Inactive)
REMARK    1  A    between atoms: C_1  and  C_10 
REMARK    2  A    between atoms: C_1  and  C_8 
REMARK    3  A    between atoms: C_1  and  N_21 
REMARK    4  A    between atoms: C_2  and  O_3 
REMARK    5  A    between atoms: N_6  and  C_18 
REMARK       I    between atoms: N_6  and  C_10 
REMARK    6  A    between atoms: C_8  and  C_23 
REMARK    7  A    between atoms: C_11  and  C_17 
REMARK    8  A    between atoms: C_17  and  C_18 
REMARK    9  A    between atoms: C_18  and  C_19 
ROOT
HETATM    1  N           1     -35.819  -1.833 -11.075  0.00  0.00    -0.344 N 
HETATM    2  C           1     -34.499  -2.196 -11.086  0.00  0.00     0.249 C 
HETATM    3  O           1     -33.649  -1.389 -10.792  0.00  0.00    -0.271 OA
HETATM    4  H           1     -36.532  -2.508 -11.322  0.00  0.00     0.163 HD
ENDROOT
BRANCH   1   5
HETATM    5  C           1     -36.196  -0.481 -10.712  0.00  0.00     0.189 C 
BRANCH   5   6
HETATM    6  C           1     -37.402  -0.052 -11.537  0.00  0.00     0.074 C 
BRANCH   6   7
HETATM    7  C           1     -37.046  -0.070 -12.991  0.00  0.00    -0.056 A 
HETATM    8  C           1     -35.722   0.120 -13.386  0.00  0.00     0.010 A 
HETATM    9  C           1     -35.390   0.103 -14.741  0.00  0.00     0.037 A 
HETATM   10  C           1     -36.381  -0.104 -15.700  0.00  0.00     0.065 A 
HETATM   11  C           1     -37.705  -0.295 -15.304  0.00  0.00     0.037 A 
HETATM   12  C           1     -38.037  -0.278 -13.950  0.00  0.00     0.010 A 
BRANCH  10  13
HETATM   13  O           1     -36.058  -0.121 -17.015  0.00  0.00    -0.361 OA
HETATM   14  H           1     -35.437  -0.853 -17.163  0.00  0.00     0.217 HD
ENDBRANCH  10  13
ENDBRANCH   6   7
ENDBRANCH   5   6
BRANCH   5  15
HETATM   15  C           1     -36.546  -0.434  -9.244  0.00  0.00     0.197 C 
HETATM   16  O           1     -37.637  -0.898  -8.847  0.00  0.00    -0.646 OA
HETATM   17  O           1     -35.746   0.069  -8.426  0.00  0.00    -0.646 OA
ENDBRANCH   5  15
ENDBRANCH   1   5
BRANCH   2  18
HETATM   18  C           1     -34.106  -3.603 -11.464  0.00  0.00     0.275 C 
BRANCH  18  19
HETATM   19  C           1     -34.456  -4.551 -10.324  0.00  0.00     0.046 C 
BRANCH  19  20
HETATM   20  C           1     -34.296  -5.991 -10.794  0.00  0.00    -0.020 C 
HETATM   21  C           1     -35.072  -6.192 -12.089  0.00  0.00     0.009 C 
HETATM   22  C           1     -34.836  -6.936  -9.728  0.00  0.00     0.009 C 
ENDBRANCH  19  20
ENDBRANCH  18  19
BRANCH  18  23
HETATM   23  N           1     -32.631  -3.657 -11.723  0.00  0.00    -0.066 N 
HETATM   24  H           1     -32.215  -2.710 -11.570  0.00  0.00     0.275 HD
HETATM   25  H           1     -32.187  -4.341 -11.070  0.00  0.00     0.275 HD
HETATM   26  H           1     -32.460  -3.957 -12.709  0.00  0.00     0.275 HD
ENDBRANCH  18  23
ENDBRANCH   2  18
TORSDOF 9
ENDMDL
MODEL 6
REMARK VINA RESULT:      -6.8      2.579      7.693
REMARK  9 active torsions:
REMARK  status: ('A' for Active; 'I' for Inactive)
REMARK    1  A    between atoms: C_1  and  C_10 
REMARK    2  A    between atoms: C_1  and  C_8 
REMARK    3  A    between atoms: C_1  and  N_21 
REMARK    4  A    between atoms: C_2  and  O_3 
REMARK    5  A    between atoms: N_6  and  C_18 
REMARK       I    between atoms: N_6  and  C_10 
REMARK    6  A    between atoms: C_8  and  C_23 
REMARK    7  A    between atoms: C_11  and  C_17 
REMARK    8  A    between atoms: C_17  and  C_18 
REMARK    9  A    between atoms: C_18  and  C_19 
ROOT
HETATM    1  N           1     -20.792  -7.979  -4.427  0.00  0.00    -0.344 N 
HETATM    2  C           1     -20.524  -7.259  -5.560  0.00  0.00     0.249 C 
HETATM    3  O           1     -19.550  -7.521  -6.225  0.00  0.00    -0.271 OA
HETATM    4  H           1     -21.607  -7.759  -3.869  0.00  0.00     0.163 HD
ENDROOT
BRANCH   1   5
HETATM    5  C           1     -19.907  -9.055  -4.026  0.00  0.00     0.189 C 
BRANCH   5   6
HETATM    6  C           1     -19.415  -8.805  -2.606  0.00  0.00     0.074 C 
BRANCH   6   7
HETATM    7  C           1     -20.581  -8.496  -1.719  0.00  0.00    -0.056 A 
HETATM    8  C           1     -21.053  -9.461  -0.828  0.00  0.00     0.010 A 
HETATM    9  C           1     -22.138  -9.174  -0.001  0.00  0.00     0.037 A 
HETATM   10  C           1     -22.754  -7.924  -0.065  0.00  0.00     0.065 A 
HETATM   11  C           1     -22.282  -6.960  -0.956  0.00  0.00     0.037 A 
HETATM   12  C           1     -21.196  -7.246  -1.783  0.00  0.00     0.010 A 
BRANCH  10  13
HETATM   13  O           1     -23.808  -7.646   0.738  0.00  0.00    -0.361 OA
HETATM   14  H           1     -24.096  -8.475   1.155  0.00  0.00     0.217 HD
ENDBRANCH  10  13
ENDBRANCH   6   7
ENDBRANCH   5   6
BRANCH   5  15
HETATM   15  C           1     -20.655 -10.365  -4.076  0.00  0.00     0.197 C 
HETATM   16  O           1     -21.879 -10.377  -4.326  0.00  0.00    -0.646 OA
HETATM   17  O           1     -20.049 -11.439  -3.867  0.00  0.00    -0.646 OA
ENDBRANCH   5  15
ENDBRANCH   1   5
BRANCH   2  18
HETATM   18  C           1     -21.445  -6.139  -5.978  0.00  0.00     0.275 C 
BRANCH  18  19
HETATM   19  C           1     -20.720  -4.807  -5.837  0.00  0.00     0.046 C 
BRANCH  19  20
HETATM   20  C           1     -20.633  -4.129  -7.199  0.00  0.00    -0.020 C 
HETATM   21  C           1     -21.672  -4.733  -8.134  0.00  0.00     0.009 C 
HETATM   22  C           1     -19.242  -4.340  -7.783  0.00  0.00     0.009 C 
ENDBRANCH  19  20
ENDBRANCH  18  19
BRANCH  18  23
HETATM   23  N           1     -22.662  -6.141  -5.102  0.00  0.00    -0.066 N 
HETATM   24  H           1     -22.773  -5.201  -4.658  0.00  0.00     0.275 HD
HETATM   25  H           1     -23.506  -6.354  -5.679  0.00  0.00     0.275 HD
HETATM   26  H           1     -22.555  -6.867  -4.359  0.00  0.00     0.275 HD
ENDBRANCH  18  23
ENDBRANCH   2  18
TORSDOF 9
ENDMDL
MODEL 7
REMARK VINA RESULT:      -6.8      3.725      8.935
REMARK  9 active torsions:
REMARK  status: ('A' for Active; 'I' for Inactive)
REMARK    1  A    between atoms: C_1  and  C_10 
REMARK    2  A    between atoms: C_1  and  C_8 
REMARK    3  A    between atoms: C_1  and  N_21 
REMARK    4  A    between atoms: C_2  and  O_3 
REMARK    5  A    between atoms: N_6  and  C_18 
REMARK       I    between atoms: N_6  and  C_10 
REMARK    6  A    between atoms: C_8  and  C_23 
REMARK    7  A    between atoms: C_11  and  C_17 
REMARK    8  A    between atoms: C_17  and  C_18 
REMARK    9  A    between atoms: C_18  and  C_19 
ROOT
HETATM    1  N           1     -20.887  -7.881  -2.513  0.00  0.00    -0.344 N 
HETATM    2  C           1     -21.048  -8.328  -3.798  0.00  0.00     0.249 C 
HETATM    3  O           1     -21.955  -9.079  -4.066  0.00  0.00    -0.271 OA
HETATM    4  H           1     -20.127  -7.252  -2.288  0.00  0.00     0.163 HD
ENDROOT
BRANCH   1   5
HETATM    5  C           1     -21.806  -8.307  -1.477  0.00  0.00     0.189 C 
BRANCH   5   6
HETATM    6  C           1     -21.035  -9.039  -0.386  0.00  0.00     0.074 C 
BRANCH   6   7
HETATM    7  C           1     -21.720 -10.332  -0.070  0.00  0.00    -0.056 A 
HETATM    8  C           1     -21.036 -11.332   0.622  0.00  0.00     0.010 A 
HETATM    9  C           1     -21.674 -12.537   0.917  0.00  0.00     0.037 A 
HETATM   10  C           1     -22.995 -12.742   0.521  0.00  0.00     0.065 A 
HETATM   11  C           1     -23.680 -11.741  -0.170  0.00  0.00     0.037 A 
HETATM   12  C           1     -23.042 -10.536  -0.465  0.00  0.00     0.010 A 
BRANCH  10  13
HETATM   13  O           1     -23.615 -13.912   0.807  0.00  0.00    -0.361 OA
HETATM   14  H           1     -24.528 -13.857   0.478  0.00  0.00     0.217 HD
ENDBRANCH  10  13
ENDBRANCH   6   7
ENDBRANCH   5   6
BRANCH   5  15
HETATM   15  C           1     -22.494  -7.100  -0.886  0.00  0.00     0.197 C 
HETATM   16  O           1     -23.150  -7.211   0.171  0.00  0.00    -0.646 OA
HETATM   17  O           1     -22.406  -5.991  -1.454  0.00  0.00    -0.646 OA
ENDBRANCH   5  15
ENDBRANCH   1   5
BRANCH   2  18
HETATM   18  C           1     -20.091  -7.883  -4.877  0.00  0.00     0.275 C 
BRANCH  18  19
HETATM   19  C           1     -20.849  -7.087  -5.931  0.00  0.00     0.046 C 
BRANCH  19  20
HETATM   20  C           1     -19.994  -5.915  -6.395  0.00  0.00    -0.020 C 
HETATM   21  C           1     -20.199  -4.734  -5.458  0.00  0.00     0.009 C 
HETATM   22  C           1     -20.402  -5.518  -7.808  0.00  0.00     0.009 C 
ENDBRANCH  19  20
ENDBRANCH  18  19
BRANCH  18  23
HETATM   23  N           1     -19.464  -9.086  -5.514  0.00  0.00    -0.066 N 
HETATM   24  H           1     -18.503  -8.844  -5.846  0.00  0.00     0.275 HD
HETATM   25  H           1     -19.404  -9.860  -4.814  0.00  0.00     0.275 HD
HETATM   26  H           1     -20.046  -9.394  -6.325  0.00  0.00     0.275 HD
ENDBRANCH  18  23
ENDBRANCH   2  18
TORSDOF 9
ENDMDL
MODEL 8
REMARK VINA RESULT:      -6.6      5.744      8.725
REMARK  9 active torsions:
REMARK  status: ('A' for Active; 'I' for Inactive)
REMARK    1  A    between atoms: C_1  and  C_10 
REMARK    2  A    between atoms: C_1  and  C_8 
REMARK    3  A    between atoms: C_1  and  N_21 
REMARK    4  A    between atoms: C_2  and  O_3 
REMARK    5  A    between atoms: N_6  and  C_18 
REMARK       I    between atoms: N_6  and  C_10 
REMARK    6  A    between atoms: C_8  and  C_23 
REMARK    7  A    between atoms: C_11  and  C_17 
REMARK    8  A    between atoms: C_17  and  C_18 
REMARK    9  A    between atoms: C_18  and  C_19 
ROOT
HETATM    1  N           1     -20.396  -8.408  -2.708  0.00  0.00    -0.344 N 
HETATM    2  C           1     -20.299  -9.513  -3.511  0.00  0.00     0.249 C 
HETATM    3  O           1     -21.221 -10.290  -3.583  0.00  0.00    -0.271 OA
HETATM    4  H           1     -19.623  -7.758  -2.646  0.00  0.00     0.163 HD
ENDROOT
BRANCH   1   5
HETATM    5  C           1     -21.606  -8.171  -1.946  0.00  0.00     0.189 C 
BRANCH   5   6
HETATM    6  C           1     -21.348  -8.479  -0.476  0.00  0.00     0.074 C 
BRANCH   6   7
HETATM    7  C           1     -21.926  -9.818  -0.138  0.00  0.00    -0.056 A 
HETATM    8  C           1     -23.279 -10.071  -0.363  0.00  0.00     0.010 A 
HETATM    9  C           1     -23.818 -11.318  -0.048  0.00  0.00     0.037 A 
HETATM   10  C           1     -23.003 -12.313   0.493  0.00  0.00     0.065 A 
HETATM   11  C           1     -21.650 -12.061   0.717  0.00  0.00     0.037 A 
HETATM   12  C           1     -21.111 -10.814   0.402  0.00  0.00     0.010 A 
BRANCH  10  13
HETATM   13  O           1     -23.526 -13.525   0.799  0.00  0.00    -0.361 OA
HETATM   14  H           1     -22.970 -14.206   0.384  0.00  0.00     0.217 HD
ENDBRANCH  10  13
ENDBRANCH   6   7
ENDBRANCH   5   6
BRANCH   5  15
HETATM   15  C           1     -22.017  -6.726  -2.092  0.00  0.00     0.197 C 
HETATM   16  O           1     -22.438  -6.092  -1.101  0.00  0.00    -0.646 OA
HETATM   17  O           1     -21.937  -6.163  -3.206  0.00  0.00    -0.646 OA
ENDBRANCH   5  15
ENDBRANCH   1   5
BRANCH   2  18
HETATM   18  C           1     -19.039  -9.760  -4.305  0.00  0.00     0.275 C 
BRANCH  18  19
HETATM   19  C           1     -17.830  -9.327  -3.486  0.00  0.00     0.046 C 
BRANCH  19  20
HETATM   20  C           1     -16.702 -10.333  -3.674  0.00  0.00    -0.020 C 
HETATM   21  C           1     -15.883 -10.423  -2.394  0.00  0.00     0.009 C 
HETATM   22  C           1     -15.805  -9.881  -4.819  0.00  0.00     0.009 C 
ENDBRANCH  19  20
ENDBRANCH  18  19
BRANCH  18  23
HETATM   23  N           1     -19.089  -8.970  -5.578  0.00  0.00    -0.066 N 
HETATM   24  H           1     -19.263  -9.616  -6.382  0.00  0.00     0.275 HD
HETATM   25  H           1     -19.862  -8.270  -5.523  0.00  0.00     0.275 HD
HETATM   26  H           1     -18.180  -8.476  -5.718  0.00  0.00     0.275 HD
ENDBRANCH  18  23
ENDBRANCH   2  18
TORSDOF 9
ENDMDL
MODEL 9
REMARK VINA RESULT:      -6.5      4.965      6.868
REMARK  9 active torsions:
REMARK  status: ('A' for Active; 'I' for Inactive)
REMARK    1  A    between atoms: C_1  and  C_10 
REMARK    2  A    between atoms: C_1  and  C_8 
REMARK    3  A    between atoms: C_1  and  N_21 
REMARK    4  A    between atoms: C_2  and  O_3 
REMARK    5  A    between atoms: N_6  and  C_18 
REMARK       I    between atoms: N_6  and  C_10 
REMARK    6  A    between atoms: C_8  and  C_23 
REMARK    7  A    between atoms: C_11  and  C_17 
REMARK    8  A    between atoms: C_17  and  C_18 
REMARK    9  A    between atoms: C_18  and  C_19 
ROOT
HETATM    1  N           1     -21.971  -8.485  -2.105  0.00  0.00    -0.344 N 
HETATM    2  C           1     -21.742  -8.688  -0.770  0.00  0.00     0.249 C 
HETATM    3  O           1     -20.748  -8.237  -0.253  0.00  0.00    -0.271 OA
HETATM    4  H           1     -22.804  -8.864  -2.538  0.00  0.00     0.163 HD
ENDROOT
BRANCH   1   5
HETATM    5  C           1     -21.022  -7.729  -2.897  0.00  0.00     0.189 C 
BRANCH   5   6
HETATM    6  C           1     -20.762  -8.458  -4.209  0.00  0.00     0.074 C 
BRANCH   6   7
HETATM    7  C           1     -19.363  -8.990  -4.217  0.00  0.00    -0.056 A 
HETATM    8  C           1     -18.744  -9.302  -5.428  0.00  0.00     0.010 A 
HETATM    9  C           1     -17.440  -9.798  -5.437  0.00  0.00     0.037 A 
HETATM   10  C           1     -16.756  -9.982  -4.235  0.00  0.00     0.065 A 
HETATM   11  C           1     -17.375  -9.669  -3.025  0.00  0.00     0.037 A 
HETATM   12  C           1     -18.678  -9.173  -3.016  0.00  0.00     0.010 A 
BRANCH  10  13
HETATM   13  O           1     -15.490 -10.464  -4.244  0.00  0.00    -0.361 OA
HETATM   14  H           1     -14.933  -9.838  -4.738  0.00  0.00     0.217 HD
ENDBRANCH  10  13
ENDBRANCH   6   7
ENDBRANCH   5   6
BRANCH   5  15
HETATM   15  C           1     -21.585  -6.359  -3.184  0.00  0.00     0.197 C 
HETATM   16  O           1     -21.623  -5.932  -4.358  0.00  0.00    -0.646 OA
HETATM   17  O           1     -22.013  -5.650  -2.247  0.00  0.00    -0.646 OA
ENDBRANCH   5  15
ENDBRANCH   1   5
BRANCH   2  18
HETATM   18  C           1     -22.732  -9.475   0.055  0.00  0.00     0.275 C 
BRANCH  18  19
HETATM   19  C           1     -23.386 -10.539  -0.817  0.00  0.00     0.046 C 
BRANCH  19  20
HETATM   20  C           1     -23.577 -11.813  -0.005  0.00  0.00    -0.020 C 
HETATM   21  C           1     -22.264 -12.188   0.669  0.00  0.00     0.009 C 
HETATM   22  C           1     -24.013 -12.943  -0.929  0.00  0.00     0.009 C 
ENDBRANCH  19  20
ENDBRANCH  18  19
BRANCH  18  23
HETATM   23  N           1     -23.784  -8.550   0.588  0.00  0.00    -0.066 N 
HETATM   24  H           1     -23.944  -7.774  -0.094  0.00  0.00     0.275 HD
HETATM   25  H           1     -24.674  -9.079   0.727  0.00  0.00     0.275 HD
HETATM   26  H           1     -23.469  -8.152   1.501  0.00  0.00     0.275 HD
ENDBRANCH  18  23
ENDBRANCH   2  18
TORSDOF 9
ENDMDL
