MODEL 1
REMARK VINA RESULT:      -6.2      0.000      0.000
REMARK  10 active torsions:
REMARK  status: ('A' for Active; 'I' for Inactive)
REMARK    1  A    between atoms: O_1  and  C_2 
REMARK    2  A    between atoms: C_2  and  C_3 
REMARK    3  A    between atoms: C_3  and  C_4 
REMARK    4  A    between atoms: C_3  and  N_18 
REMARK    5  A    between atoms: N_9  and  C_16 
REMARK    6  A    between atoms: O_12  and  P_13 
REMARK    7  A    between atoms: P_13  and  O_14 
REMARK    8  A    between atoms: O_14  and  C_15 
REMARK    9  A    between atoms: C_15  and  C_16 
REMARK   10  A    between atoms: C_16  and  C_17 
REMARK       I    between atoms: C_17  and  N_18 
ROOT
HETATM    1  C           1     -28.801  -6.123 -17.092  0.00  0.00     0.298 C 
ENDROOT
BRANCH   1   2
HETATM    2  N           1     -28.969  -7.570 -16.733  0.00  0.00    -0.064 N 
HETATM    3  H           1     -29.625  -7.655 -15.924  0.00  0.00     0.275 HD
HETATM    4  H           1     -29.358  -8.090 -17.552  0.00  0.00     0.275 HD
HETATM    5  H           1     -28.041  -7.973 -16.472  0.00  0.00     0.275 HD
ENDBRANCH   1   2
BRANCH   1   6
HETATM    6  C           1     -27.832  -5.467 -16.118  0.00  0.00     0.224 C 
BRANCH   6   7
HETATM    7  O           1     -26.532  -5.529 -16.638  0.00  0.00    -0.287 OA
BRANCH   7   8
HETATM    8  P           1     -25.532  -6.575 -15.920  0.00  0.00     0.406 P 
HETATM    9  O           1     -24.528  -7.047 -16.900  0.00  0.00    -0.624 OA
HETATM   10  O           1     -26.308  -7.728 -15.412  0.00  0.00    -0.624 OA
BRANCH   8  11
HETATM   11  O           1     -24.782  -5.847 -14.690  0.00  0.00    -0.300 OA
HETATM   12  H           1     -24.405  -5.067 -15.059  0.00  0.00     0.223 HD
ENDBRANCH   8  11
ENDBRANCH   7   8
ENDBRANCH   6   7
ENDBRANCH   1   6
BRANCH   1  13
HETATM   13  C           1     -28.256  -6.014 -18.495  0.00  0.00     0.251 C 
HETATM   14  O           1     -28.554  -5.069 -19.187  0.00  0.00    -0.271 OA
HETATM   15  N           1     -27.425  -6.985 -18.985  0.00  0.00    -0.343 N 
HETATM   16  H           1     -27.175  -7.777 -18.405  0.00  0.00     0.163 HD
BRANCH  15  17
HETATM   17  C           1     -26.901  -6.880 -20.333  0.00  0.00     0.209 C 
BRANCH  17  18
HETATM   18  C           1     -25.425  -6.509 -20.275  0.00  0.00     0.200 C 
BRANCH  18  19
HETATM   19  O           1     -24.719  -7.506 -19.587  0.00  0.00    -0.398 OA
HETATM   20  H           1     -24.037  -7.806 -20.163  0.00  0.00     0.209 HD
ENDBRANCH  18  19
ENDBRANCH  17  18
BRANCH  17  21
HETATM   21  C           1     -27.061  -8.204 -21.038  0.00  0.00     0.198 C 
HETATM   22  O           1     -26.110  -8.681 -21.695  0.00  0.00    -0.646 OA
HETATM   23  O           1     -28.144  -8.824 -20.966  0.00  0.00    -0.646 OA
ENDBRANCH  17  21
ENDBRANCH  15  17
ENDBRANCH   1  13
TORSDOF 10
ENDMDL
MODEL 2
REMARK VINA RESULT:      -5.9      9.534     11.767
REMARK  10 active torsions:
REMARK  status: ('A' for Active; 'I' for Inactive)
REMARK    1  A    between atoms: O_1  and  C_2 
REMARK    2  A    between atoms: C_2  and  C_3 
REMARK    3  A    between atoms: C_3  and  C_4 
REMARK    4  A    between atoms: C_3  and  N_18 
REMARK    5  A    between atoms: N_9  and  C_16 
REMARK    6  A    between atoms: O_12  and  P_13 
REMARK    7  A    between atoms: P_13  and  O_14 
REMARK    8  A    between atoms: O_14  and  C_15 
REMARK    9  A    between atoms: C_15  and  C_16 
REMARK   10  A    between atoms: C_16  and  C_17 
REMARK       I    between atoms: C_17  and  N_18 
ROOT
HETATM    1  C           1     -36.085  -0.058 -12.445  0.00  0.00     0.298 C 
ENDROOT
BRANCH   1   2
HETATM    2  N           1     -34.911   0.639 -13.066  0.00  0.00    -0.064 N 
HETATM    3  H           1     -34.431   1.224 -12.345  0.00  0.00     0.275 HD
HETATM    4  H           1     -34.241  -0.071 -13.440  0.00  0.00     0.275 HD
HETATM    5  H           1     -35.242   1.252 -13.845  0.00  0.00     0.275 HD
ENDBRANCH   1   2
BRANCH   1   6
HETATM    6  C           1     -37.270  -0.004 -13.400  0.00  0.00     0.224 C 
BRANCH   6   7
HETATM    7  O           1     -37.071  -0.918 -14.445  0.00  0.00    -0.287 OA
BRANCH   7   8
HETATM    8  P           1     -36.416  -0.318 -15.794  0.00  0.00     0.406 P 
HETATM    9  O           1     -37.150  -0.839 -16.970  0.00  0.00    -0.624 OA
HETATM   10  O           1     -34.997  -0.728 -15.876  0.00  0.00    -0.624 OA
BRANCH   8  11
HETATM   11  O           1     -36.511   1.293 -15.771  0.00  0.00    -0.300 OA
HETATM   12  H           1     -37.214   1.489 -15.176  0.00  0.00     0.223 HD
ENDBRANCH   8  11
ENDBRANCH   7   8
ENDBRANCH   6   7
ENDBRANCH   1   6
BRANCH   1  13
HETATM   13  C           1     -35.726  -1.497 -12.168  0.00  0.00     0.251 C 
HETATM   14  O           1     -36.318  -2.114 -11.315  0.00  0.00    -0.271 OA
HETATM   15  N           1     -34.728  -2.104 -12.884  0.00  0.00    -0.343 N 
HETATM   16  H           1     -34.232  -1.588 -13.599  0.00  0.00     0.163 HD
BRANCH  15  17
HETATM   17  C           1     -34.384  -3.487 -12.617  0.00  0.00     0.209 C 
BRANCH  17  18
HETATM   18  C           1     -34.218  -4.231 -13.936  0.00  0.00     0.200 C 
BRANCH  18  19
HETATM   19  O           1     -34.333  -3.326 -15.001  0.00  0.00    -0.398 OA
HETATM   20  H           1     -33.555  -3.417 -15.524  0.00  0.00     0.209 HD
ENDBRANCH  18  19
ENDBRANCH  17  18
BRANCH  17  21
HETATM   21  C           1     -33.090  -3.542 -11.842  0.00  0.00     0.198 C 
HETATM   22  O           1     -32.252  -4.435 -12.088  0.00  0.00    -0.646 OA
HETATM   23  O           1     -32.858  -2.693 -10.954  0.00  0.00    -0.646 OA
ENDBRANCH  17  21
ENDBRANCH  15  17
ENDBRANCH   1  13
TORSDOF 10
ENDMDL
MODEL 3
REMARK VINA RESULT:      -5.9     10.160     11.640
REMARK  10 active torsions:
REMARK  status: ('A' for Active; 'I' for Inactive)
REMARK    1  A    between atoms: O_1  and  C_2 
REMARK    2  A    between atoms: C_2  and  C_3 
REMARK    3  A    between atoms: C_3  and  C_4 
REMARK    4  A    between atoms: C_3  and  N_18 
REMARK    5  A    between atoms: N_9  and  C_16 
REMARK    6  A    between atoms: O_12  and  P_13 
REMARK    7  A    between atoms: P_13  and  O_14 
REMARK    8  A    between atoms: O_14  and  C_15 
REMARK    9  A    between atoms: C_15  and  C_16 
REMARK   10  A    between atoms: C_16  and  C_17 
REMARK       I    between atoms: C_17  and  N_18 
ROOT
HETATM    1  C           1     -35.597  -0.964 -11.191  0.00  0.00     0.298 C 
ENDROOT
BRANCH   1   2
HETATM    2  N           1     -36.384  -0.402 -10.044  0.00  0.00    -0.064 N 
HETATM    3  H           1     -37.221   0.105 -10.410  0.00  0.00     0.275 HD
HETATM    4  H           1     -36.694  -1.181  -9.419  0.00  0.00     0.275 HD
HETATM    5  H           1     -35.785   0.262  -9.503  0.00  0.00     0.275 HD
ENDBRANCH   1   2
BRANCH   1   6
HETATM    6  C           1     -35.561  -2.483 -11.087  0.00  0.00     0.224 C 
BRANCH   6   7
HETATM    7  O           1     -35.366  -3.035 -12.361  0.00  0.00    -0.287 OA
BRANCH   7   8
HETATM    8  P           1     -34.086  -4.005 -12.524  0.00  0.00     0.406 P 
HETATM    9  O           1     -34.425  -5.356 -12.022  0.00  0.00    -0.624 OA
HETATM   10  O           1     -32.952  -3.458 -11.743  0.00  0.00    -0.624 OA
BRANCH   8  11
HETATM   11  O           1     -33.672  -4.097 -14.081  0.00  0.00    -0.300 OA
HETATM   12  H           1     -34.237  -3.486 -14.521  0.00  0.00     0.223 HD
ENDBRANCH   8  11
ENDBRANCH   7   8
ENDBRANCH   6   7
ENDBRANCH   1   6
BRANCH   1  13
HETATM   13  C           1     -36.250  -0.563 -12.491  0.00  0.00     0.251 C 
HETATM   14  O           1     -37.453  -0.477 -12.561  0.00  0.00    -0.271 OA
HETATM   15  N           1     -35.480  -0.296 -13.591  0.00  0.00    -0.343 N 
HETATM   16  H           1     -34.472  -0.367 -13.532  0.00  0.00     0.163 HD
BRANCH  15  17
HETATM   17  C           1     -36.108   0.090 -14.839  0.00  0.00     0.209 C 
BRANCH  17  18
HETATM   18  C           1     -35.576   1.449 -15.275  0.00  0.00     0.200 C 
BRANCH  18  19
HETATM   19  O           1     -36.468   2.030 -16.188  0.00  0.00    -0.398 OA
HETATM   20  H           1     -36.418   2.962 -16.065  0.00  0.00     0.209 HD
ENDBRANCH  18  19
ENDBRANCH  17  18
BRANCH  17  21
HETATM   21  C           1     -35.792  -0.937 -15.898  0.00  0.00     0.198 C 
HETATM   22  O           1     -36.237  -0.796 -17.058  0.00  0.00    -0.646 OA
HETATM   23  O           1     -35.087  -1.930 -15.616  0.00  0.00    -0.646 OA
ENDBRANCH  17  21
ENDBRANCH  15  17
ENDBRANCH   1  13
TORSDOF 10
ENDMDL
MODEL 4
REMARK VINA RESULT:      -5.6      3.524      5.826
REMARK  10 active torsions:
REMARK  status: ('A' for Active; 'I' for Inactive)
REMARK    1  A    between atoms: O_1  and  C_2 
REMARK    2  A    between atoms: C_2  and  C_3 
REMARK    3  A    between atoms: C_3  and  C_4 
REMARK    4  A    between atoms: C_3  and  N_18 
REMARK    5  A    between atoms: N_9  and  C_16 
REMARK    6  A    between atoms: O_12  and  P_13 
REMARK    7  A    between atoms: P_13  and  O_14 
REMARK    8  A    between atoms: O_14  and  C_15 
REMARK    9  A    between atoms: C_15  and  C_16 
REMARK   10  A    between atoms: C_16  and  C_17 
REMARK       I    between atoms: C_17  and  N_18 
ROOT
HETATM    1  C           1     -29.388  -6.616 -16.665  0.00  0.00     0.298 C 
ENDROOT
BRANCH   1   2
HETATM    2  N           1     -29.052  -7.834 -17.475  0.00  0.00    -0.064 N 
HETATM    3  H           1     -28.270  -7.611 -18.131  0.00  0.00     0.275 HD
HETATM    4  H           1     -28.760  -8.607 -16.836  0.00  0.00     0.275 HD
HETATM    5  H           1     -29.891  -8.130 -18.022  0.00  0.00     0.275 HD
ENDBRANCH   1   2
BRANCH   1   6
HETATM    6  C           1     -28.464  -5.472 -17.061  0.00  0.00     0.224 C 
BRANCH   6   7
HETATM    7  O           1     -27.455  -5.331 -16.097  0.00  0.00    -0.287 OA
BRANCH   7   8
HETATM    8  P           1     -26.202  -6.341 -16.232  0.00  0.00     0.406 P 
HETATM    9  O           1     -26.439  -7.534 -15.388  0.00  0.00    -0.624 OA
HETATM   10  O           1     -24.968  -5.657 -15.785  0.00  0.00    -0.624 OA
BRANCH   8  11
HETATM   11  O           1     -26.037  -6.796 -17.772  0.00  0.00    -0.300 OA
HETATM   12  H           1     -25.249  -6.374 -18.069  0.00  0.00     0.223 HD
ENDBRANCH   8  11
ENDBRANCH   7   8
ENDBRANCH   6   7
ENDBRANCH   1   6
BRANCH   1  13
HETATM   13  C           1     -30.821  -6.220 -16.926  0.00  0.00     0.251 C 
HETATM   14  O           1     -31.529  -6.928 -17.603  0.00  0.00    -0.271 OA
HETATM   15  N           1     -31.319  -5.060 -16.397  0.00  0.00    -0.343 N 
HETATM   16  H           1     -30.726  -4.468 -15.830  0.00  0.00     0.163 HD
BRANCH  15  17
HETATM   17  C           1     -32.695  -4.681 -16.649  0.00  0.00     0.209 C 
BRANCH  17  18
HETATM   18  C           1     -33.432  -4.540 -15.323  0.00  0.00     0.200 C 
BRANCH  18  19
HETATM   19  O           1     -34.792  -4.821 -15.512  0.00  0.00    -0.398 OA
HETATM   20  H           1     -35.270  -4.053 -15.248  0.00  0.00     0.209 HD
ENDBRANCH  18  19
ENDBRANCH  17  18
BRANCH  17  21
HETATM   21  C           1     -32.727  -3.364 -17.384  0.00  0.00     0.198 C 
HETATM   22  O           1     -31.720  -2.976 -18.015  0.00  0.00    -0.646 OA
HETATM   23  O           1     -33.760  -2.661 -17.363  0.00  0.00    -0.646 OA
ENDBRANCH  17  21
ENDBRANCH  15  17
ENDBRANCH   1  13
TORSDOF 10
ENDMDL
MODEL 5
REMARK VINA RESULT:      -5.5      9.051     11.369
REMARK  10 active torsions:
REMARK  status: ('A' for Active; 'I' for Inactive)
REMARK    1  A    between atoms: O_1  and  C_2 
REMARK    2  A    between atoms: C_2  and  C_3 
REMARK    3  A    between atoms: C_3  and  C_4 
REMARK    4  A    between atoms: C_3  and  N_18 
REMARK    5  A    between atoms: N_9  and  C_16 
REMARK    6  A    between atoms: O_12  and  P_13 
REMARK    7  A    between atoms: P_13  and  O_14 
REMARK    8  A    between atoms: O_14  and  C_15 
REMARK    9  A    between atoms: C_15  and  C_16 
REMARK   10  A    between atoms: C_16  and  C_17 
REMARK       I    between atoms: C_17  and  N_18 
ROOT
HETATM    1  C           1     -33.598  -3.366 -11.797  0.00  0.00     0.298 C 
ENDROOT
BRANCH   1   2
HETATM    2  N           1     -33.892  -4.068 -10.505  0.00  0.00    -0.064 N 
HETATM    3  H           1     -32.998  -4.255  -9.998  0.00  0.00     0.275 HD
HETATM    4  H           1     -34.508  -3.466  -9.913  0.00  0.00     0.275 HD
HETATM    5  H           1     -34.374  -4.974 -10.703  0.00  0.00     0.275 HD
ENDBRANCH   1   2
BRANCH   1   6
HETATM    6  C           1     -34.193  -4.159 -12.953  0.00  0.00     0.224 C 
BRANCH   6   7
HETATM    7  O           1     -33.463  -3.902 -14.122  0.00  0.00    -0.287 OA
BRANCH   7   8
HETATM    8  P           1     -34.189  -4.293 -15.511  0.00  0.00     0.406 P 
HETATM    9  O           1     -34.825  -3.087 -16.089  0.00  0.00    -0.624 OA
HETATM   10  O           1     -35.222  -5.321 -15.253  0.00  0.00    -0.624 OA
BRANCH   8  11
HETATM   11  O           1     -33.097  -4.875 -16.547  0.00  0.00    -0.300 OA
HETATM   12  H           1     -32.774  -5.663 -16.146  0.00  0.00     0.223 HD
ENDBRANCH   8  11
ENDBRANCH   7   8
ENDBRANCH   6   7
ENDBRANCH   1   6
BRANCH   1  13
HETATM   13  C           1     -34.206  -1.985 -11.767  0.00  0.00     0.251 C 
HETATM   14  O           1     -34.205  -1.347 -10.741  0.00  0.00    -0.271 OA
HETATM   15  N           1     -34.758  -1.455 -12.903  0.00  0.00    -0.343 N 
HETATM   16  H           1     -34.758  -1.989 -13.762  0.00  0.00     0.163 HD
BRANCH  15  17
HETATM   17  C           1     -35.342  -0.128 -12.873  0.00  0.00     0.209 C 
BRANCH  17  18
HETATM   18  C           1     -34.915   0.641 -14.117  0.00  0.00     0.200 C 
BRANCH  18  19
HETATM   19  O           1     -34.829  -0.240 -15.204  0.00  0.00    -0.398 OA
HETATM   20  H           1     -34.775   0.289 -15.982  0.00  0.00     0.209 HD
ENDBRANCH  18  19
ENDBRANCH  17  18
BRANCH  17  21
HETATM   21  C           1     -36.846  -0.241 -12.842  0.00  0.00     0.198 C 
HETATM   22  O           1     -37.452  -0.768 -13.799  0.00  0.00    -0.646 OA
HETATM   23  O           1     -37.485   0.191 -11.859  0.00  0.00    -0.646 OA
ENDBRANCH  17  21
ENDBRANCH  15  17
ENDBRANCH   1  13
TORSDOF 10
ENDMDL
MODEL 6
REMARK VINA RESULT:      -5.3      9.566     11.890
REMARK  10 active torsions:
REMARK  status: ('A' for Active; 'I' for Inactive)
REMARK    1  A    between atoms: O_1  and  C_2 
REMARK    2  A    between atoms: C_2  and  C_3 
REMARK    3  A    between atoms: C_3  and  C_4 
REMARK    4  A    between atoms: C_3  and  N_18 
REMARK    5  A    between atoms: N_9  and  C_16 
REMARK    6  A    between atoms: O_12  and  P_13 
REMARK    7  A    between atoms: P_13  and  O_14 
REMARK    8  A    between atoms: O_14  and  C_15 
REMARK    9  A    between atoms: C_15  and  C_16 
REMARK   10  A    between atoms: C_16  and  C_17 
REMARK       I    between atoms: C_17  and  N_18 
ROOT
HETATM    1  C           1     -20.381  -5.106  -7.718  0.00  0.00     0.298 C 
ENDROOT
BRANCH   1   2
HETATM    2  N           1     -18.997  -4.591  -7.452  0.00  0.00    -0.064 N 
HETATM    3  H           1     -18.548  -5.169  -6.705  0.00  0.00     0.275 HD
HETATM    4  H           1     -18.429  -4.650  -8.327  0.00  0.00     0.275 HD
HETATM    5  H           1     -19.050  -3.597  -7.135  0.00  0.00     0.275 HD
ENDBRANCH   1   2
BRANCH   1   6
HETATM    6  C           1     -21.268  -4.824  -6.512  0.00  0.00     0.224 C 
BRANCH   6   7
HETATM    7  O           1     -20.610  -5.230  -5.342  0.00  0.00    -0.287 OA
BRANCH   7   8
HETATM    8  P           1     -21.390  -6.312  -4.431  0.00  0.00     0.406 P 
HETATM    9  O           1     -21.284  -5.923  -3.007  0.00  0.00    -0.624 OA
HETATM   10  O           1     -20.783  -7.648  -4.625  0.00  0.00    -0.624 OA
BRANCH   8  11
HETATM   11  O           1     -22.945  -6.359  -4.862  0.00  0.00    -0.300 OA
HETATM   12  H           1     -23.409  -6.602  -4.079  0.00  0.00     0.223 HD
ENDBRANCH   8  11
ENDBRANCH   7   8
ENDBRANCH   6   7
ENDBRANCH   1   6
BRANCH   1  13
HETATM   13  C           1     -20.948  -4.415  -8.933  0.00  0.00     0.251 C 
HETATM   14  O           1     -20.227  -3.756  -9.644  0.00  0.00    -0.271 OA
HETATM   15  N           1     -22.279  -4.535  -9.232  0.00  0.00    -0.343 N 
HETATM   16  H           1     -22.883  -5.088  -8.637  0.00  0.00     0.163 HD
BRANCH  15  17
HETATM   17  C           1     -22.823  -3.871 -10.400  0.00  0.00     0.209 C 
BRANCH  17  18
HETATM   18  C           1     -22.326  -4.573 -11.658  0.00  0.00     0.200 C 
BRANCH  18  19
HETATM   19  O           1     -23.423  -4.962 -12.440  0.00  0.00    -0.398 OA
HETATM   20  H           1     -23.152  -5.716 -12.935  0.00  0.00     0.209 HD
ENDBRANCH  18  19
ENDBRANCH  17  18
BRANCH  17  21
HETATM   21  C           1     -24.330  -3.927 -10.354  0.00  0.00     0.198 C 
HETATM   22  O           1     -25.005  -3.045 -10.926  0.00  0.00    -0.646 OA
HETATM   23  O           1     -24.902  -4.856  -9.743  0.00  0.00    -0.646 OA
ENDBRANCH  17  21
ENDBRANCH  15  17
ENDBRANCH   1  13
TORSDOF 10
ENDMDL
MODEL 7
REMARK VINA RESULT:      -5.3      9.884     12.194
REMARK  10 active torsions:
REMARK  status: ('A' for Active; 'I' for Inactive)
REMARK    1  A    between atoms: O_1  and  C_2 
REMARK    2  A    between atoms: C_2  and  C_3 
REMARK    3  A    between atoms: C_3  and  C_4 
REMARK    4  A    between atoms: C_3  and  N_18 
REMARK    5  A    between atoms: N_9  and  C_16 
REMARK    6  A    between atoms: O_12  and  P_13 
REMARK    7  A    between atoms: P_13  and  O_14 
REMARK    8  A    between atoms: O_14  and  C_15 
REMARK    9  A    between atoms: C_15  and  C_16 
REMARK   10  A    between atoms: C_16  and  C_17 
REMARK       I    between atoms: C_17  and  N_18 
ROOT
HETATM    1  C           1     -21.221  -5.943  -7.116  0.00  0.00     0.298 C 
ENDROOT
BRANCH   1   2
HETATM    2  N           1     -19.737  -6.097  -7.268  0.00  0.00    -0.064 N 
HETATM    3  H           1     -19.308  -6.287  -6.335  0.00  0.00     0.275 HD
HETATM    4  H           1     -19.533  -6.893  -7.914  0.00  0.00     0.275 HD
HETATM    5  H           1     -19.334  -5.216  -7.662  0.00  0.00     0.275 HD
ENDBRANCH   1   2
BRANCH   1   6
HETATM    6  C           1     -21.566  -5.782  -5.641  0.00  0.00     0.224 C 
BRANCH   6   7
HETATM    7  O           1     -22.122  -6.975  -5.158  0.00  0.00    -0.287 OA
BRANCH   7   8
HETATM    8  P           1     -21.190  -7.838  -4.161  0.00  0.00     0.406 P 
HETATM    9  O           1     -21.816  -9.158  -3.922  0.00  0.00    -0.624 OA
HETATM   10  O           1     -21.046  -7.119  -2.875  0.00  0.00    -0.624 OA
BRANCH   8  11
HETATM   11  O           1     -19.734  -8.045  -4.827  0.00  0.00    -0.300 OA
HETATM   12  H           1     -19.828  -8.790  -5.394  0.00  0.00     0.223 HD
ENDBRANCH   8  11
ENDBRANCH   7   8
ENDBRANCH   6   7
ENDBRANCH   1   6
BRANCH   1  13
HETATM   13  C           1     -21.680  -4.723  -7.877  0.00  0.00     0.251 C 
HETATM   14  O           1     -21.618  -3.632  -7.362  0.00  0.00    -0.271 OA
HETATM   15  N           1     -22.167  -4.853  -9.150  0.00  0.00    -0.343 N 
HETATM   16  H           1     -22.218  -5.768  -9.581  0.00  0.00     0.163 HD
BRANCH  15  17
HETATM   17  C           1     -22.607  -3.681  -9.881  0.00  0.00     0.209 C 
BRANCH  17  18
HETATM   18  C           1     -21.777  -3.534 -11.149  0.00  0.00     0.200 C 
BRANCH  18  19
HETATM   19  O           1     -22.308  -4.355 -12.154  0.00  0.00    -0.398 OA
HETATM   20  H           1     -21.996  -4.018 -12.976  0.00  0.00     0.209 HD
ENDBRANCH  18  19
ENDBRANCH  17  18
BRANCH  17  21
HETATM   21  C           1     -24.063  -3.835 -10.247  0.00  0.00     0.198 C 
HETATM   22  O           1     -24.672  -4.887  -9.956  0.00  0.00    -0.646 OA
HETATM   23  O           1     -24.659  -2.910 -10.840  0.00  0.00    -0.646 OA
ENDBRANCH  17  21
ENDBRANCH  15  17
ENDBRANCH   1  13
TORSDOF 10
ENDMDL
MODEL 8
REMARK VINA RESULT:      -5.3      4.453      6.048
REMARK  10 active torsions:
REMARK  status: ('A' for Active; 'I' for Inactive)
REMARK    1  A    between atoms: O_1  and  C_2 
REMARK    2  A    between atoms: C_2  and  C_3 
REMARK    3  A    between atoms: C_3  and  C_4 
REMARK    4  A    between atoms: C_3  and  N_18 
REMARK    5  A    between atoms: N_9  and  C_16 
REMARK    6  A    between atoms: O_12  and  P_13 
REMARK    7  A    between atoms: P_13  and  O_14 
REMARK    8  A    between atoms: O_14  and  C_15 
REMARK    9  A    between atoms: C_15  and  C_16 
REMARK   10  A    between atoms: C_16  and  C_17 
REMARK       I    between atoms: C_17  and  N_18 
ROOT
HETATM    1  C           1     -30.610  -4.337 -16.848  0.00  0.00     0.298 C 
ENDROOT
BRANCH   1   2
HETATM    2  N           1     -30.445  -3.389 -18.000  0.00  0.00    -0.064 N 
HETATM    3  H           1     -31.376  -3.207 -18.438  0.00  0.00     0.275 HD
HETATM    4  H           1     -30.040  -2.490 -17.656  0.00  0.00     0.275 HD
HETATM    5  H           1     -29.805  -3.813 -18.709  0.00  0.00     0.275 HD
ENDBRANCH   1   2
BRANCH   1   6
HETATM    6  C           1     -32.051  -4.829 -16.799  0.00  0.00     0.224 C 
BRANCH   6   7
HETATM    7  O           1     -32.919  -3.730 -16.735  0.00  0.00    -0.287 OA
BRANCH   7   8
HETATM    8  P           1     -34.144  -3.856 -15.691  0.00  0.00     0.406 P 
HETATM    9  O           1     -35.078  -2.724 -15.890  0.00  0.00    -0.624 OA
HETATM   10  O           1     -33.618  -3.825 -14.308  0.00  0.00    -0.624 OA
BRANCH   8  11
HETATM   11  O           1     -34.925  -5.247 -15.939  0.00  0.00    -0.300 OA
HETATM   12  H           1     -34.450  -5.675 -16.630  0.00  0.00     0.223 HD
ENDBRANCH   8  11
ENDBRANCH   7   8
ENDBRANCH   6   7
ENDBRANCH   1   6
BRANCH   1  13
HETATM   13  C           1     -29.681  -5.512 -17.028  0.00  0.00     0.251 C 
HETATM   14  O           1     -30.120  -6.637 -17.007  0.00  0.00    -0.271 OA
HETATM   15  N           1     -28.341  -5.303 -17.215  0.00  0.00    -0.343 N 
HETATM   16  H           1     -27.973  -4.361 -17.233  0.00  0.00     0.163 HD
BRANCH  15  17
HETATM   17  C           1     -27.449  -6.434 -17.388  0.00  0.00     0.209 C 
BRANCH  17  18
HETATM   18  C           1     -26.709  -6.296 -18.712  0.00  0.00     0.200 C 
BRANCH  18  19
HETATM   19  O           1     -25.384  -6.728 -18.554  0.00  0.00    -0.398 OA
HETATM   20  H           1     -25.099  -6.432 -17.706  0.00  0.00     0.209 HD
ENDBRANCH  18  19
ENDBRANCH  17  18
BRANCH  17  21
HETATM   21  C           1     -26.453  -6.465 -16.254  0.00  0.00     0.198 C 
HETATM   22  O           1     -26.454  -7.419 -15.448  0.00  0.00    -0.646 OA
HETATM   23  O           1     -25.627  -5.535 -16.123  0.00  0.00    -0.646 OA
ENDBRANCH  17  21
ENDBRANCH  15  17
ENDBRANCH   1  13
TORSDOF 10
ENDMDL
MODEL 9
REMARK VINA RESULT:      -5.1     10.425     13.347
REMARK  10 active torsions:
REMARK  status: ('A' for Active; 'I' for Inactive)
REMARK    1  A    between atoms: O_1  and  C_2 
REMARK    2  A    between atoms: C_2  and  C_3 
REMARK    3  A    between atoms: C_3  and  C_4 
REMARK    4  A    between atoms: C_3  and  N_18 
REMARK    5  A    between atoms: N_9  and  C_16 
REMARK    6  A    between atoms: O_12  and  P_13 
REMARK    7  A    between atoms: P_13  and  O_14 
REMARK    8  A    between atoms: O_14  and  C_15 
REMARK    9  A    between atoms: C_15  and  C_16 
REMARK   10  A    between atoms: C_16  and  C_17 
REMARK       I    between atoms: C_17  and  N_18 
ROOT
HETATM    1  C           1     -21.295  -3.950  -7.751  0.00  0.00     0.298 C 
ENDROOT
BRANCH   1   2
HETATM    2  N           1     -20.435  -4.085  -8.973  0.00  0.00    -0.064 N 
HETATM    3  H           1     -19.437  -3.907  -8.718  0.00  0.00     0.275 HD
HETATM    4  H           1     -20.528  -5.051  -9.360  0.00  0.00     0.275 HD
HETATM    5  H           1     -20.739  -3.389  -9.691  0.00  0.00     0.275 HD
ENDBRANCH   1   2
BRANCH   1   6
HETATM    6  C           1     -22.682  -4.507  -8.043  0.00  0.00     0.224 C 
BRANCH   6   7
HETATM    7  O           1     -23.435  -3.546  -8.734  0.00  0.00    -0.287 OA
BRANCH   7   8
HETATM    8  P           1     -23.751  -3.876 -10.283  0.00  0.00     0.406 P 
HETATM    9  O           1     -23.888  -5.340 -10.456  0.00  0.00    -0.624 OA
HETATM   10  O           1     -22.642  -3.380 -11.128  0.00  0.00    -0.624 OA
BRANCH   8  11
HETATM   11  O           1     -25.126  -3.151 -10.720  0.00  0.00    -0.300 OA
HETATM   12  H           1     -24.857  -2.375 -11.181  0.00  0.00     0.223 HD
ENDBRANCH   8  11
ENDBRANCH   7   8
ENDBRANCH   6   7
ENDBRANCH   1   6
BRANCH   1  13
HETATM   13  C           1     -20.672  -4.720  -6.612  0.00  0.00     0.251 C 
HETATM   14  O           1     -19.503  -4.566  -6.347  0.00  0.00    -0.271 OA
HETATM   15  N           1     -21.431  -5.592  -5.878  0.00  0.00    -0.343 N 
HETATM   16  H           1     -22.410  -5.720  -6.100  0.00  0.00     0.163 HD
BRANCH  15  17
HETATM   17  C           1     -20.832  -6.331  -4.784  0.00  0.00     0.209 C 
BRANCH  17  18
HETATM   18  C           1     -21.809  -6.387  -3.617  0.00  0.00     0.200 C 
BRANCH  18  19
HETATM   19  O           1     -21.641  -7.595  -2.925  0.00  0.00    -0.398 OA
HETATM   20  H           1     -20.725  -7.668  -2.718  0.00  0.00     0.209 HD
ENDBRANCH  18  19
ENDBRANCH  17  18
BRANCH  17  21
HETATM   21  C           1     -20.512  -7.733  -5.241  0.00  0.00     0.198 C 
HETATM   22  O           1     -19.454  -8.285  -4.870  0.00  0.00    -0.646 OA
HETATM   23  O           1     -21.306  -8.343  -5.990  0.00  0.00    -0.646 OA
ENDBRANCH  17  21
ENDBRANCH  15  17
ENDBRANCH   1  13
TORSDOF 10
ENDMDL
