MODEL 1
REMARK VINA RESULT:      -6.9      0.000      0.000
REMARK  8 active torsions:
REMARK  status: ('A' for Active; 'I' for Inactive)
REMARK    1  A    between atoms: N_2  and  C_18 
REMARK       I    between atoms: N_2  and  C_3 
REMARK    2  A    between atoms: C_3  and  C_4 
REMARK    3  A    between atoms: C_4  and  C_13 
REMARK    4  A    between atoms: C_4  and  N_14 
REMARK    5  A    between atoms: C_12  and  C_13 
REMARK    6  A    between atoms: C_17  and  C_18 
REMARK    7  A    between atoms: C_18  and  C_19 
REMARK    8  A    between atoms: C_19  and  O_20 
ROOT
HETATM    1  N           1     -34.967  -0.785 -14.021  0.00  0.00    -0.343 N 
HETATM    2  C           1     -35.435  -1.379 -12.880  0.00  0.00     0.249 C 
HETATM    3  H           1     -33.977  -0.789 -14.224  0.00  0.00     0.163 HD
HETATM    4  O           1     -36.618  -1.376 -12.638  0.00  0.00    -0.271 OA
ENDROOT
BRANCH   2   5
HETATM    5  C           1     -34.472  -2.040 -11.924  0.00  0.00     0.275 C 
BRANCH   5   6
HETATM    6  C           1     -34.846  -3.507 -11.759  0.00  0.00     0.046 C 
BRANCH   6   7
HETATM    7  C           1     -33.718  -4.243 -11.050  0.00  0.00    -0.020 C 
HETATM    8  C           1     -32.525  -4.367 -11.987  0.00  0.00     0.009 C 
HETATM    9  C           1     -34.193  -5.633 -10.647  0.00  0.00     0.009 C 
ENDBRANCH   6   7
ENDBRANCH   5   6
BRANCH   5  10
HETATM   10  N           1     -34.541  -1.354 -10.592  0.00  0.00    -0.066 N 
HETATM   11  H           1     -35.241  -0.578 -10.636  0.00  0.00     0.275 HD
HETATM   12  H           1     -34.831  -2.043  -9.861  0.00  0.00     0.275 HD
HETATM   13  H           1     -33.602  -0.964 -10.352  0.00  0.00     0.275 HD
ENDBRANCH   5  10
ENDBRANCH   2   5
BRANCH   1  14
HETATM   14  C           1     -35.893  -0.150 -14.939  0.00  0.00     0.209 C 
BRANCH  14  15
HETATM   15  C           1     -35.852  -0.864 -16.268  0.00  0.00     0.198 C 
HETATM   16  O           1     -34.852  -1.545 -16.581  0.00  0.00    -0.646 OA
HETATM   17  O           1     -36.817  -0.773 -17.058  0.00  0.00    -0.646 OA
ENDBRANCH  14  15
BRANCH  14  18
HETATM   18  C           1     -35.496   1.308 -15.133  0.00  0.00     0.200 C 
BRANCH  18  19
HETATM   19  O           1     -36.308   1.888 -16.117  0.00  0.00    -0.398 OA
HETATM   20  H           1     -36.779   1.186 -16.531  0.00  0.00     0.209 HD
ENDBRANCH  18  19
ENDBRANCH  14  18
ENDBRANCH   1  14
TORSDOF 8
ENDMDL
MODEL 2
REMARK VINA RESULT:      -6.2     12.853     14.627
REMARK  8 active torsions:
REMARK  status: ('A' for Active; 'I' for Inactive)
REMARK    1  A    between atoms: N_2  and  C_18 
REMARK       I    between atoms: N_2  and  C_3 
REMARK    2  A    between atoms: C_3  and  C_4 
REMARK    3  A    between atoms: C_4  and  C_13 
REMARK    4  A    between atoms: C_4  and  N_14 
REMARK    5  A    between atoms: C_12  and  C_13 
REMARK    6  A    between atoms: C_17  and  C_18 
REMARK    7  A    between atoms: C_18  and  C_19 
REMARK    8  A    between atoms: C_19  and  O_20 
ROOT
HETATM    1  N           1     -22.047  -4.822  -9.127  0.00  0.00    -0.343 N 
HETATM    2  C           1     -21.635  -4.627  -7.836  0.00  0.00     0.249 C 
HETATM    3  H           1     -22.016  -5.748  -9.532  0.00  0.00     0.163 HD
HETATM    4  O           1     -21.672  -3.521  -7.350  0.00  0.00    -0.271 OA
ENDROOT
BRANCH   2   5
HETATM    5  C           1     -21.133  -5.793  -7.019  0.00  0.00     0.275 C 
BRANCH   5   6
HETATM    6  C           1     -21.038  -5.384  -5.555  0.00  0.00     0.046 C 
BRANCH   6   7
HETATM    7  C           1     -21.845  -6.352  -4.703  0.00  0.00    -0.020 C 
HETATM    8  C           1     -21.447  -6.196  -3.242  0.00  0.00     0.009 C 
HETATM    9  C           1     -21.567  -7.780  -5.153  0.00  0.00     0.009 C 
ENDBRANCH   6   7
ENDBRANCH   5   6
BRANCH   5  10
HETATM   10  N           1     -19.777  -6.201  -7.513  0.00  0.00    -0.066 N 
HETATM   11  H           1     -19.075  -5.477  -7.241  0.00  0.00     0.275 HD
HETATM   12  H           1     -19.515  -7.119  -7.086  0.00  0.00     0.275 HD
HETATM   13  H           1     -19.799  -6.294  -8.553  0.00  0.00     0.275 HD
ENDBRANCH   5  10
ENDBRANCH   2   5
BRANCH   1  14
HETATM   14  C           1     -22.529  -3.701  -9.911  0.00  0.00     0.209 C 
BRANCH  14  15
HETATM   15  C           1     -23.990  -3.902 -10.229  0.00  0.00     0.198 C 
HETATM   16  O           1     -24.666  -2.955 -10.685  0.00  0.00    -0.646 OA
HETATM   17  O           1     -24.526  -5.015 -10.035  0.00  0.00    -0.646 OA
ENDBRANCH  14  15
BRANCH  14  18
HETATM   18  C           1     -21.734  -3.611 -11.208  0.00  0.00     0.200 C 
BRANCH  18  19
HETATM   19  O           1     -22.409  -4.309 -12.220  0.00  0.00    -0.398 OA
HETATM   20  H           1     -21.757  -4.594 -12.836  0.00  0.00     0.209 HD
ENDBRANCH  18  19
ENDBRANCH  14  18
ENDBRANCH   1  14
TORSDOF 8
ENDMDL
MODEL 3
REMARK VINA RESULT:      -5.6      3.122      5.555
REMARK  8 active torsions:
REMARK  status: ('A' for Active; 'I' for Inactive)
REMARK    1  A    between atoms: N_2  and  C_18 
REMARK       I    between atoms: N_2  and  C_3 
REMARK    2  A    between atoms: C_3  and  C_4 
REMARK    3  A    between atoms: C_4  and  C_13 
REMARK    4  A    between atoms: C_4  and  N_14 
REMARK    5  A    between atoms: C_12  and  C_13 
REMARK    6  A    between atoms: C_17  and  C_18 
REMARK    7  A    between atoms: C_18  and  C_19 
REMARK    8  A    between atoms: C_19  and  O_20 
ROOT
HETATM    1  N           1     -35.203  -3.281 -11.110  0.00  0.00    -0.343 N 
HETATM    2  C           1     -35.215  -1.989 -10.657  0.00  0.00     0.249 C 
HETATM    3  H           1     -36.023  -3.666 -11.560  0.00  0.00     0.163 HD
HETATM    4  O           1     -34.236  -1.528 -10.121  0.00  0.00    -0.271 OA
ENDROOT
BRANCH   2   5
HETATM    5  C           1     -36.452  -1.141 -10.827  0.00  0.00     0.275 C 
BRANCH   5   6
HETATM    6  C           1     -36.104   0.110 -11.623  0.00  0.00     0.046 C 
BRANCH   6   7
HETATM    7  C           1     -35.900  -0.259 -13.085  0.00  0.00    -0.020 C 
HETATM    8  C           1     -34.870   0.676 -13.705  0.00  0.00     0.009 C 
HETATM    9  C           1     -37.220  -0.125 -13.833  0.00  0.00     0.009 C 
ENDBRANCH   6   7
ENDBRANCH   5   6
BRANCH   5  10
HETATM   10  N           1     -36.974  -0.745  -9.477  0.00  0.00    -0.066 N 
HETATM   11  H           1     -36.192  -0.756  -8.784  0.00  0.00     0.275 HD
HETATM   12  H           1     -37.378   0.218  -9.530  0.00  0.00     0.275 HD
HETATM   13  H           1     -37.715  -1.418  -9.179  0.00  0.00     0.275 HD
ENDBRANCH   5  10
ENDBRANCH   2   5
BRANCH   1  14
HETATM   14  C           1     -34.015  -4.095 -10.947  0.00  0.00     0.209 C 
BRANCH  14  15
HETATM   15  C           1     -33.224  -4.094 -12.232  0.00  0.00     0.198 C 
HETATM   16  O           1     -32.035  -4.477 -12.235  0.00  0.00    -0.646 OA
HETATM   17  O           1     -33.759  -3.710 -13.295  0.00  0.00    -0.646 OA
ENDBRANCH  14  15
BRANCH  14  18
HETATM   18  C           1     -34.421  -5.522 -10.601  0.00  0.00     0.200 C 
BRANCH  18  19
HETATM   19  O           1     -34.406  -6.308 -11.762  0.00  0.00    -0.398 OA
HETATM   20  H           1     -35.286  -6.612 -11.898  0.00  0.00     0.209 HD
ENDBRANCH  18  19
ENDBRANCH  14  18
ENDBRANCH   1  14
TORSDOF 8
ENDMDL
MODEL 4
REMARK VINA RESULT:      -5.2     14.554     16.800
REMARK  8 active torsions:
REMARK  status: ('A' for Active; 'I' for Inactive)
REMARK    1  A    between atoms: N_2  and  C_18 
REMARK       I    between atoms: N_2  and  C_3 
REMARK    2  A    between atoms: C_3  and  C_4 
REMARK    3  A    between atoms: C_4  and  C_13 
REMARK    4  A    between atoms: C_4  and  N_14 
REMARK    5  A    between atoms: C_12  and  C_13 
REMARK    6  A    between atoms: C_17  and  C_18 
REMARK    7  A    between atoms: C_18  and  C_19 
REMARK    8  A    between atoms: C_19  and  O_20 
ROOT
HETATM    1  N           1     -21.792  -5.936  -5.975  0.00  0.00    -0.343 N 
HETATM    2  C           1     -21.331  -5.279  -7.084  0.00  0.00     0.249 C 
HETATM    3  H           1     -22.783  -6.109  -5.866  0.00  0.00     0.163 HD
HETATM    4  O           1     -20.148  -5.073  -7.216  0.00  0.00    -0.271 OA
ENDROOT
BRANCH   2   5
HETATM    5  C           1     -22.300  -4.812  -8.143  0.00  0.00     0.275 C 
BRANCH   5   6
HETATM    6  C           1     -21.630  -3.759  -9.016  0.00  0.00     0.046 C 
BRANCH   6   7
HETATM    7  C           1     -21.431  -4.313 -10.419  0.00  0.00    -0.020 C 
HETATM    8  C           1     -20.614  -3.327 -11.243  0.00  0.00     0.009 C 
HETATM    9  C           1     -22.787  -4.524 -11.080  0.00  0.00     0.009 C 
ENDBRANCH   6   7
ENDBRANCH   5   6
BRANCH   5  10
HETATM   10  N           1     -23.510  -4.220  -7.485  0.00  0.00    -0.066 N 
HETATM   11  H           1     -23.707  -4.729  -6.594  0.00  0.00     0.275 HD
HETATM   12  H           1     -23.333  -3.211  -7.278  0.00  0.00     0.275 HD
HETATM   13  H           1     -24.332  -4.306  -8.125  0.00  0.00     0.275 HD
ENDBRANCH   5  10
ENDBRANCH   2   5
BRANCH   1  14
HETATM   14  C           1     -20.861  -6.384  -4.959  0.00  0.00     0.209 C 
BRANCH  14  15
HETATM   15  C           1     -20.498  -7.827  -5.211  0.00  0.00     0.198 C 
HETATM   16  O           1     -19.400  -8.274  -4.815  0.00  0.00    -0.646 OA
HETATM   17  O           1     -21.294  -8.576  -5.817  0.00  0.00    -0.646 OA
ENDBRANCH  14  15
BRANCH  14  18
HETATM   18  C           1     -21.508  -6.256  -3.586  0.00  0.00     0.200 C 
BRANCH  18  19
HETATM   19  O           1     -21.513  -7.506  -2.951  0.00  0.00    -0.398 OA
HETATM   20  H           1     -22.412  -7.711  -2.759  0.00  0.00     0.209 HD
ENDBRANCH  18  19
ENDBRANCH  14  18
ENDBRANCH   1  14
TORSDOF 8
ENDMDL
MODEL 5
REMARK VINA RESULT:      -5.2     15.282     17.189
REMARK  8 active torsions:
REMARK  status: ('A' for Active; 'I' for Inactive)
REMARK    1  A    between atoms: N_2  and  C_18 
REMARK       I    between atoms: N_2  and  C_3 
REMARK    2  A    between atoms: C_3  and  C_4 
REMARK    3  A    between atoms: C_4  and  C_13 
REMARK    4  A    between atoms: C_4  and  N_14 
REMARK    5  A    between atoms: C_12  and  C_13 
REMARK    6  A    between atoms: C_17  and  C_18 
REMARK    7  A    between atoms: C_18  and  C_19 
REMARK    8  A    between atoms: C_19  and  O_20 
ROOT
HETATM    1  N           1     -21.368  -5.471  -5.141  0.00  0.00    -0.343 N 
HETATM    2  C           1     -21.559  -6.512  -4.273  0.00  0.00     0.249 C 
HETATM    3  H           1     -21.040  -4.579  -4.795  0.00  0.00     0.163 HD
HETATM    4  O           1     -21.951  -7.578  -4.685  0.00  0.00    -0.271 OA
ENDROOT
BRANCH   2   5
HETATM    5  C           1     -21.280  -6.329  -2.801  0.00  0.00     0.275 C 
BRANCH   5   6
HETATM    6  C           1     -20.782  -7.642  -2.212  0.00  0.00     0.046 C 
BRANCH   6   7
HETATM    7  C           1     -21.834  -8.208  -1.268  0.00  0.00    -0.020 C 
HETATM    8  C           1     -21.285  -8.226   0.152  0.00  0.00     0.009 C 
HETATM    9  C           1     -22.188  -9.627  -1.692  0.00  0.00     0.009 C 
ENDBRANCH   6   7
ENDBRANCH   5   6
BRANCH   5  10
HETATM   10  N           1     -22.541  -5.914  -2.102  0.00  0.00    -0.066 N 
HETATM   11  H           1     -22.849  -4.984  -2.464  0.00  0.00     0.275 HD
HETATM   12  H           1     -23.287  -6.623  -2.283  0.00  0.00     0.275 HD
HETATM   13  H           1     -22.364  -5.848  -1.074  0.00  0.00     0.275 HD
ENDBRANCH   5  10
ENDBRANCH   2   5
BRANCH   1  14
HETATM   14  C           1     -21.637  -5.647  -6.555  0.00  0.00     0.209 C 
BRANCH  14  15
HETATM   15  C           1     -20.332  -5.787  -7.300  0.00  0.00     0.198 C 
HETATM   16  O           1     -19.562  -6.735  -7.039  0.00  0.00    -0.646 OA
HETATM   17  O           1     -20.020  -4.953  -8.178  0.00  0.00    -0.646 OA
ENDBRANCH  14  15
BRANCH  14  18
HETATM   18  C           1     -22.396  -4.436  -7.082  0.00  0.00     0.200 C 
BRANCH  18  19
HETATM   19  O           1     -23.747  -4.537  -6.721  0.00  0.00    -0.398 OA
HETATM   20  H           1     -23.866  -5.392  -6.346  0.00  0.00     0.209 HD
ENDBRANCH  18  19
ENDBRANCH  14  18
ENDBRANCH   1  14
TORSDOF 8
ENDMDL
MODEL 6
REMARK VINA RESULT:      -5.1      2.768      5.525
REMARK  8 active torsions:
REMARK  status: ('A' for Active; 'I' for Inactive)
REMARK    1  A    between atoms: N_2  and  C_18 
REMARK       I    between atoms: N_2  and  C_3 
REMARK    2  A    between atoms: C_3  and  C_4 
REMARK    3  A    between atoms: C_4  and  C_13 
REMARK    4  A    between atoms: C_4  and  N_14 
REMARK    5  A    between atoms: C_12  and  C_13 
REMARK    6  A    between atoms: C_17  and  C_18 
REMARK    7  A    between atoms: C_18  and  C_19 
REMARK    8  A    between atoms: C_19  and  O_20 
ROOT
HETATM    1  N           1     -34.731  -2.122 -12.860  0.00  0.00    -0.343 N 
HETATM    2  C           1     -35.739  -1.396 -12.284  0.00  0.00     0.249 C 
HETATM    3  H           1     -34.119  -1.688 -13.538  0.00  0.00     0.163 HD
HETATM    4  O           1     -36.470  -1.914 -11.473  0.00  0.00    -0.271 OA
ENDROOT
BRANCH   2   5
HETATM    5  C           1     -35.938   0.052 -12.662  0.00  0.00     0.275 C 
BRANCH   5   6
HETATM    6  C           1     -36.646   0.133 -14.007  0.00  0.00     0.046 C 
BRANCH   6   7
HETATM    7  C           1     -35.626   0.400 -15.104  0.00  0.00    -0.020 C 
HETATM    8  C           1     -35.966   1.708 -15.806  0.00  0.00     0.009 C 
HETATM    9  C           1     -35.656  -0.740 -16.114  0.00  0.00     0.009 C 
ENDBRANCH   6   7
ENDBRANCH   5   6
BRANCH   5  10
HETATM   10  N           1     -34.603   0.729 -12.758  0.00  0.00    -0.066 N 
HETATM   11  H           1     -34.673   1.695 -12.364  0.00  0.00     0.275 HD
HETATM   12  H           1     -33.896   0.182 -12.216  0.00  0.00     0.275 HD
HETATM   13  H           1     -34.310   0.781 -13.760  0.00  0.00     0.275 HD
ENDBRANCH   5  10
ENDBRANCH   2   5
BRANCH   1  14
HETATM   14  C           1     -34.541  -3.513 -12.497  0.00  0.00     0.209 C 
BRANCH  14  15
HETATM   15  C           1     -33.401  -3.624 -11.514  0.00  0.00     0.198 C 
HETATM   16  O           1     -33.567  -3.286 -10.323  0.00  0.00    -0.646 OA
HETATM   17  O           1     -32.290  -4.054 -11.891  0.00  0.00    -0.646 OA
ENDBRANCH  14  15
BRANCH  14  18
HETATM   18  C           1     -34.217  -4.323 -13.745  0.00  0.00     0.200 C 
BRANCH  18  19
HETATM   19  O           1     -35.002  -5.484 -13.767  0.00  0.00    -0.398 OA
HETATM   20  H           1     -34.418  -6.212 -13.641  0.00  0.00     0.209 HD
ENDBRANCH  18  19
ENDBRANCH  14  18
ENDBRANCH   1  14
TORSDOF 8
ENDMDL
MODEL 7
REMARK VINA RESULT:      -5.0      3.653      5.744
REMARK  8 active torsions:
REMARK  status: ('A' for Active; 'I' for Inactive)
REMARK    1  A    between atoms: N_2  and  C_18 
REMARK       I    between atoms: N_2  and  C_3 
REMARK    2  A    between atoms: C_3  and  C_4 
REMARK    3  A    between atoms: C_4  and  C_13 
REMARK    4  A    between atoms: C_4  and  N_14 
REMARK    5  A    between atoms: C_12  and  C_13 
REMARK    6  A    between atoms: C_17  and  C_18 
REMARK    7  A    between atoms: C_18  and  C_19 
REMARK    8  A    between atoms: C_19  and  O_20 
ROOT
HETATM    1  N           1     -35.199  -3.045 -11.162  0.00  0.00    -0.343 N 
HETATM    2  C           1     -35.053  -1.808 -10.593  0.00  0.00     0.249 C 
HETATM    3  H           1     -36.029  -3.260 -11.698  0.00  0.00     0.163 HD
HETATM    4  O           1     -34.061  -1.552  -9.953  0.00  0.00    -0.271 OA
ENDROOT
BRANCH   2   5
HETATM    5  C           1     -36.129  -0.765 -10.768  0.00  0.00     0.275 C 
BRANCH   5   6
HETATM    6  C           1     -37.363  -1.171  -9.974  0.00  0.00     0.046 C 
BRANCH   6   7
HETATM    7  C           1     -37.844   0.009  -9.141  0.00  0.00    -0.020 C 
HETATM    8  C           1     -36.916   1.197  -9.362  0.00  0.00     0.009 C 
HETATM    9  C           1     -37.837  -0.372  -7.667  0.00  0.00     0.009 C 
ENDBRANCH   6   7
ENDBRANCH   5   6
BRANCH   5  10
HETATM   10  N           1     -36.484  -0.652 -12.220  0.00  0.00    -0.066 N 
HETATM   11  H           1     -36.938   0.272 -12.398  0.00  0.00     0.275 HD
HETATM   12  H           1     -35.615  -0.729 -12.797  0.00  0.00     0.275 HD
HETATM   13  H           1     -37.143  -1.421 -12.479  0.00  0.00     0.275 HD
ENDBRANCH   5  10
ENDBRANCH   2   5
BRANCH   1  14
HETATM   14  C           1     -34.165  -4.047 -10.994  0.00  0.00     0.209 C 
BRANCH  14  15
HETATM   15  C           1     -33.301  -4.090 -12.230  0.00  0.00     0.198 C 
HETATM   16  O           1     -32.100  -4.423 -12.143  0.00  0.00    -0.646 OA
HETATM   17  O           1     -33.787  -3.791 -13.343  0.00  0.00    -0.646 OA
ENDBRANCH  14  15
BRANCH  14  18
HETATM   18  C           1     -34.809  -5.411 -10.777  0.00  0.00     0.200 C 
BRANCH  18  19
HETATM   19  O           1     -34.371  -6.299 -11.769  0.00  0.00    -0.398 OA
HETATM   20  H           1     -34.757  -6.017 -12.579  0.00  0.00     0.209 HD
ENDBRANCH  18  19
ENDBRANCH  14  18
ENDBRANCH   1  14
TORSDOF 8
ENDMDL
MODEL 8
REMARK VINA RESULT:      -5.0     25.230     26.169
REMARK  8 active torsions:
REMARK  status: ('A' for Active; 'I' for Inactive)
REMARK    1  A    between atoms: N_2  and  C_18 
REMARK       I    between atoms: N_2  and  C_3 
REMARK    2  A    between atoms: C_3  and  C_4 
REMARK    3  A    between atoms: C_4  and  C_13 
REMARK    4  A    between atoms: C_4  and  N_14 
REMARK    5  A    between atoms: C_12  and  C_13 
REMARK    6  A    between atoms: C_17  and  C_18 
REMARK    7  A    between atoms: C_18  and  C_19 
REMARK    8  A    between atoms: C_19  and  O_20 
ROOT
HETATM    1  N           1     -11.598   7.826 -19.826  0.00  0.00    -0.343 N 
HETATM    2  C           1     -10.357   7.261 -19.949  0.00  0.00     0.249 C 
HETATM    3  H           1     -12.402   7.243 -19.635  0.00  0.00     0.163 HD
HETATM    4  O           1      -9.396   7.957 -20.177  0.00  0.00    -0.271 OA
ENDROOT
BRANCH   2   5
HETATM    5  C           1     -10.188   5.769 -19.799  0.00  0.00     0.275 C 
BRANCH   5   6
HETATM    6  C           1     -11.550   5.122 -19.589  0.00  0.00     0.046 C 
BRANCH   6   7
HETATM    7  C           1     -11.809   4.109 -20.695  0.00  0.00    -0.020 C 
HETATM    8  C           1     -13.301   3.815 -20.775  0.00  0.00     0.009 C 
HETATM    9  C           1     -11.054   2.822 -20.393  0.00  0.00     0.009 C 
ENDBRANCH   6   7
ENDBRANCH   5   6
BRANCH   5  10
HETATM   10  N           1      -9.311   5.483 -18.616  0.00  0.00    -0.066 N 
HETATM   11  H           1      -8.984   4.491 -18.657  0.00  0.00     0.275 HD
HETATM   12  H           1      -8.485   6.123 -18.633  0.00  0.00     0.275 HD
HETATM   13  H           1      -9.853   5.636 -17.736  0.00  0.00     0.275 HD
ENDBRANCH   5  10
ENDBRANCH   2   5
BRANCH   1  14
HETATM   14  C           1     -11.759   9.260 -19.971  0.00  0.00     0.209 C 
BRANCH  14  15
HETATM   15  C           1     -12.912   9.724 -19.115  0.00  0.00     0.198 C 
HETATM   16  O           1     -13.827  10.410 -19.618  0.00  0.00    -0.646 OA
HETATM   17  O           1     -12.952   9.424 -17.902  0.00  0.00    -0.646 OA
ENDBRANCH  14  15
BRANCH  14  18
HETATM   18  C           1     -12.043   9.594 -21.430  0.00  0.00     0.200 C 
BRANCH  18  19
HETATM   19  O           1     -11.807  10.958 -21.653  0.00  0.00    -0.398 OA
HETATM   20  H           1     -11.932  11.109 -22.573  0.00  0.00     0.209 HD
ENDBRANCH  18  19
ENDBRANCH  14  18
ENDBRANCH   1  14
TORSDOF 8
ENDMDL
MODEL 9
REMARK VINA RESULT:      -5.0     14.768     17.339
REMARK  8 active torsions:
REMARK  status: ('A' for Active; 'I' for Inactive)
REMARK    1  A    between atoms: N_2  and  C_18 
REMARK       I    between atoms: N_2  and  C_3 
REMARK    2  A    between atoms: C_3  and  C_4 
REMARK    3  A    between atoms: C_4  and  C_13 
REMARK    4  A    between atoms: C_4  and  N_14 
REMARK    5  A    between atoms: C_12  and  C_13 
REMARK    6  A    between atoms: C_17  and  C_18 
REMARK    7  A    between atoms: C_18  and  C_19 
REMARK    8  A    between atoms: C_19  and  O_20 
ROOT
HETATM    1  N           1     -20.968  -6.450  -5.190  0.00  0.00    -0.343 N 
HETATM    2  C           1     -21.593  -5.519  -5.975  0.00  0.00     0.249 C 
HETATM    3  H           1     -19.961  -6.538  -5.215  0.00  0.00     0.163 HD
HETATM    4  O           1     -22.796  -5.413  -5.944  0.00  0.00    -0.271 OA
ENDROOT
BRANCH   2   5
HETATM    5  C           1     -20.780  -4.625  -6.879  0.00  0.00     0.275 C 
BRANCH   5   6
HETATM    6  C           1     -20.825  -5.164  -8.302  0.00  0.00     0.046 C 
BRANCH   6   7
HETATM    7  C           1     -21.229  -4.050  -9.256  0.00  0.00    -0.020 C 
HETATM    8  C           1     -22.735  -4.094  -9.479  0.00  0.00     0.009 C 
HETATM    9  C           1     -20.514  -4.236 -10.587  0.00  0.00     0.009 C 
ENDBRANCH   6   7
ENDBRANCH   5   6
BRANCH   5  10
HETATM   10  N           1     -19.358  -4.593  -6.401  0.00  0.00    -0.066 N 
HETATM   11  H           1     -19.271  -3.914  -5.612  0.00  0.00     0.275 HD
HETATM   12  H           1     -19.082  -5.546  -6.072  0.00  0.00     0.275 HD
HETATM   13  H           1     -18.734  -4.300  -7.186  0.00  0.00     0.275 HD
ENDBRANCH   5  10
ENDBRANCH   2   5
BRANCH   1  14
HETATM   14  C           1     -21.750  -7.309  -4.322  0.00  0.00     0.209 C 
BRANCH  14  15
HETATM   15  C           1     -21.651  -6.811  -2.901  0.00  0.00     0.198 C 
HETATM   16  O           1     -22.424  -5.917  -2.496  0.00  0.00    -0.646 OA
HETATM   17  O           1     -20.794  -7.292  -2.127  0.00  0.00    -0.646 OA
ENDBRANCH  14  15
BRANCH  14  18
HETATM   18  C           1     -21.213  -8.733  -4.400  0.00  0.00     0.200 C 
BRANCH  18  19
HETATM   19  O           1     -21.053  -9.100  -5.743  0.00  0.00    -0.398 OA
HETATM   20  H           1     -21.897  -9.016  -6.152  0.00  0.00     0.209 HD
ENDBRANCH  18  19
ENDBRANCH  14  18
ENDBRANCH   1  14
TORSDOF 8
ENDMDL
