MODEL 1
REMARK VINA RESULT:      -5.3      0.000      0.000
REMARK  5 active torsions:
REMARK  status: ('A' for Active; 'I' for Inactive)
REMARK    1  A    between atoms: C_2  and  C_3 
REMARK       I    between atoms: C_3  and  N_4 
REMARK    2  A    between atoms: N_4  and  C_20 
REMARK    3  A    between atoms: C_18  and  O_19 
REMARK    4  A    between atoms: C_18  and  C_20 
REMARK    5  A    between atoms: C_20  and  C_21 
ROOT
HETATM    1  C           1     -11.138   5.448 -20.026  0.00  0.00     0.249 C 
HETATM    2  N           1     -10.686   6.667 -20.455  0.00  0.00    -0.343 N 
HETATM    3  H           1     -10.105   6.729 -21.281  0.00  0.00     0.163 HD
HETATM    4  O           1     -11.832   5.374 -19.040  0.00  0.00    -0.271 OA
ENDROOT
BRANCH   1   5
HETATM    5  C           1     -10.771   4.197 -20.787  0.00  0.00     0.274 C 
HETATM    6  C           1     -10.867   4.466 -22.283  0.00  0.00     0.042 C 
HETATM    7  C           1     -12.291   4.875 -22.636  0.00  0.00     0.003 C 
HETATM    8 Se           1     -13.518   3.439 -22.155  0.00  0.00     0.000 Se
HETATM    9  C           1     -15.114   4.378 -22.762  0.00  0.00     0.000 C 
HETATM   10  H           1     -12.693   3.373 -20.659  0.00  0.00     0.275 HD
HETATM   11  N           1     -11.716   3.093 -20.416  0.00  0.00    -0.067 N 
HETATM   12  H           1     -11.463   2.226 -20.942  0.00  0.00     0.275 HD
HETATM   13  H           1     -11.650   2.908 -19.389  0.00  0.00     0.275 HD
ENDBRANCH   1   5
BRANCH   2  14
HETATM   14  C           1     -11.039   7.869 -19.724  0.00  0.00     0.214 C 
BRANCH  14  15
HETATM   15  C           1     -10.084   8.992 -20.104  0.00  0.00     0.147 C 
HETATM   16  C           1      -9.061   8.471 -21.105  0.00  0.00     0.042 C 
BRANCH  15  17
HETATM   17  O           1     -10.808  10.046 -20.680  0.00  0.00    -0.393 OA
HETATM   18  H           1     -10.492  10.842 -20.287  0.00  0.00     0.210 HD
ENDBRANCH  15  17
ENDBRANCH  14  15
BRANCH  14  19
HETATM   19  C           1     -12.451   8.271 -20.071  0.00  0.00     0.199 C 
HETATM   20  O           1     -13.196   8.758 -19.193  0.00  0.00    -0.646 OA
HETATM   21  O           1     -12.877   8.115 -21.236  0.00  0.00    -0.646 OA
ENDBRANCH  14  19
ENDBRANCH   2  14
TORSDOF 5
ENDMDL
MODEL 2
REMARK VINA RESULT:      -5.0      2.198      3.259
REMARK  5 active torsions:
REMARK  status: ('A' for Active; 'I' for Inactive)
REMARK    1  A    between atoms: C_2  and  C_3 
REMARK       I    between atoms: C_3  and  N_4 
REMARK    2  A    between atoms: N_4  and  C_20 
REMARK    3  A    between atoms: C_18  and  O_19 
REMARK    4  A    between atoms: C_18  and  C_20 
REMARK    5  A    between atoms: C_20  and  C_21 
ROOT
HETATM    1  C           1     -12.601   6.721 -21.651  0.00  0.00     0.249 C 
HETATM    2  N           1     -12.158   7.275 -20.480  0.00  0.00    -0.343 N 
HETATM    3  H           1     -12.677   7.131 -19.623  0.00  0.00     0.163 HD
HETATM    4  O           1     -11.980   6.893 -22.673  0.00  0.00    -0.271 OA
ENDROOT
BRANCH   1   5
HETATM    5  C           1     -13.863   5.894 -21.664  0.00  0.00     0.274 C 
HETATM    6  C           1     -14.026   5.195 -20.320  0.00  0.00     0.042 C 
HETATM    7  C           1     -12.829   4.288 -20.070  0.00  0.00     0.003 C 
HETATM    8 Se           1     -12.716   2.954 -21.485  0.00  0.00     0.000 Se
HETATM    9  C           1     -11.126   2.086 -20.764  0.00  0.00     0.000 C 
HETATM   10  H           1     -12.954   4.244 -22.581  0.00  0.00     0.275 HD
HETATM   11  N           1     -13.775   4.866 -22.754  0.00  0.00    -0.067 N 
HETATM   12  H           1     -14.649   4.293 -22.764  0.00  0.00     0.275 HD
HETATM   13  H           1     -13.663   5.345 -23.676  0.00  0.00     0.275 HD
ENDBRANCH   1   5
BRANCH   2  14
HETATM   14  C           1     -10.945   8.069 -20.467  0.00  0.00     0.214 C 
BRANCH  14  15
HETATM   15  C           1     -11.048   9.136 -19.386  0.00  0.00     0.147 C 
HETATM   16  C           1     -12.507   9.312 -18.985  0.00  0.00     0.042 C 
BRANCH  15  17
HETATM   17  O           1     -10.300   8.741 -18.267  0.00  0.00    -0.393 OA
HETATM   18  H           1     -10.716   9.120 -17.512  0.00  0.00     0.210 HD
ENDBRANCH  15  17
ENDBRANCH  14  15
BRANCH  14  19
HETATM   19  C           1      -9.762   7.176 -20.182  0.00  0.00     0.199 C 
HETATM   20  O           1      -9.880   6.216 -19.390  0.00  0.00    -0.646 OA
HETATM   21  O           1      -8.665   7.397 -20.737  0.00  0.00    -0.646 OA
ENDBRANCH  14  19
ENDBRANCH   2  14
TORSDOF 5
ENDMDL
MODEL 3
REMARK VINA RESULT:      -4.9     19.120     20.645
REMARK  5 active torsions:
REMARK  status: ('A' for Active; 'I' for Inactive)
REMARK    1  A    between atoms: C_2  and  C_3 
REMARK       I    between atoms: C_3  and  N_4 
REMARK    2  A    between atoms: N_4  and  C_20 
REMARK    3  A    between atoms: C_18  and  O_19 
REMARK    4  A    between atoms: C_18  and  C_20 
REMARK    5  A    between atoms: C_20  and  C_21 
ROOT
HETATM    1  C           1     -27.203  -6.202 -17.046  0.00  0.00     0.249 C 
HETATM    2  N           1     -26.612  -6.933 -18.041  0.00  0.00    -0.343 N 
HETATM    3  H           1     -26.881  -7.898 -18.189  0.00  0.00     0.163 HD
HETATM    4  O           1     -26.882  -5.050 -16.870  0.00  0.00    -0.271 OA
ENDROOT
BRANCH   1   5
HETATM    5  C           1     -28.256  -6.834 -16.169  0.00  0.00     0.274 C 
HETATM    6  C           1     -29.422  -7.301 -17.030  0.00  0.00     0.042 C 
HETATM    7  C           1     -30.022  -6.109 -17.763  0.00  0.00     0.003 C 
HETATM    8 Se           1     -30.657  -4.800 -16.466  0.00  0.00     0.000 Se
HETATM    9  C           1     -31.298  -3.540 -17.807  0.00  0.00     0.000 C 
HETATM   10  H           1     -29.157  -5.009 -15.674  0.00  0.00     0.275 HD
HETATM   11  N           1     -28.745  -5.827 -15.170  0.00  0.00    -0.067 N 
HETATM   12  H           1     -29.474  -6.263 -14.562  0.00  0.00     0.275 HD
HETATM   13  H           1     -27.945  -5.506 -14.579  0.00  0.00     0.275 HD
ENDBRANCH   1   5
BRANCH   2  14
HETATM   14  C           1     -25.601  -6.325 -18.884  0.00  0.00     0.214 C 
BRANCH  14  15
HETATM   15  C           1     -24.234  -6.891 -18.525  0.00  0.00     0.147 C 
HETATM   16  C           1     -24.272  -7.445 -17.106  0.00  0.00     0.042 C 
BRANCH  15  17
HETATM   17  O           1     -23.905  -7.919 -19.420  0.00  0.00    -0.393 OA
HETATM   18  H           1     -23.897  -8.721 -18.925  0.00  0.00     0.210 HD
ENDBRANCH  15  17
ENDBRANCH  14  15
BRANCH  14  19
HETATM   19  C           1     -25.906  -6.626 -20.331  0.00  0.00     0.199 C 
HETATM   20  O           1     -25.291  -6.025 -21.238  0.00  0.00    -0.646 OA
HETATM   21  O           1     -26.774  -7.477 -20.623  0.00  0.00    -0.646 OA
ENDBRANCH  14  19
ENDBRANCH   2  14
TORSDOF 5
ENDMDL
MODEL 4
REMARK VINA RESULT:      -4.9     19.210     20.460
REMARK  5 active torsions:
REMARK  status: ('A' for Active; 'I' for Inactive)
REMARK    1  A    between atoms: C_2  and  C_3 
REMARK       I    between atoms: C_3  and  N_4 
REMARK    2  A    between atoms: N_4  and  C_20 
REMARK    3  A    between atoms: C_18  and  O_19 
REMARK    4  A    between atoms: C_18  and  C_20 
REMARK    5  A    between atoms: C_20  and  C_21 
ROOT
HETATM    1  C           1     -27.686  -6.121 -19.567  0.00  0.00     0.249 C 
HETATM    2  N           1     -26.618  -6.972 -19.463  0.00  0.00    -0.343 N 
HETATM    3  H           1     -26.575  -7.641 -18.705  0.00  0.00     0.163 HD
HETATM    4  O           1     -27.736  -5.322 -20.472  0.00  0.00    -0.271 OA
ENDROOT
BRANCH   1   5
HETATM    5  C           1     -28.799  -6.182 -18.551  0.00  0.00     0.274 C 
HETATM    6  C           1     -28.641  -5.040 -17.555  0.00  0.00     0.042 C 
HETATM    7  C           1     -27.300  -5.166 -16.845  0.00  0.00     0.003 C 
HETATM    8 Se           1     -27.222  -6.868 -15.898  0.00  0.00     0.000 Se
HETATM    9  C           1     -25.428  -6.580 -15.193  0.00  0.00     0.000 C 
HETATM   10  H           1     -27.819  -7.577 -17.335  0.00  0.00     0.275 HD
HETATM   11  N           1     -28.739  -7.492 -17.822  0.00  0.00    -0.067 N 
HETATM   12  H           1     -29.510  -7.535 -17.118  0.00  0.00     0.275 HD
HETATM   13  H           1     -28.848  -8.276 -18.505  0.00  0.00     0.275 HD
ENDBRANCH   1   5
BRANCH   2  14
HETATM   14  C           1     -25.548  -6.913 -20.440  0.00  0.00     0.214 C 
BRANCH  14  15
HETATM   15  C           1     -24.211  -7.113 -19.740  0.00  0.00     0.147 C 
HETATM   16  C           1     -24.420  -7.092 -18.231  0.00  0.00     0.042 C 
BRANCH  15  17
HETATM   17  O           1     -23.664  -8.347 -20.119  0.00  0.00    -0.393 OA
HETATM   18  H           1     -24.315  -9.003 -19.934  0.00  0.00     0.210 HD
ENDBRANCH  15  17
ENDBRANCH  14  15
BRANCH  14  19
HETATM   19  C           1     -25.745  -8.001 -21.467  0.00  0.00     0.199 C 
HETATM   20  O           1     -26.695  -8.804 -21.352  0.00  0.00    -0.646 OA
HETATM   21  O           1     -24.957  -8.099 -22.433  0.00  0.00    -0.646 OA
ENDBRANCH  14  19
ENDBRANCH   2  14
TORSDOF 5
ENDMDL
MODEL 5
REMARK VINA RESULT:      -4.8     20.385     21.954
REMARK  5 active torsions:
REMARK  status: ('A' for Active; 'I' for Inactive)
REMARK    1  A    between atoms: C_2  and  C_3 
REMARK       I    between atoms: C_3  and  N_4 
REMARK    2  A    between atoms: N_4  and  C_20 
REMARK    3  A    between atoms: C_18  and  O_19 
REMARK    4  A    between atoms: C_18  and  C_20 
REMARK    5  A    between atoms: C_20  and  C_21 
ROOT
HETATM    1  C           1     -20.778  -5.883  -6.544  0.00  0.00     0.249 C 
HETATM    2  N           1     -20.637  -6.019  -5.189  0.00  0.00    -0.343 N 
HETATM    3  H           1     -20.124  -5.323  -4.662  0.00  0.00     0.163 HD
HETATM    4  O           1     -21.391  -6.712  -7.174  0.00  0.00    -0.271 OA
ENDROOT
BRANCH   1   5
HETATM    5  C           1     -20.170  -4.696  -7.251  0.00  0.00     0.274 C 
HETATM    6  C           1     -21.132  -3.517  -7.183  0.00  0.00     0.042 C 
HETATM    7  C           1     -22.444  -3.891  -7.858  0.00  0.00     0.003 C 
HETATM    8 Se           1     -22.110  -4.348  -9.723  0.00  0.00     0.000 Se
HETATM    9  C           1     -23.976  -4.730 -10.134  0.00  0.00     0.000 C 
HETATM   10  H           1     -20.814  -5.304  -9.149  0.00  0.00     0.275 HD
HETATM   11  N           1     -19.913  -5.048  -8.687  0.00  0.00    -0.067 N 
HETATM   12  H           1     -19.492  -4.227  -9.177  0.00  0.00     0.275 HD
HETATM   13  H           1     -19.253  -5.857  -8.734  0.00  0.00     0.275 HD
ENDBRANCH   1   5
BRANCH   2  14
HETATM   14  C           1     -21.221  -7.159  -4.511  0.00  0.00     0.214 C 
BRANCH  14  15
HETATM   15  C           1     -20.246  -8.327  -4.550  0.00  0.00     0.147 C 
HETATM   16  C           1     -21.019  -9.627  -4.729  0.00  0.00     0.042 C 
BRANCH  15  17
HETATM   17  O           1     -19.359  -8.158  -5.624  0.00  0.00    -0.393 OA
HETATM   18  H           1     -19.877  -8.163  -6.410  0.00  0.00     0.210 HD
ENDBRANCH  15  17
ENDBRANCH  14  15
BRANCH  14  19
HETATM   19  C           1     -21.512  -6.794  -3.076  0.00  0.00     0.199 C 
HETATM   20  O           1     -22.432  -5.992  -2.809  0.00  0.00    -0.646 OA
HETATM   21  O           1     -20.832  -7.295  -2.154  0.00  0.00    -0.646 OA
ENDBRANCH  14  19
ENDBRANCH   2  14
TORSDOF 5
ENDMDL
MODEL 6
REMARK VINA RESULT:      -4.6     24.079     25.448
REMARK  5 active torsions:
REMARK  status: ('A' for Active; 'I' for Inactive)
REMARK    1  A    between atoms: C_2  and  C_3 
REMARK       I    between atoms: C_3  and  N_4 
REMARK    2  A    between atoms: N_4  and  C_20 
REMARK    3  A    between atoms: C_18  and  O_19 
REMARK    4  A    between atoms: C_18  and  C_20 
REMARK    5  A    between atoms: C_20  and  C_21 
ROOT
HETATM    1  C           1     -21.521  -9.936  -3.383  0.00  0.00     0.249 C 
HETATM    2  N           1     -21.123  -8.630  -3.476  0.00  0.00    -0.343 N 
HETATM    3  H           1     -20.449  -8.258  -2.818  0.00  0.00     0.163 HD
HETATM    4  O           1     -22.325 -10.380  -4.169  0.00  0.00    -0.271 OA
ENDROOT
BRANCH   1   5
HETATM    5  C           1     -20.956 -10.822  -2.300  0.00  0.00     0.274 C 
HETATM    6  C           1     -22.095 -11.390  -1.463  0.00  0.00     0.042 C 
HETATM    7  C           1     -22.877 -10.248  -0.828  0.00  0.00     0.003 C 
HETATM    8 Se           1     -21.692  -9.202   0.313  0.00  0.00     0.000 Se
HETATM    9  C           1     -23.071  -7.940   0.865  0.00  0.00     0.000 C 
HETATM   10  H           1     -20.582  -9.233  -0.986  0.00  0.00     0.275 HD
HETATM   11  N           1     -20.044 -10.016  -1.422  0.00  0.00    -0.067 N 
HETATM   12  H           1     -19.652 -10.628  -0.672  0.00  0.00     0.275 HD
HETATM   13  H           1     -19.263  -9.626  -1.996  0.00  0.00     0.275 HD
ENDBRANCH   1   5
BRANCH   2  14
HETATM   14  C           1     -21.666  -7.779  -4.517  0.00  0.00     0.214 C 
BRANCH  14  15
HETATM   15  C           1     -21.911  -6.385  -3.956  0.00  0.00     0.147 C 
HETATM   16  C           1     -21.904  -6.442  -2.434  0.00  0.00     0.042 C 
BRANCH  15  17
HETATM   17  O           1     -20.898  -5.520  -4.396  0.00  0.00    -0.393 OA
HETATM   18  H           1     -20.351  -5.337  -3.651  0.00  0.00     0.210 HD
ENDBRANCH  15  17
ENDBRANCH  14  15
BRANCH  14  19
HETATM   19  C           1     -20.685  -7.696  -5.661  0.00  0.00     0.199 C 
HETATM   20  O           1     -19.540  -8.181  -5.539  0.00  0.00    -0.646 OA
HETATM   21  O           1     -21.018  -7.141  -6.730  0.00  0.00    -0.646 OA
ENDBRANCH  14  19
ENDBRANCH   2  14
TORSDOF 5
ENDMDL
MODEL 7
REMARK VINA RESULT:      -4.6     24.375     25.806
REMARK  5 active torsions:
REMARK  status: ('A' for Active; 'I' for Inactive)
REMARK    1  A    between atoms: C_2  and  C_3 
REMARK       I    between atoms: C_3  and  N_4 
REMARK    2  A    between atoms: N_4  and  C_20 
REMARK    3  A    between atoms: C_18  and  O_19 
REMARK    4  A    between atoms: C_18  and  C_20 
REMARK    5  A    between atoms: C_20  and  C_21 
ROOT
HETATM    1  C           1     -20.219  -9.419  -2.547  0.00  0.00     0.249 C 
HETATM    2  N           1     -21.291  -8.873  -1.894  0.00  0.00    -0.343 N 
HETATM    3  H           1     -22.211  -8.905  -2.316  0.00  0.00     0.163 HD
HETATM    4  O           1     -19.121  -9.381  -2.044  0.00  0.00    -0.271 OA
ENDROOT
BRANCH   1   5
HETATM    5  C           1     -20.410 -10.071  -3.895  0.00  0.00     0.274 C 
HETATM    6  C           1     -19.442  -9.456  -4.898  0.00  0.00     0.042 C 
HETATM    7  C           1     -19.710  -7.962  -5.014  0.00  0.00     0.003 C 
HETATM    8 Se           1     -21.540  -7.675  -5.620  0.00  0.00     0.000 Se
HETATM    9  C           1     -21.411  -5.730  -5.614  0.00  0.00     0.000 C 
HETATM   10  H           1     -22.002  -8.824  -4.441  0.00  0.00     0.275 HD
HETATM   11  N           1     -21.818  -9.849  -4.362  0.00  0.00    -0.067 N 
HETATM   12  H           1     -21.951 -10.300  -5.295  0.00  0.00     0.275 HD
HETATM   13  H           1     -22.483 -10.271  -3.674  0.00  0.00     0.275 HD
ENDBRANCH   1   5
BRANCH   2  14
HETATM   14  C           1     -21.108  -8.247  -0.599  0.00  0.00     0.214 C 
BRANCH  14  15
HETATM   15  C           1     -22.071  -7.076  -0.461  0.00  0.00     0.147 C 
HETATM   16  C           1     -22.275  -6.424  -1.822  0.00  0.00     0.042 C 
BRANCH  15  17
HETATM   17  O           1     -23.303  -7.540   0.026  0.00  0.00    -0.393 OA
HETATM   18  H           1     -23.129  -7.967   0.847  0.00  0.00     0.210 HD
ENDBRANCH  15  17
ENDBRANCH  14  15
BRANCH  14  19
HETATM   19  C           1     -21.382  -9.256   0.489  0.00  0.00     0.199 C 
HETATM   20  O           1     -20.922  -9.077   1.638  0.00  0.00    -0.646 OA
HETATM   21  O           1     -22.069 -10.270   0.242  0.00  0.00    -0.646 OA
ENDBRANCH  14  19
ENDBRANCH   2  14
TORSDOF 5
ENDMDL
MODEL 8
REMARK VINA RESULT:      -4.6     24.337     25.807
REMARK  5 active torsions:
REMARK  status: ('A' for Active; 'I' for Inactive)
REMARK    1  A    between atoms: C_2  and  C_3 
REMARK       I    between atoms: C_3  and  N_4 
REMARK    2  A    between atoms: N_4  and  C_20 
REMARK    3  A    between atoms: C_18  and  O_19 
REMARK    4  A    between atoms: C_18  and  C_20 
REMARK    5  A    between atoms: C_20  and  C_21 
ROOT
HETATM    1  C           1     -20.328  -8.740  -3.453  0.00  0.00     0.249 C 
HETATM    2  N           1     -21.441  -8.506  -2.692  0.00  0.00    -0.343 N 
HETATM    3  H           1     -22.343  -8.391  -3.136  0.00  0.00     0.163 HD
HETATM    4  O           1     -19.251  -8.877  -2.923  0.00  0.00    -0.271 OA
ENDROOT
BRANCH   1   5
HETATM    5  C           1     -20.446  -8.829  -4.955  0.00  0.00     0.274 C 
HETATM    6  C           1     -21.212 -10.090  -5.331  0.00  0.00     0.042 C 
HETATM    7  C           1     -20.469 -11.312  -4.808  0.00  0.00     0.003 C 
HETATM    8 Se           1     -18.687 -11.376  -5.596  0.00  0.00     0.000 Se
HETATM    9  C           1     -18.161 -13.012  -4.677  0.00  0.00     0.000 C 
HETATM   10  H           1     -18.565  -9.717  -5.203  0.00  0.00     0.275 HD
HETATM   11  N           1     -19.075  -8.878  -5.562  0.00  0.00    -0.067 N 
HETATM   12  H           1     -19.156  -8.940  -6.602  0.00  0.00     0.275 HD
HETATM   13  H           1     -18.548  -8.013  -5.304  0.00  0.00     0.275 HD
ENDBRANCH   1   5
BRANCH   2  14
HETATM   14  C           1     -21.327  -8.421  -1.249  0.00  0.00     0.214 C 
BRANCH  14  15
HETATM   15  C           1     -21.997  -7.143  -0.762  0.00  0.00     0.147 C 
HETATM   16  C           1     -22.246  -6.218  -1.945  0.00  0.00     0.042 C 
BRANCH  15  17
HETATM   17  O           1     -23.219  -7.460  -0.150  0.00  0.00    -0.393 OA
HETATM   18  H           1     -23.703  -6.656  -0.074  0.00  0.00     0.210 HD
ENDBRANCH  15  17
ENDBRANCH  14  15
BRANCH  14  19
HETATM   19  C           1     -22.003  -9.614  -0.620  0.00  0.00     0.199 C 
HETATM   20  O           1     -22.903 -10.221  -1.239  0.00  0.00    -0.646 OA
HETATM   21  O           1     -21.662  -9.996   0.520  0.00  0.00    -0.646 OA
ENDBRANCH  14  19
ENDBRANCH   2  14
TORSDOF 5
ENDMDL
MODEL 9
REMARK VINA RESULT:      -4.5     21.583     23.110
REMARK  5 active torsions:
REMARK  status: ('A' for Active; 'I' for Inactive)
REMARK    1  A    between atoms: C_2  and  C_3 
REMARK       I    between atoms: C_3  and  N_4 
REMARK    2  A    between atoms: N_4  and  C_20 
REMARK    3  A    between atoms: C_18  and  O_19 
REMARK    4  A    between atoms: C_18  and  C_20 
REMARK    5  A    between atoms: C_20  and  C_21 
ROOT
HETATM    1  C           1     -20.791  -6.759  -5.396  0.00  0.00     0.249 C 
HETATM    2  N           1     -20.556  -7.007  -4.071  0.00  0.00    -0.343 N 
HETATM    3  H           1     -19.708  -6.667  -3.635  0.00  0.00     0.163 HD
HETATM    4  O           1     -21.803  -7.165  -5.916  0.00  0.00    -0.271 OA
ENDROOT
BRANCH   1   5
HETATM    5  C           1     -19.786  -5.979  -6.208  0.00  0.00     0.274 C 
HETATM    6  C           1     -20.060  -4.488  -6.059  0.00  0.00     0.042 C 
HETATM    7  C           1     -21.465  -4.177  -6.557  0.00  0.00     0.003 C 
HETATM    8 Se           1     -21.616  -4.680  -8.434  0.00  0.00     0.000 Se
HETATM    9  C           1     -23.476  -4.124  -8.603  0.00  0.00     0.000 C 
HETATM   10  H           1     -20.866  -6.152  -7.994  0.00  0.00     0.275 HD
HETATM   11  N           1     -19.902  -6.366  -7.652  0.00  0.00    -0.067 N 
HETATM   12  H           1     -19.207  -5.826  -8.215  0.00  0.00     0.275 HD
HETATM   13  H           1     -19.714  -7.389  -7.755  0.00  0.00     0.275 HD
ENDBRANCH   1   5
BRANCH   2  14
HETATM   14  C           1     -21.522  -7.756  -3.291  0.00  0.00     0.214 C 
BRANCH  14  15
HETATM   15  C           1     -20.913  -9.088  -2.873  0.00  0.00     0.147 C 
HETATM   16  C           1     -21.108 -10.107  -3.988  0.00  0.00     0.042 C 
BRANCH  15  17
HETATM   17  O           1     -19.542  -8.917  -2.629  0.00  0.00    -0.393 OA
HETATM   18  H           1     -19.209  -9.752  -2.347  0.00  0.00     0.210 HD
ENDBRANCH  15  17
ENDBRANCH  14  15
BRANCH  14  19
HETATM   19  C           1     -21.897  -6.966  -2.062  0.00  0.00     0.199 C 
HETATM   20  O           1     -22.383  -5.821  -2.179  0.00  0.00    -0.646 OA
HETATM   21  O           1     -21.722  -7.458  -0.926  0.00  0.00    -0.646 OA
ENDBRANCH  14  19
ENDBRANCH   2  14
TORSDOF 5
ENDMDL
