MODEL 1
REMARK VINA RESULT:      -6.6      0.000      0.000
REMARK  5 active torsions:
REMARK  status: ('A' for Active; 'I' for Inactive)
REMARK       I    between atoms: C_1  and  N_8 
REMARK    1  A    between atoms: C_1  and  C_9 
REMARK    2  A    between atoms: C_9  and  C_10 
REMARK    3  A    between atoms: C_10  and  C_11 
REMARK    4  A    between atoms: C_10  and  N_13 
REMARK       I    between atoms: N_13  and  C_16 
REMARK    5  A    between atoms: C_16  and  C_17 
ROOT
HETATM    1  C           1     -35.765  -0.810 -13.273  0.00  0.00     0.194 C 
ENDROOT
BRANCH   1   2
HETATM    2  C           1     -36.955  -0.166 -12.573  0.00  0.00     0.138 C 
BRANCH   2   3
HETATM    3  C           1     -36.880  -0.446 -11.092  0.00  0.00     0.217 C 
HETATM    4  O           1     -37.143  -1.548 -10.672  0.00  0.00    -0.274 OA
HETATM    5  N           1     -36.514   0.547 -10.225  0.00  0.00    -0.370 N 
HETATM    6  H           1     -36.293   1.471 -10.577  0.00  0.00     0.159 HD
HETATM    7  H           1     -36.463   0.359  -9.232  0.00  0.00     0.159 HD
ENDBRANCH   2   3
ENDBRANCH   1   2
BRANCH   1   8
HETATM    8  C           1     -35.050   0.228 -14.103  0.00  0.00     0.197 C 
HETATM    9  O           1     -34.695   1.308 -13.584  0.00  0.00    -0.646 OA
HETATM   10  O           1     -34.813   0.008 -15.311  0.00  0.00    -0.646 OA
ENDBRANCH   1   8
BRANCH   1  11
HETATM   11  N           1     -34.853  -1.347 -12.282  0.00  0.00    -0.344 N 
HETATM   12  H           1     -34.685  -0.841 -11.422  0.00  0.00     0.163 HD
HETATM   13  C           1     -34.220  -2.540 -12.509  0.00  0.00     0.251 C 
HETATM   14  O           1     -34.421  -3.143 -13.536  0.00  0.00    -0.271 OA
BRANCH  13  15
HETATM   15  C           1     -33.271  -3.099 -11.477  0.00  0.00     0.311 C 
HETATM   16  C           1     -32.666  -4.408 -11.954  0.00  0.00     0.047 C 
HETATM   17  C           1     -33.553  -5.496 -11.358  0.00  0.00     0.033 C 
HETATM   18  C           1     -34.614  -4.751 -10.566  0.00  0.00     0.271 C 
HETATM   19  N           1     -33.986  -3.469 -10.259  0.00  0.00     0.097 N 
HETATM   20  H           1     -33.338  -3.585  -9.481  0.00  0.00     0.317 HD
ENDBRANCH  13  15
ENDBRANCH   1  11
TORSDOF 5
ENDMDL
MODEL 2
REMARK VINA RESULT:      -6.3      1.787      3.153
REMARK  5 active torsions:
REMARK  status: ('A' for Active; 'I' for Inactive)
REMARK       I    between atoms: C_1  and  N_8 
REMARK    1  A    between atoms: C_1  and  C_9 
REMARK    2  A    between atoms: C_9  and  C_10 
REMARK    3  A    between atoms: C_10  and  C_11 
REMARK    4  A    between atoms: C_10  and  N_13 
REMARK       I    between atoms: N_13  and  C_16 
REMARK    5  A    between atoms: C_16  and  C_17 
ROOT
HETATM    1  C           1     -35.902  -0.257 -11.746  0.00  0.00     0.194 C 
ENDROOT
BRANCH   1   2
HETATM    2  C           1     -36.356   0.232 -13.116  0.00  0.00     0.138 C 
BRANCH   2   3
HETATM    3  C           1     -35.370  -0.221 -14.165  0.00  0.00     0.217 C 
HETATM    4  O           1     -35.385  -1.365 -14.552  0.00  0.00    -0.274 OA
HETATM    5  N           1     -34.461   0.664 -14.677  0.00  0.00    -0.370 N 
HETATM    6  H           1     -34.448   1.623 -14.353  0.00  0.00     0.159 HD
HETATM    7  H           1     -33.799   0.359 -15.380  0.00  0.00     0.159 HD
ENDBRANCH   2   3
ENDBRANCH   1   2
BRANCH   1   8
HETATM    8  C           1     -36.871   0.225 -10.695  0.00  0.00     0.197 C 
HETATM    9  O           1     -36.470   0.450  -9.532  0.00  0.00    -0.646 OA
HETATM   10  O           1     -38.074   0.398 -10.985  0.00  0.00    -0.646 OA
ENDBRANCH   1   8
BRANCH   1  11
HETATM   11  N           1     -35.863  -1.707 -11.739  0.00  0.00    -0.344 N 
HETATM   12  H           1     -36.560  -2.234 -12.250  0.00  0.00     0.163 HD
HETATM   13  C           1     -34.884  -2.362 -11.042  0.00  0.00     0.251 C 
HETATM   14  O           1     -34.053  -1.731 -10.432  0.00  0.00    -0.271 OA
BRANCH  13  15
HETATM   15  C           1     -34.843  -3.870 -11.034  0.00  0.00     0.311 C 
HETATM   16  C           1     -33.480  -4.371 -10.589  0.00  0.00     0.047 C 
HETATM   17  C           1     -32.704  -4.610 -11.879  0.00  0.00     0.033 C 
HETATM   18  C           1     -33.667  -4.240 -12.994  0.00  0.00     0.271 C 
HETATM   19  N           1     -34.984  -4.402 -12.387  0.00  0.00     0.097 N 
HETATM   20  H           1     -35.229  -5.391 -12.363  0.00  0.00     0.317 HD
ENDBRANCH  13  15
ENDBRANCH   1  11
TORSDOF 5
ENDMDL
MODEL 3
REMARK VINA RESULT:      -6.3      2.239      5.232
REMARK  5 active torsions:
REMARK  status: ('A' for Active; 'I' for Inactive)
REMARK       I    between atoms: C_1  and  N_8 
REMARK    1  A    between atoms: C_1  and  C_9 
REMARK    2  A    between atoms: C_9  and  C_10 
REMARK    3  A    between atoms: C_10  and  C_11 
REMARK    4  A    between atoms: C_10  and  N_13 
REMARK       I    between atoms: N_13  and  C_16 
REMARK    5  A    between atoms: C_16  and  C_17 
ROOT
HETATM    1  C           1     -34.783  -2.466 -12.076  0.00  0.00     0.194 C 
ENDROOT
BRANCH   1   2
HETATM    2  C           1     -33.761  -3.566 -12.331  0.00  0.00     0.138 C 
BRANCH   2   3
HETATM    3  C           1     -34.398  -4.912 -12.081  0.00  0.00     0.217 C 
HETATM    4  O           1     -35.217  -5.344 -12.857  0.00  0.00    -0.274 OA
HETATM    5  N           1     -34.047  -5.641 -10.978  0.00  0.00    -0.370 N 
HETATM    6  H           1     -33.360  -5.279 -10.329  0.00  0.00     0.159 HD
HETATM    7  H           1     -34.474  -6.544 -10.811  0.00  0.00     0.159 HD
ENDBRANCH   2   3
ENDBRANCH   1   2
BRANCH   1   8
HETATM    8  C           1     -34.469  -1.781 -10.769  0.00  0.00     0.197 C 
HETATM    9  O           1     -33.287  -1.712 -10.368  0.00  0.00    -0.646 OA
HETATM   10  O           1     -35.390  -1.284 -10.086  0.00  0.00    -0.646 OA
ENDBRANCH   1   8
BRANCH   1  11
HETATM   11  N           1     -34.729  -1.497 -13.154  0.00  0.00    -0.344 N 
HETATM   12  H           1     -33.851  -1.308 -13.621  0.00  0.00     0.163 HD
HETATM   13  C           1     -35.865  -0.838 -13.541  0.00  0.00     0.251 C 
HETATM   14  O           1     -36.912  -1.064 -12.983  0.00  0.00    -0.271 OA
BRANCH  13  15
HETATM   15  C           1     -35.809   0.170 -14.662  0.00  0.00     0.311 C 
HETATM   16  C           1     -37.143   0.251 -15.383  0.00  0.00     0.047 C 
HETATM   17  C           1     -37.011  -0.697 -16.570  0.00  0.00     0.033 C 
HETATM   18  C           1     -35.606  -1.264 -16.469  0.00  0.00     0.271 C 
HETATM   19  N           1     -34.877  -0.258 -15.701  0.00  0.00     0.097 N 
HETATM   20  H           1     -34.630   0.522 -16.310  0.00  0.00     0.317 HD
ENDBRANCH  13  15
ENDBRANCH   1  11
TORSDOF 5
ENDMDL
MODEL 4
REMARK VINA RESULT:      -6.2     10.243     12.318
REMARK  5 active torsions:
REMARK  status: ('A' for Active; 'I' for Inactive)
REMARK       I    between atoms: C_1  and  N_8 
REMARK    1  A    between atoms: C_1  and  C_9 
REMARK    2  A    between atoms: C_9  and  C_10 
REMARK    3  A    between atoms: C_10  and  C_11 
REMARK    4  A    between atoms: C_10  and  N_13 
REMARK       I    between atoms: N_13  and  C_16 
REMARK    5  A    between atoms: C_16  and  C_17 
ROOT
HETATM    1  C           1     -26.760  -6.837 -20.495  0.00  0.00     0.194 C 
ENDROOT
BRANCH   1   2
HETATM    2  C           1     -25.424  -6.149 -20.241  0.00  0.00     0.138 C 
BRANCH   2   3
HETATM    3  C           1     -24.669  -6.895 -19.169  0.00  0.00     0.217 C 
HETATM    4  O           1     -24.914  -6.688 -18.004  0.00  0.00    -0.274 OA
HETATM    5  N           1     -23.708  -7.805 -19.516  0.00  0.00    -0.370 N 
HETATM    6  H           1     -23.503  -7.978 -20.492  0.00  0.00     0.159 HD
HETATM    7  H           1     -23.202  -8.305 -18.796  0.00  0.00     0.159 HD
ENDBRANCH   2   3
ENDBRANCH   1   2
BRANCH   1   8
HETATM    8  C           1     -26.534  -8.082 -21.317  0.00  0.00     0.197 C 
HETATM    9  O           1     -25.422  -8.287 -21.848  0.00  0.00    -0.646 OA
HETATM   10  O           1     -27.460  -8.908 -21.468  0.00  0.00    -0.646 OA
ENDBRANCH   1   8
BRANCH   1  11
HETATM   11  N           1     -27.367  -7.197 -19.229  0.00  0.00    -0.344 N 
HETATM   12  H           1     -27.111  -8.065 -18.774  0.00  0.00     0.163 HD
HETATM   13  C           1     -28.286  -6.365 -18.648  0.00  0.00     0.251 C 
HETATM   14  O           1     -28.590  -5.330 -19.192  0.00  0.00    -0.271 OA
BRANCH  13  15
HETATM   15  C           1     -28.918  -6.740 -17.330  0.00  0.00     0.311 C 
HETATM   16  C           1     -29.527  -5.522 -16.658  0.00  0.00     0.047 C 
HETATM   17  C           1     -28.449  -5.013 -15.706  0.00  0.00     0.033 C 
HETATM   18  C           1     -27.284  -5.972 -15.880  0.00  0.00     0.271 C 
HETATM   19  N           1     -27.907  -7.194 -16.379  0.00  0.00     0.097 N 
HETATM   20  H           1     -28.340  -7.696 -15.604  0.00  0.00     0.317 HD
ENDBRANCH  13  15
ENDBRANCH   1  11
TORSDOF 5
ENDMDL
MODEL 5
REMARK VINA RESULT:      -5.8     10.368     12.541
REMARK  5 active torsions:
REMARK  status: ('A' for Active; 'I' for Inactive)
REMARK       I    between atoms: C_1  and  N_8 
REMARK    1  A    between atoms: C_1  and  C_9 
REMARK    2  A    between atoms: C_9  and  C_10 
REMARK    3  A    between atoms: C_10  and  C_11 
REMARK    4  A    between atoms: C_10  and  N_13 
REMARK       I    between atoms: N_13  and  C_16 
REMARK    5  A    between atoms: C_16  and  C_17 
ROOT
HETATM    1  C           1     -25.681  -6.981 -19.001  0.00  0.00     0.194 C 
ENDROOT
BRANCH   1   2
HETATM    2  C           1     -25.335  -6.699 -20.458  0.00  0.00     0.138 C 
BRANCH   2   3
HETATM    3  C           1     -25.217  -8.002 -21.209  0.00  0.00     0.217 C 
HETATM    4  O           1     -26.214  -8.588 -21.560  0.00  0.00    -0.274 OA
HETATM    5  N           1     -23.983  -8.520 -21.492  0.00  0.00    -0.370 N 
HETATM    6  H           1     -23.148  -8.029 -21.198  0.00  0.00     0.159 HD
HETATM    7  H           1     -23.904  -9.394 -21.996  0.00  0.00     0.159 HD
ENDBRANCH   2   3
ENDBRANCH   1   2
BRANCH   1   8
HETATM    8  C           1     -24.427  -6.920 -18.166  0.00  0.00     0.197 C 
HETATM    9  O           1     -23.307  -6.886 -18.721  0.00  0.00    -0.646 OA
HETATM   10  O           1     -24.505  -6.904 -16.918  0.00  0.00    -0.646 OA
ENDBRANCH   1   8
BRANCH   1  11
HETATM   11  N           1     -26.626  -5.988 -18.527  0.00  0.00    -0.344 N 
HETATM   12  H           1     -26.292  -5.158 -18.053  0.00  0.00     0.163 HD
HETATM   13  C           1     -27.968  -6.171 -18.721  0.00  0.00     0.251 C 
HETATM   14  O           1     -28.366  -7.162 -19.288  0.00  0.00    -0.271 OA
BRANCH  13  15
HETATM   15  C           1     -28.951  -5.138 -18.228  0.00  0.00     0.311 C 
HETATM   16  C           1     -28.357  -4.326 -17.091  0.00  0.00     0.047 C 
HETATM   17  C           1     -28.834  -5.016 -15.818  0.00  0.00     0.033 C 
HETATM   18  C           1     -29.682  -6.183 -16.295  0.00  0.00     0.271 C 
HETATM   19  N           1     -30.119  -5.776 -17.627  0.00  0.00     0.097 N 
HETATM   20  H           1     -30.891  -5.114 -17.545  0.00  0.00     0.317 HD
ENDBRANCH  13  15
ENDBRANCH   1  11
TORSDOF 5
ENDMDL
MODEL 6
REMARK VINA RESULT:      -5.7      2.246      5.214
REMARK  5 active torsions:
REMARK  status: ('A' for Active; 'I' for Inactive)
REMARK       I    between atoms: C_1  and  N_8 
REMARK    1  A    between atoms: C_1  and  C_9 
REMARK    2  A    between atoms: C_9  and  C_10 
REMARK    3  A    between atoms: C_10  and  C_11 
REMARK    4  A    between atoms: C_10  and  N_13 
REMARK       I    between atoms: N_13  and  C_16 
REMARK    5  A    between atoms: C_16  and  C_17 
ROOT
HETATM    1  C           1     -35.653  -1.580 -12.130  0.00  0.00     0.194 C 
ENDROOT
BRANCH   1   2
HETATM    2  C           1     -34.192  -1.647 -11.706  0.00  0.00     0.138 C 
BRANCH   2   3
HETATM    3  C           1     -33.709  -3.075 -11.787  0.00  0.00     0.217 C 
HETATM    4  O           1     -32.590  -3.355 -11.429  0.00  0.00    -0.274 OA
HETATM    5  N           1     -34.540  -4.052 -12.265  0.00  0.00    -0.370 N 
HETATM    6  H           1     -35.478  -3.818 -12.564  0.00  0.00     0.159 HD
HETATM    7  H           1     -34.216  -5.009 -12.320  0.00  0.00     0.159 HD
ENDBRANCH   2   3
ENDBRANCH   1   2
BRANCH   1   8
HETATM    8  C           1     -36.489  -1.085 -10.976  0.00  0.00     0.197 C 
HETATM    9  O           1     -35.935  -0.696  -9.925  0.00  0.00    -0.646 OA
HETATM   10  O           1     -37.735  -1.064 -11.070  0.00  0.00    -0.646 OA
ENDBRANCH   1   8
BRANCH   1  11
HETATM   11  N           1     -35.790  -0.670 -13.251  0.00  0.00    -0.344 N 
HETATM   12  H           1     -36.140   0.268 -13.101  0.00  0.00     0.163 HD
HETATM   13  C           1     -35.447  -1.079 -14.512  0.00  0.00     0.251 C 
HETATM   14  O           1     -35.030  -2.199 -14.689  0.00  0.00    -0.271 OA
BRANCH  13  15
HETATM   15  C           1     -35.589  -0.133 -15.678  0.00  0.00     0.311 C 
HETATM   16  C           1     -36.473   1.047 -15.312  0.00  0.00     0.047 C 
HETATM   17  C           1     -37.869   0.658 -15.785  0.00  0.00     0.033 C 
HETATM   18  C           1     -37.708  -0.720 -16.403  0.00  0.00     0.271 C 
HETATM   19  N           1     -36.300  -0.771 -16.783  0.00  0.00     0.097 N 
HETATM   20  H           1     -36.162  -0.252 -17.649  0.00  0.00     0.317 HD
ENDBRANCH  13  15
ENDBRANCH   1  11
TORSDOF 5
ENDMDL
MODEL 7
REMARK VINA RESULT:      -5.4     15.221     17.144
REMARK  5 active torsions:
REMARK  status: ('A' for Active; 'I' for Inactive)
REMARK       I    between atoms: C_1  and  N_8 
REMARK    1  A    between atoms: C_1  and  C_9 
REMARK    2  A    between atoms: C_9  and  C_10 
REMARK    3  A    between atoms: C_10  and  C_11 
REMARK    4  A    between atoms: C_10  and  N_13 
REMARK       I    between atoms: N_13  and  C_16 
REMARK    5  A    between atoms: C_16  and  C_17 
ROOT
HETATM    1  C           1     -21.382  -7.327  -3.819  0.00  0.00     0.194 C 
ENDROOT
BRANCH   1   2
HETATM    2  C           1     -20.512  -8.578  -3.790  0.00  0.00     0.138 C 
BRANCH   2   3
HETATM    3  C           1     -20.196  -9.004  -5.203  0.00  0.00     0.217 C 
HETATM    4  O           1     -19.303  -8.465  -5.810  0.00  0.00    -0.274 OA
HETATM    5  N           1     -20.922 -10.002  -5.795  0.00  0.00    -0.370 N 
HETATM    6  H           1     -21.671 -10.455  -5.286  0.00  0.00     0.159 HD
HETATM    7  H           1     -20.710 -10.288  -6.742  0.00  0.00     0.159 HD
ENDBRANCH   2   3
ENDBRANCH   1   2
BRANCH   1   8
HETATM    8  C           1     -21.676  -6.888  -2.407  0.00  0.00     0.197 C 
HETATM    9  O           1     -22.442  -5.921  -2.199  0.00  0.00    -0.646 OA
HETATM   10  O           1     -21.155  -7.488  -1.442  0.00  0.00    -0.646 OA
ENDBRANCH   1   8
BRANCH   1  11
HETATM   11  N           1     -20.682  -6.267  -4.519  0.00  0.00    -0.344 N 
HETATM   12  H           1     -19.701  -6.100  -4.333  0.00  0.00     0.163 HD
HETATM   13  C           1     -21.347  -5.493  -5.431  0.00  0.00     0.251 C 
HETATM   14  O           1     -22.517  -5.694  -5.653  0.00  0.00    -0.271 OA
BRANCH  13  15
HETATM   15  C           1     -20.618  -4.390  -6.160  0.00  0.00     0.311 C 
HETATM   16  C           1     -21.503  -3.773  -7.229  0.00  0.00     0.047 C 
HETATM   17  C           1     -21.146  -4.511  -8.514  0.00  0.00     0.033 C 
HETATM   18  C           1     -20.071  -5.506  -8.114  0.00  0.00     0.271 C 
HETATM   19  N           1     -19.485  -4.923  -6.910  0.00  0.00     0.097 N 
HETATM   20  H           1     -18.842  -4.176  -7.173  0.00  0.00     0.317 HD
ENDBRANCH  13  15
ENDBRANCH   1  11
TORSDOF 5
ENDMDL
MODEL 8
REMARK VINA RESULT:      -5.4      3.375      5.276
REMARK  5 active torsions:
REMARK  status: ('A' for Active; 'I' for Inactive)
REMARK       I    between atoms: C_1  and  N_8 
REMARK    1  A    between atoms: C_1  and  C_9 
REMARK    2  A    between atoms: C_9  and  C_10 
REMARK    3  A    between atoms: C_10  and  C_11 
REMARK    4  A    between atoms: C_10  and  N_13 
REMARK       I    between atoms: N_13  and  C_16 
REMARK    5  A    between atoms: C_16  and  C_17 
ROOT
HETATM    1  C           1     -34.306  -4.645 -15.458  0.00  0.00     0.194 C 
ENDROOT
BRANCH   1   2
HETATM    2  C           1     -33.084  -4.639 -16.368  0.00  0.00     0.138 C 
BRANCH   2   3
HETATM    3  C           1     -33.084  -3.381 -17.202  0.00  0.00     0.217 C 
HETATM    4  O           1     -32.082  -3.044 -17.785  0.00  0.00    -0.274 OA
HETATM    5  N           1     -34.220  -2.624 -17.299  0.00  0.00    -0.370 N 
HETATM    6  H           1     -35.061  -2.907 -16.810  0.00  0.00     0.159 HD
HETATM    7  H           1     -34.220  -1.780 -17.858  0.00  0.00     0.159 HD
ENDBRANCH   2   3
ENDBRANCH   1   2
BRANCH   1   8
HETATM    8  C           1     -34.972  -5.997 -15.521  0.00  0.00     0.197 C 
HETATM    9  O           1     -35.754  -6.352 -14.612  0.00  0.00    -0.646 OA
HETATM   10  O           1     -34.744  -6.763 -16.482  0.00  0.00    -0.646 OA
ENDBRANCH   1   8
BRANCH   1  11
HETATM   11  N           1     -33.894  -4.373 -14.094  0.00  0.00    -0.344 N 
HETATM   12  H           1     -33.325  -5.044 -13.594  0.00  0.00     0.163 HD
HETATM   13  C           1     -34.275  -3.209 -13.483  0.00  0.00     0.251 C 
HETATM   14  O           1     -34.955  -2.409 -14.080  0.00  0.00    -0.271 OA
BRANCH  13  15
HETATM   15  C           1     -33.848  -2.926 -12.064  0.00  0.00     0.311 C 
HETATM   16  C           1     -33.065  -4.095 -11.492  0.00  0.00     0.047 C 
HETATM   17  C           1     -34.095  -4.934 -10.744  0.00  0.00     0.033 C 
HETATM   18  C           1     -35.411  -4.196 -10.922  0.00  0.00     0.271 C 
HETATM   19  N           1     -35.007  -2.817 -11.182  0.00  0.00     0.097 N 
HETATM   20  H           1     -34.752  -2.366 -10.304  0.00  0.00     0.317 HD
ENDBRANCH  13  15
ENDBRANCH   1  11
TORSDOF 5
ENDMDL
MODEL 9
REMARK VINA RESULT:      -5.4     25.364     26.577
REMARK  5 active torsions:
REMARK  status: ('A' for Active; 'I' for Inactive)
REMARK       I    between atoms: C_1  and  N_8 
REMARK    1  A    between atoms: C_1  and  C_9 
REMARK    2  A    between atoms: C_9  and  C_10 
REMARK    3  A    between atoms: C_10  and  C_11 
REMARK    4  A    between atoms: C_10  and  N_13 
REMARK       I    between atoms: N_13  and  C_16 
REMARK    5  A    between atoms: C_16  and  C_17 
ROOT
HETATM    1  C           1     -11.711   8.357 -19.820  0.00  0.00     0.194 C 
ENDROOT
BRANCH   1   2
HETATM    2  C           1     -11.076   8.970 -21.062  0.00  0.00     0.138 C 
BRANCH   2   3
HETATM    3  C           1      -9.574   8.853 -20.970  0.00  0.00     0.217 C 
HETATM    4  O           1      -8.883   9.832 -21.116  0.00  0.00    -0.274 OA
HETATM    5  N           1      -8.997   7.637 -20.722  0.00  0.00    -0.370 N 
HETATM    6  H           1      -9.577   6.816 -20.600  0.00  0.00     0.159 HD
HETATM    7  H           1      -7.990   7.558 -20.661  0.00  0.00     0.159 HD
ENDBRANCH   2   3
ENDBRANCH   1   2
BRANCH   1   8
HETATM    8  C           1     -12.725   9.316 -19.248  0.00  0.00     0.197 C 
HETATM    9  O           1     -13.386  10.055 -20.010  0.00  0.00    -0.646 OA
HETATM   10  O           1     -12.904   9.374 -18.012  0.00  0.00    -0.646 OA
ENDBRANCH   1   8
BRANCH   1  11
HETATM   11  N           1     -12.369   7.114 -20.176  0.00  0.00    -0.344 N 
HETATM   12  H           1     -13.209   7.131 -20.740  0.00  0.00     0.163 HD
HETATM   13  C           1     -11.853   5.920 -19.750  0.00  0.00     0.251 C 
HETATM   14  O           1     -10.850   5.902 -19.077  0.00  0.00    -0.271 OA
BRANCH  13  15
HETATM   15  C           1     -12.538   4.627 -20.121  0.00  0.00     0.311 C 
HETATM   16  C           1     -11.557   3.468 -20.088  0.00  0.00     0.047 C 
HETATM   17  C           1     -11.066   3.324 -21.525  0.00  0.00     0.033 C 
HETATM   18  C           1     -11.798   4.403 -22.303  0.00  0.00     0.271 C 
HETATM   19  N           1     -12.994   4.659 -21.507  0.00  0.00     0.097 N 
HETATM   20  H           1     -13.680   3.924 -21.678  0.00  0.00     0.317 HD
ENDBRANCH  13  15
ENDBRANCH   1  11
TORSDOF 5
ENDMDL
