MODEL 1
REMARK VINA RESULT:      -6.5      0.000      0.000
REMARK  10 active torsions:
REMARK  status: ('A' for Active; 'I' for Inactive)
REMARK       I    between atoms: C_2  and  N_3 
REMARK    1  A    between atoms: C_2  and  C_4 
REMARK    2  A    between atoms: C_4  and  C_5 
REMARK    3  A    between atoms: C_5  and  C_6 
REMARK    4  A    between atoms: C_5  and  N_9 
REMARK       I    between atoms: N_9  and  C_10 
REMARK    5  A    between atoms: C_10  and  C_11 
REMARK    6  A    between atoms: C_11  and  C_12 
REMARK    7  A    between atoms: C_11  and  N_18 
REMARK    8  A    between atoms: C_12  and  O_13 
REMARK    9  A    between atoms: O_13  and  P_14 
REMARK   10  A    between atoms: P_14  and  O_15 
ROOT
HETATM    1  N           1     -27.691  -6.497 -18.632  0.00  0.00    -0.344 N 
HETATM    2  C           1     -26.876  -6.395 -19.728  0.00  0.00     0.251 C 
HETATM    3  O           1     -27.098  -5.560 -20.572  0.00  0.00    -0.271 OA
HETATM    4  H           1     -27.505  -7.197 -17.926  0.00  0.00     0.163 HD
ENDROOT
BRANCH   2   5
HETATM    5  C           1     -25.699  -7.328 -19.881  0.00  0.00     0.298 C 
BRANCH   5   6
HETATM    6  C           1     -24.686  -7.054 -18.777  0.00  0.00     0.224 C 
BRANCH   6   7
HETATM    7  O           1     -25.288  -6.288 -17.768  0.00  0.00    -0.287 OA
BRANCH   7   8
HETATM    8  P           1     -25.241  -6.912 -16.281  0.00  0.00     0.406 P 
HETATM    9  O           1     -24.218  -7.980 -16.225  0.00  0.00    -0.624 OA
HETATM   10  O           1     -24.899  -5.849 -15.310  0.00  0.00    -0.624 OA
BRANCH   8  11
HETATM   11  O           1     -26.686  -7.533 -15.911  0.00  0.00    -0.300 OA
HETATM   12  H           1     -27.272  -7.196 -16.568  0.00  0.00     0.223 HD
ENDBRANCH   8  11
ENDBRANCH   7   8
ENDBRANCH   6   7
ENDBRANCH   5   6
BRANCH   5  13
HETATM   13  N           1     -25.054  -7.103 -21.217  0.00  0.00    -0.064 N 
HETATM   14  H           1     -25.577  -6.364 -21.737  0.00  0.00     0.275 HD
HETATM   15  H           1     -24.065  -6.798 -21.078  0.00  0.00     0.275 HD
HETATM   16  H           1     -25.071  -7.992 -21.765  0.00  0.00     0.275 HD
ENDBRANCH   5  13
ENDBRANCH   2   5
BRANCH   1  17
HETATM   17  C           1     -28.821  -5.600 -18.486  0.00  0.00     0.194 C 
BRANCH  17  18
HETATM   18  C           1     -30.099  -6.416 -18.344  0.00  0.00     0.138 C 
BRANCH  18  19
HETATM   19  C           1     -29.751  -7.878 -18.205  0.00  0.00     0.217 C 
HETATM   20  O           1     -29.861  -8.618 -19.153  0.00  0.00    -0.274 OA
HETATM   21  N           1     -29.312  -8.366 -17.004  0.00  0.00    -0.370 N 
HETATM   22  H           1     -29.220  -7.746 -16.210  0.00  0.00     0.159 HD
HETATM   23  H           1     -29.078  -9.346 -16.911  0.00  0.00     0.159 HD
ENDBRANCH  18  19
ENDBRANCH  17  18
BRANCH  17  24
HETATM   24  C           1     -28.630  -4.747 -17.256  0.00  0.00     0.197 C 
HETATM   25  O           1     -28.532  -5.284 -16.131  0.00  0.00    -0.646 OA
HETATM   26  O           1     -28.569  -3.503 -17.362  0.00  0.00    -0.646 OA
ENDBRANCH  17  24
ENDBRANCH   1  17
TORSDOF 10
ENDMDL
MODEL 2
REMARK VINA RESULT:      -6.2      9.854     11.743
REMARK  10 active torsions:
REMARK  status: ('A' for Active; 'I' for Inactive)
REMARK       I    between atoms: C_2  and  N_3 
REMARK    1  A    between atoms: C_2  and  C_4 
REMARK    2  A    between atoms: C_4  and  C_5 
REMARK    3  A    between atoms: C_5  and  C_6 
REMARK    4  A    between atoms: C_5  and  N_9 
REMARK       I    between atoms: N_9  and  C_10 
REMARK    5  A    between atoms: C_10  and  C_11 
REMARK    6  A    between atoms: C_11  and  C_12 
REMARK    7  A    between atoms: C_11  and  N_18 
REMARK    8  A    between atoms: C_12  and  O_13 
REMARK    9  A    between atoms: O_13  and  P_14 
REMARK   10  A    between atoms: P_14  and  O_15 
ROOT
HETATM    1  N           1     -35.435  -0.340 -13.632  0.00  0.00    -0.344 N 
HETATM    2  C           1     -36.227  -0.552 -12.536  0.00  0.00     0.251 C 
HETATM    3  O           1     -37.427  -0.439 -12.626  0.00  0.00    -0.271 OA
HETATM    4  H           1     -34.430  -0.434 -13.556  0.00  0.00     0.163 HD
ENDROOT
BRANCH   2   5
HETATM    5  C           1     -35.602  -0.928 -11.215  0.00  0.00     0.298 C 
BRANCH   5   6
HETATM    6  C           1     -35.527  -2.446 -11.101  0.00  0.00     0.224 C 
BRANCH   6   7
HETATM    7  O           1     -35.344  -3.002 -12.375  0.00  0.00    -0.287 OA
BRANCH   7   8
HETATM    8  P           1     -34.121  -4.046 -12.522  0.00  0.00     0.406 P 
HETATM    9  O           1     -32.995  -3.612 -11.666  0.00  0.00    -0.624 OA
HETATM   10  O           1     -34.570  -5.393 -12.104  0.00  0.00    -0.624 OA
BRANCH   8  11
HETATM   11  O           1     -33.637  -4.095 -14.063  0.00  0.00    -0.300 OA
HETATM   12  H           1     -32.701  -3.992 -14.028  0.00  0.00     0.223 HD
ENDBRANCH   8  11
ENDBRANCH   7   8
ENDBRANCH   6   7
ENDBRANCH   5   6
BRANCH   5  13
HETATM   13  N           1     -36.438  -0.384 -10.094  0.00  0.00    -0.064 N 
HETATM   14  H           1     -36.565  -1.121  -9.364  0.00  0.00     0.275 HD
HETATM   15  H           1     -35.959   0.444  -9.674  0.00  0.00     0.275 HD
HETATM   16  H           1     -37.372  -0.097 -10.464  0.00  0.00     0.275 HD
ENDBRANCH   5  13
ENDBRANCH   2   5
BRANCH   1  17
HETATM   17  C           1     -36.036   0.021 -14.901  0.00  0.00     0.194 C 
BRANCH  17  18
HETATM   18  C           1     -35.465   1.353 -15.371  0.00  0.00     0.138 C 
BRANCH  18  19
HETATM   19  C           1     -36.511   2.098 -16.164  0.00  0.00     0.217 C 
HETATM   20  O           1     -36.189   3.031 -16.860  0.00  0.00    -0.274 OA
HETATM   21  N           1     -37.823   1.718 -16.093  0.00  0.00    -0.370 N 
HETATM   22  H           1     -38.093   0.936 -15.510  0.00  0.00     0.159 HD
HETATM   23  H           1     -38.525   2.218 -16.625  0.00  0.00     0.159 HD
ENDBRANCH  18  19
ENDBRANCH  17  18
BRANCH  17  24
HETATM   24  C           1     -35.732  -1.046 -15.924  0.00  0.00     0.197 C 
HETATM   25  O           1     -36.270  -1.003 -17.051  0.00  0.00    -0.646 OA
HETATM   26  O           1     -34.941  -1.973 -15.643  0.00  0.00    -0.646 OA
ENDBRANCH  17  24
ENDBRANCH   1  17
TORSDOF 10
ENDMDL
MODEL 3
REMARK VINA RESULT:      -6.2      2.452      4.049
REMARK  10 active torsions:
REMARK  status: ('A' for Active; 'I' for Inactive)
REMARK       I    between atoms: C_2  and  N_3 
REMARK    1  A    between atoms: C_2  and  C_4 
REMARK    2  A    between atoms: C_4  and  C_5 
REMARK    3  A    between atoms: C_5  and  C_6 
REMARK    4  A    between atoms: C_5  and  N_9 
REMARK       I    between atoms: N_9  and  C_10 
REMARK    5  A    between atoms: C_10  and  C_11 
REMARK    6  A    between atoms: C_11  and  C_12 
REMARK    7  A    between atoms: C_11  and  N_18 
REMARK    8  A    between atoms: C_12  and  O_13 
REMARK    9  A    between atoms: O_13  and  P_14 
REMARK   10  A    between atoms: P_14  and  O_15 
ROOT
HETATM    1  N           1     -27.676  -6.440 -17.680  0.00  0.00    -0.344 N 
HETATM    2  C           1     -26.889  -6.019 -16.642  0.00  0.00     0.251 C 
HETATM    3  O           1     -27.389  -5.482 -15.683  0.00  0.00    -0.271 OA
HETATM    4  H           1     -27.257  -6.889 -18.484  0.00  0.00     0.163 HD
ENDROOT
BRANCH   2   5
HETATM    5  C           1     -25.395  -6.226 -16.697  0.00  0.00     0.298 C 
BRANCH   5   6
HETATM    6  C           1     -25.053  -7.160 -17.851  0.00  0.00     0.224 C 
BRANCH   6   7
HETATM    7  O           1     -24.749  -6.403 -18.991  0.00  0.00    -0.287 OA
BRANCH   7   8
HETATM    8  P           1     -25.158  -7.060 -20.408  0.00  0.00     0.406 P 
HETATM    9  O           1     -25.127  -6.021 -21.461  0.00  0.00    -0.624 OA
HETATM   10  O           1     -24.200  -8.137 -20.747  0.00  0.00    -0.624 OA
BRANCH   8  11
HETATM   11  O           1     -26.647  -7.678 -20.306  0.00  0.00    -0.300 OA
HETATM   12  H           1     -27.201  -6.947 -20.091  0.00  0.00     0.223 HD
ENDBRANCH   8  11
ENDBRANCH   7   8
ENDBRANCH   6   7
ENDBRANCH   5   6
BRANCH   5  13
HETATM   13  N           1     -24.928  -6.834 -15.408  0.00  0.00    -0.064 N 
HETATM   14  H           1     -24.508  -7.772 -15.596  0.00  0.00     0.275 HD
HETATM   15  H           1     -24.210  -6.213 -14.971  0.00  0.00     0.275 HD
HETATM   16  H           1     -25.739  -6.940 -14.758  0.00  0.00     0.275 HD
ENDBRANCH   5  13
ENDBRANCH   2   5
BRANCH   1  17
HETATM   17  C           1     -29.112  -6.241 -17.627  0.00  0.00     0.194 C 
BRANCH  17  18
HETATM   18  C           1     -29.464  -4.916 -18.292  0.00  0.00     0.138 C 
BRANCH  18  19
HETATM   19  C           1     -30.462  -4.174 -17.438  0.00  0.00     0.217 C 
HETATM   20  O           1     -30.944  -4.709 -16.469  0.00  0.00    -0.274 OA
HETATM   21  N           1     -30.821  -2.894 -17.762  0.00  0.00    -0.370 N 
HETATM   22  H           1     -30.418  -2.445 -18.574  0.00  0.00     0.159 HD
HETATM   23  H           1     -31.491  -2.395 -17.189  0.00  0.00     0.159 HD
ENDBRANCH  18  19
ENDBRANCH  17  18
BRANCH  17  24
HETATM   24  C           1     -29.803  -7.368 -18.354  0.00  0.00     0.197 C 
HETATM   25  O           1     -29.151  -8.110 -19.121  0.00  0.00    -0.646 OA
HETATM   26  O           1     -31.027  -7.561 -18.189  0.00  0.00    -0.646 OA
ENDBRANCH  17  24
ENDBRANCH   1  17
TORSDOF 10
ENDMDL
MODEL 4
REMARK VINA RESULT:      -6.1      9.696     11.174
REMARK  10 active torsions:
REMARK  status: ('A' for Active; 'I' for Inactive)
REMARK       I    between atoms: C_2  and  N_3 
REMARK    1  A    between atoms: C_2  and  C_4 
REMARK    2  A    between atoms: C_4  and  C_5 
REMARK    3  A    between atoms: C_5  and  C_6 
REMARK    4  A    between atoms: C_5  and  N_9 
REMARK       I    between atoms: N_9  and  C_10 
REMARK    5  A    between atoms: C_10  and  C_11 
REMARK    6  A    between atoms: C_11  and  C_12 
REMARK    7  A    between atoms: C_11  and  N_18 
REMARK    8  A    between atoms: C_12  and  O_13 
REMARK    9  A    between atoms: O_13  and  P_14 
REMARK   10  A    between atoms: P_14  and  O_15 
ROOT
HETATM    1  N           1     -35.370  -0.984 -13.595  0.00  0.00    -0.344 N 
HETATM    2  C           1     -34.949  -0.985 -12.293  0.00  0.00     0.251 C 
HETATM    3  O           1     -35.054   0.015 -11.622  0.00  0.00    -0.271 OA
HETATM    4  H           1     -35.281  -1.821 -14.157  0.00  0.00     0.163 HD
ENDROOT
BRANCH   2   5
HETATM    5  C           1     -34.352  -2.235 -11.694  0.00  0.00     0.298 C 
BRANCH   5   6
HETATM    6  C           1     -35.466  -3.125 -11.158  0.00  0.00     0.224 C 
BRANCH   6   7
HETATM    7  O           1     -34.910  -4.277 -10.585  0.00  0.00    -0.287 OA
BRANCH   7   8
HETATM    8  P           1     -34.306  -5.361 -11.617  0.00  0.00     0.406 P 
HETATM    9  O           1     -34.252  -6.688 -10.964  0.00  0.00    -0.624 OA
HETATM   10  O           1     -35.170  -5.435 -12.817  0.00  0.00    -0.624 OA
BRANCH   8  11
HETATM   11  O           1     -32.816  -4.916 -12.055  0.00  0.00    -0.300 OA
HETATM   12  H           1     -32.604  -4.188 -11.496  0.00  0.00     0.223 HD
ENDBRANCH   8  11
ENDBRANCH   7   8
ENDBRANCH   6   7
ENDBRANCH   5   6
BRANCH   5  13
HETATM   13  N           1     -33.429  -1.860 -10.572  0.00  0.00    -0.064 N 
HETATM   14  H           1     -32.961  -0.952 -10.793  0.00  0.00     0.275 HD
HETATM   15  H           1     -33.978  -1.762  -9.689  0.00  0.00     0.275 HD
HETATM   16  H           1     -32.705  -2.604 -10.453  0.00  0.00     0.275 HD
ENDBRANCH   5  13
ENDBRANCH   2   5
BRANCH   1  17
HETATM   17  C           1     -35.944   0.218 -14.170  0.00  0.00     0.194 C 
BRANCH  17  18
HETATM   18  C           1     -35.358   0.445 -15.557  0.00  0.00     0.138 C 
BRANCH  18  19
HETATM   19  C           1     -35.505  -0.812 -16.379  0.00  0.00     0.217 C 
HETATM   20  O           1     -34.726  -1.723 -16.232  0.00  0.00    -0.274 OA
HETATM   21  N           1     -36.520  -0.919 -17.290  0.00  0.00    -0.370 N 
HETATM   22  H           1     -37.172  -0.155 -17.413  0.00  0.00     0.159 HD
HETATM   23  H           1     -36.619  -1.762 -17.842  0.00  0.00     0.159 HD
ENDBRANCH  18  19
ENDBRANCH  17  18
BRANCH  17  24
HETATM   24  C           1     -37.441   0.059 -14.276  0.00  0.00     0.197 C 
HETATM   25  O           1     -38.074   0.681 -15.156  0.00  0.00    -0.646 OA
HETATM   26  O           1     -38.047  -0.694 -13.483  0.00  0.00    -0.646 OA
ENDBRANCH  17  24
ENDBRANCH   1  17
TORSDOF 10
ENDMDL
MODEL 5
REMARK VINA RESULT:      -5.9      8.943     11.159
REMARK  10 active torsions:
REMARK  status: ('A' for Active; 'I' for Inactive)
REMARK       I    between atoms: C_2  and  N_3 
REMARK    1  A    between atoms: C_2  and  C_4 
REMARK    2  A    between atoms: C_4  and  C_5 
REMARK    3  A    between atoms: C_5  and  C_6 
REMARK    4  A    between atoms: C_5  and  N_9 
REMARK       I    between atoms: N_9  and  C_10 
REMARK    5  A    between atoms: C_10  and  C_11 
REMARK    6  A    between atoms: C_11  and  C_12 
REMARK    7  A    between atoms: C_11  and  N_18 
REMARK    8  A    between atoms: C_12  and  O_13 
REMARK    9  A    between atoms: O_13  and  P_14 
REMARK   10  A    between atoms: P_14  and  O_15 
ROOT
HETATM    1  N           1     -35.436  -1.916 -11.853  0.00  0.00    -0.344 N 
HETATM    2  C           1     -34.241  -2.371 -11.363  0.00  0.00     0.251 C 
HETATM    3  O           1     -33.496  -1.616 -10.786  0.00  0.00    -0.271 OA
HETATM    4  H           1     -36.059  -2.549 -12.337  0.00  0.00     0.163 HD
ENDROOT
BRANCH   2   5
HETATM    5  C           1     -33.856  -3.819 -11.543  0.00  0.00     0.298 C 
BRANCH   5   6
HETATM    6  C           1     -33.389  -4.047 -12.976  0.00  0.00     0.224 C 
BRANCH   6   7
HETATM    7  O           1     -34.341  -3.531 -13.866  0.00  0.00    -0.287 OA
BRANCH   7   8
HETATM    8  P           1     -34.236  -4.044 -15.392  0.00  0.00     0.406 P 
HETATM    9  O           1     -34.827  -3.032 -16.296  0.00  0.00    -0.624 OA
HETATM   10  O           1     -32.813  -4.252 -15.746  0.00  0.00    -0.624 OA
BRANCH   8  11
HETATM   11  O           1     -35.037  -5.438 -15.549  0.00  0.00    -0.300 OA
HETATM   12  H           1     -35.671  -5.281 -16.228  0.00  0.00     0.223 HD
ENDBRANCH   8  11
ENDBRANCH   7   8
ENDBRANCH   6   7
ENDBRANCH   5   6
BRANCH   5  13
HETATM   13  N           1     -35.043  -4.691 -11.261  0.00  0.00    -0.064 N 
HETATM   14  H           1     -34.940  -5.126 -10.317  0.00  0.00     0.275 HD
HETATM   15  H           1     -35.913  -4.113 -11.285  0.00  0.00     0.275 HD
HETATM   16  H           1     -35.103  -5.442 -11.985  0.00  0.00     0.275 HD
ENDBRANCH   5  13
ENDBRANCH   2   5
BRANCH   1  17
HETATM   17  C           1     -35.806  -0.524 -11.680  0.00  0.00     0.194 C 
BRANCH  17  18
HETATM   18  C           1     -36.355   0.021 -12.991  0.00  0.00     0.138 C 
BRANCH  18  19
HETATM   19  C           1     -35.210   0.366 -13.912  0.00  0.00     0.217 C 
HETATM   20  O           1     -34.527   1.337 -13.688  0.00  0.00    -0.274 OA
HETATM   21  N           1     -34.946  -0.420 -15.000  0.00  0.00    -0.370 N 
HETATM   22  H           1     -35.518  -1.233 -15.188  0.00  0.00     0.159 HD
HETATM   23  H           1     -34.178  -0.188 -15.618  0.00  0.00     0.159 HD
ENDBRANCH  18  19
ENDBRANCH  17  18
BRANCH  17  24
HETATM   24  C           1     -36.863  -0.415 -10.608  0.00  0.00     0.197 C 
HETATM   25  O           1     -36.567   0.048  -9.484  0.00  0.00    -0.646 OA
HETATM   26  O           1     -38.032  -0.788 -10.843  0.00  0.00    -0.646 OA
ENDBRANCH  17  24
ENDBRANCH   1  17
TORSDOF 10
ENDMDL
MODEL 6
REMARK VINA RESULT:      -5.7     10.415     12.066
REMARK  10 active torsions:
REMARK  status: ('A' for Active; 'I' for Inactive)
REMARK       I    between atoms: C_2  and  N_3 
REMARK    1  A    between atoms: C_2  and  C_4 
REMARK    2  A    between atoms: C_4  and  C_5 
REMARK    3  A    between atoms: C_5  and  C_6 
REMARK    4  A    between atoms: C_5  and  N_9 
REMARK       I    between atoms: N_9  and  C_10 
REMARK    5  A    between atoms: C_10  and  C_11 
REMARK    6  A    between atoms: C_11  and  C_12 
REMARK    7  A    between atoms: C_11  and  N_18 
REMARK    8  A    between atoms: C_12  and  O_13 
REMARK    9  A    between atoms: O_13  and  P_14 
REMARK   10  A    between atoms: P_14  and  O_15 
ROOT
HETATM    1  N           1     -22.603  -4.779  -8.732  0.00  0.00    -0.344 N 
HETATM    2  C           1     -21.998  -4.239  -7.629  0.00  0.00     0.251 C 
HETATM    3  O           1     -21.713  -3.065  -7.608  0.00  0.00    -0.271 OA
HETATM    4  H           1     -22.841  -5.762  -8.750  0.00  0.00     0.163 HD
ENDROOT
BRANCH   2   5
HETATM    5  C           1     -21.687  -5.112  -6.438  0.00  0.00     0.298 C 
BRANCH   5   6
HETATM    6  C           1     -20.872  -6.317  -6.889  0.00  0.00     0.224 C 
BRANCH   6   7
HETATM    7  O           1     -19.990  -6.695  -5.867  0.00  0.00    -0.287 OA
BRANCH   7   8
HETATM    8  P           1     -20.420  -7.990  -5.003  0.00  0.00     0.406 P 
HETATM    9  O           1     -21.095  -8.969  -5.884  0.00  0.00    -0.624 OA
HETATM   10  O           1     -19.213  -8.609  -4.409  0.00  0.00    -0.624 OA
BRANCH   8  11
HETATM   11  O           1     -21.429  -7.541  -3.825  0.00  0.00    -0.300 OA
HETATM   12  H           1     -21.781  -6.713  -4.106  0.00  0.00     0.223 HD
ENDBRANCH   8  11
ENDBRANCH   7   8
ENDBRANCH   6   7
ENDBRANCH   5   6
BRANCH   5  13
HETATM   13  N           1     -22.968  -5.581  -5.814  0.00  0.00    -0.064 N 
HETATM   14  H           1     -23.025  -5.233  -4.830  0.00  0.00     0.275 HD
HETATM   15  H           1     -23.777  -5.211  -6.362  0.00  0.00     0.275 HD
HETATM   16  H           1     -22.994  -6.625  -5.815  0.00  0.00     0.275 HD
ENDBRANCH   5  13
ENDBRANCH   2   5
BRANCH   1  17
HETATM   17  C           1     -22.902  -3.940  -9.877  0.00  0.00     0.194 C 
BRANCH  17  18
HETATM   18  C           1     -22.168  -4.472 -11.100  0.00  0.00     0.138 C 
BRANCH  18  19
HETATM   19  C           1     -20.713  -4.079 -11.026  0.00  0.00     0.217 C 
HETATM   20  O           1     -19.913  -4.822 -10.509  0.00  0.00    -0.274 OA
HETATM   21  N           1     -20.300  -2.882 -11.545  0.00  0.00    -0.370 N 
HETATM   22  H           1     -20.970  -2.260 -11.978  0.00  0.00     0.159 HD
HETATM   23  H           1     -19.324  -2.618 -11.495  0.00  0.00     0.159 HD
ENDBRANCH  18  19
ENDBRANCH  17  18
BRANCH  17  24
HETATM   24  C           1     -24.389  -3.954 -10.136  0.00  0.00     0.197 C 
HETATM   25  O           1     -25.104  -4.842  -9.623  0.00  0.00    -0.646 OA
HETATM   26  O           1     -24.905  -3.077 -10.863  0.00  0.00    -0.646 OA
ENDBRANCH  17  24
ENDBRANCH   1  17
TORSDOF 10
ENDMDL
MODEL 7
REMARK VINA RESULT:      -5.7     12.015     13.809
REMARK  10 active torsions:
REMARK  status: ('A' for Active; 'I' for Inactive)
REMARK       I    between atoms: C_2  and  N_3 
REMARK    1  A    between atoms: C_2  and  C_4 
REMARK    2  A    between atoms: C_4  and  C_5 
REMARK    3  A    between atoms: C_5  and  C_6 
REMARK    4  A    between atoms: C_5  and  N_9 
REMARK       I    between atoms: N_9  and  C_10 
REMARK    5  A    between atoms: C_10  and  C_11 
REMARK    6  A    between atoms: C_11  and  C_12 
REMARK    7  A    between atoms: C_11  and  N_18 
REMARK    8  A    between atoms: C_12  and  O_13 
REMARK    9  A    between atoms: O_13  and  P_14 
REMARK   10  A    between atoms: P_14  and  O_15 
ROOT
HETATM    1  N           1     -21.150  -6.165  -6.195  0.00  0.00    -0.344 N 
HETATM    2  C           1     -20.710  -4.872  -6.291  0.00  0.00     0.251 C 
HETATM    3  O           1     -20.022  -4.400  -5.416  0.00  0.00    -0.271 OA
HETATM    4  H           1     -21.726  -6.558  -6.928  0.00  0.00     0.163 HD
ENDROOT
BRANCH   2   5
HETATM    5  C           1     -21.083  -4.035  -7.489  0.00  0.00     0.298 C 
BRANCH   5   6
HETATM    6  C           1     -22.154  -4.755  -8.299  0.00  0.00     0.224 C 
BRANCH   6   7
HETATM    7  O           1     -23.282  -3.930  -8.422  0.00  0.00    -0.287 OA
BRANCH   7   8
HETATM    8  P           1     -23.980  -3.896  -9.877  0.00  0.00     0.406 P 
HETATM    9  O           1     -23.198  -3.022 -10.779  0.00  0.00    -0.624 OA
HETATM   10  O           1     -24.026  -5.267 -10.434  0.00  0.00    -0.624 OA
BRANCH   8  11
HETATM   11  O           1     -25.483  -3.320  -9.740  0.00  0.00    -0.300 OA
HETATM   12  H           1     -25.551  -3.025  -8.848  0.00  0.00     0.223 HD
ENDBRANCH   8  11
ENDBRANCH   7   8
ENDBRANCH   6   7
ENDBRANCH   5   6
BRANCH   5  13
HETATM   13  N           1     -19.871  -3.820  -8.346  0.00  0.00    -0.064 N 
HETATM   14  H           1     -19.091  -3.443  -7.760  0.00  0.00     0.275 HD
HETATM   15  H           1     -19.579  -4.729  -8.770  0.00  0.00     0.275 HD
HETATM   16  H           1     -20.096  -3.137  -9.104  0.00  0.00     0.275 HD
ENDBRANCH   5  13
ENDBRANCH   2   5
BRANCH   1  17
HETATM   17  C           1     -20.791  -6.969  -5.043  0.00  0.00     0.194 C 
BRANCH  17  18
HETATM   18  C           1     -22.004  -7.126  -4.137  0.00  0.00     0.138 C 
BRANCH  18  19
HETATM   19  C           1     -21.622  -6.784  -2.718  0.00  0.00     0.217 C 
HETATM   20  O           1     -20.720  -7.377  -2.176  0.00  0.00    -0.274 OA
HETATM   21  N           1     -22.297  -5.802  -2.045  0.00  0.00    -0.370 N 
HETATM   22  H           1     -23.053  -5.305  -2.499  0.00  0.00     0.159 HD
HETATM   23  H           1     -22.040  -5.572  -1.093  0.00  0.00     0.159 HD
ENDBRANCH  18  19
ENDBRANCH  17  18
BRANCH  17  24
HETATM   24  C           1     -20.327  -8.329  -5.504  0.00  0.00     0.197 C 
HETATM   25  O           1     -19.110  -8.541  -5.701  0.00  0.00    -0.646 OA
HETATM   26  O           1     -21.159  -9.243  -5.690  0.00  0.00    -0.646 OA
ENDBRANCH  17  24
ENDBRANCH   1  17
TORSDOF 10
ENDMDL
MODEL 8
REMARK VINA RESULT:      -5.6      9.564     11.695
REMARK  10 active torsions:
REMARK  status: ('A' for Active; 'I' for Inactive)
REMARK       I    between atoms: C_2  and  N_3 
REMARK    1  A    between atoms: C_2  and  C_4 
REMARK    2  A    between atoms: C_4  and  C_5 
REMARK    3  A    between atoms: C_5  and  C_6 
REMARK    4  A    between atoms: C_5  and  N_9 
REMARK       I    between atoms: N_9  and  C_10 
REMARK    5  A    between atoms: C_10  and  C_11 
REMARK    6  A    between atoms: C_11  and  C_12 
REMARK    7  A    between atoms: C_11  and  N_18 
REMARK    8  A    between atoms: C_12  and  O_13 
REMARK    9  A    between atoms: O_13  and  P_14 
REMARK   10  A    between atoms: P_14  and  O_15 
ROOT
HETATM    1  N           1     -35.284  -1.461 -12.202  0.00  0.00    -0.344 N 
HETATM    2  C           1     -35.171  -2.656 -11.544  0.00  0.00     0.251 C 
HETATM    3  O           1     -36.084  -3.060 -10.864  0.00  0.00    -0.271 OA
HETATM    4  H           1     -34.518  -1.122 -12.772  0.00  0.00     0.163 HD
ENDROOT
BRANCH   2   5
HETATM    5  C           1     -33.906  -3.469 -11.669  0.00  0.00     0.298 C 
BRANCH   5   6
HETATM    6  C           1     -33.908  -4.213 -12.999  0.00  0.00     0.224 C 
BRANCH   6   7
HETATM    7  O           1     -34.305  -3.340 -14.022  0.00  0.00    -0.287 OA
BRANCH   7   8
HETATM    8  P           1     -34.208  -3.920 -15.525  0.00  0.00     0.406 P 
HETATM    9  O           1     -34.775  -2.935 -16.473  0.00  0.00    -0.624 OA
HETATM   10  O           1     -32.789  -4.172 -15.866  0.00  0.00    -0.624 OA
BRANCH   8  11
HETATM   11  O           1     -35.038  -5.302 -15.625  0.00  0.00    -0.300 OA
HETATM   12  H           1     -34.964  -5.567 -16.526  0.00  0.00     0.223 HD
ENDBRANCH   8  11
ENDBRANCH   7   8
ENDBRANCH   6   7
ENDBRANCH   5   6
BRANCH   5  13
HETATM   13  N           1     -33.836  -4.459 -10.544  0.00  0.00    -0.064 N 
HETATM   14  H           1     -33.595  -5.402 -10.923  0.00  0.00     0.275 HD
HETATM   15  H           1     -33.103  -4.160  -9.863  0.00  0.00     0.275 HD
HETATM   16  H           1     -34.762  -4.505 -10.063  0.00  0.00     0.275 HD
ENDBRANCH   5  13
ENDBRANCH   2   5
BRANCH   1  17
HETATM   17  C           1     -36.500  -0.679 -12.082  0.00  0.00     0.194 C 
BRANCH  17  18
HETATM   18  C           1     -36.220   0.568 -11.256  0.00  0.00     0.138 C 
BRANCH  18  19
HETATM   19  C           1     -37.020   0.516  -9.977  0.00  0.00     0.217 C 
HETATM   20  O           1     -37.987  -0.204  -9.899  0.00  0.00    -0.274 OA
HETATM   21  N           1     -36.650   1.283  -8.906  0.00  0.00    -0.370 N 
HETATM   22  H           1     -35.840   1.886  -8.972  0.00  0.00     0.159 HD
HETATM   23  H           1     -37.187   1.248  -8.048  0.00  0.00     0.159 HD
ENDBRANCH  18  19
ENDBRANCH  17  18
BRANCH  17  24
HETATM   24  C           1     -36.976  -0.277 -13.457  0.00  0.00     0.197 C 
HETATM   25  O           1     -36.272   0.474 -14.167  0.00  0.00    -0.646 OA
HETATM   26  O           1     -38.074  -0.694 -13.884  0.00  0.00    -0.646 OA
ENDBRANCH  17  24
ENDBRANCH   1  17
TORSDOF 10
ENDMDL
MODEL 9
REMARK VINA RESULT:      -5.2     12.291     13.965
REMARK  10 active torsions:
REMARK  status: ('A' for Active; 'I' for Inactive)
REMARK       I    between atoms: C_2  and  N_3 
REMARK    1  A    between atoms: C_2  and  C_4 
REMARK    2  A    between atoms: C_4  and  C_5 
REMARK    3  A    between atoms: C_5  and  C_6 
REMARK    4  A    between atoms: C_5  and  N_9 
REMARK       I    between atoms: N_9  and  C_10 
REMARK    5  A    between atoms: C_10  and  C_11 
REMARK    6  A    between atoms: C_11  and  C_12 
REMARK    7  A    between atoms: C_11  and  N_18 
REMARK    8  A    between atoms: C_12  and  O_13 
REMARK    9  A    between atoms: O_13  and  P_14 
REMARK   10  A    between atoms: P_14  and  O_15 
ROOT
HETATM    1  N           1     -21.112  -5.971  -4.896  0.00  0.00    -0.344 N 
HETATM    2  C           1     -21.180  -6.002  -6.263  0.00  0.00     0.251 C 
HETATM    3  O           1     -21.411  -7.041  -6.834  0.00  0.00    -0.271 OA
HETATM    4  H           1     -20.917  -5.101  -4.418  0.00  0.00     0.163 HD
ENDROOT
BRANCH   2   5
HETATM    5  C           1     -20.964  -4.737  -7.057  0.00  0.00     0.298 C 
BRANCH   5   6
HETATM    6  C           1     -21.741  -4.819  -8.365  0.00  0.00     0.224 C 
BRANCH   6   7
HETATM    7  O           1     -22.554  -3.684  -8.498  0.00  0.00    -0.287 OA
BRANCH   7   8
HETATM    8  P           1     -23.629  -3.721  -9.701  0.00  0.00     0.406 P 
HETATM    9  O           1     -23.051  -3.072 -10.900  0.00  0.00    -0.624 OA
HETATM   10  O           1     -23.971  -5.126 -10.016  0.00  0.00    -0.624 OA
BRANCH   8  11
HETATM   11  O           1     -24.965  -2.930  -9.255  0.00  0.00    -0.300 OA
HETATM   12  H           1     -25.011  -3.036  -8.320  0.00  0.00     0.223 HD
ENDBRANCH   8  11
ENDBRANCH   7   8
ENDBRANCH   6   7
ENDBRANCH   5   6
BRANCH   5  13
HETATM   13  N           1     -19.502  -4.577  -7.354  0.00  0.00    -0.064 N 
HETATM   14  H           1     -19.329  -4.760  -8.368  0.00  0.00     0.275 HD
HETATM   15  H           1     -19.205  -3.602  -7.121  0.00  0.00     0.275 HD
HETATM   16  H           1     -18.954  -5.255  -6.779  0.00  0.00     0.275 HD
ENDBRANCH   5  13
ENDBRANCH   2   5
BRANCH   1  17
HETATM   17  C           1     -21.320  -7.187  -4.133  0.00  0.00     0.194 C 
BRANCH  17  18
HETATM   18  C           1     -20.057  -8.037  -4.183  0.00  0.00     0.138 C 
BRANCH  18  19
HETATM   19  C           1     -20.421  -9.462  -4.518  0.00  0.00     0.217 C 
HETATM   20  O           1     -20.284 -10.332  -3.691  0.00  0.00    -0.274 OA
HETATM   21  N           1     -20.907  -9.770  -5.760  0.00  0.00    -0.370 N 
HETATM   22  H           1     -21.023  -9.042  -6.453  0.00  0.00     0.159 HD
HETATM   23  H           1     -21.152 -10.727  -5.985  0.00  0.00     0.159 HD
ENDBRANCH  18  19
ENDBRANCH  17  18
BRANCH  17  24
HETATM   24  C           1     -21.633  -6.834  -2.700  0.00  0.00     0.197 C 
HETATM   25  O           1     -22.473  -5.943  -2.445  0.00  0.00    -0.646 OA
HETATM   26  O           1     -21.054  -7.433  -1.768  0.00  0.00    -0.646 OA
ENDBRANCH  17  24
ENDBRANCH   1  17
TORSDOF 10
ENDMDL
