MODEL 1
REMARK VINA RESULT:      -6.3      0.000      0.000
REMARK  13 active torsions:
REMARK  status: ('A' for Active; 'I' for Inactive)
REMARK    1  A    between atoms: C_1  and  N_23 
REMARK    2  A    between atoms: C_1  and  C_28 
REMARK    3  A    between atoms: C_2  and  C_20 
REMARK    4  A    between atoms: C_2  and  C_3 
REMARK    5  A    between atoms: C_3  and  C_26 
REMARK    6  A    between atoms: C_3  and  N_12 
REMARK    7  A    between atoms: C_6  and  C_15 
REMARK    8  A    between atoms: C_6  and  C_22 
REMARK    9  A    between atoms: C_6  and  N_17 
REMARK       I    between atoms: N_12  and  C_15 
REMARK   10  A    between atoms: C_13  and  C_24 
REMARK   11  A    between atoms: C_13  and  N_16 
REMARK   12  A    between atoms: C_20  and  C_28 
REMARK   13  A    between atoms: C_22  and  C_24 
ROOT
HETATM    1  H           1     -27.440  -6.984 -18.624  0.00  0.00     0.163 HD
HETATM    2  N           1     -26.554  -6.647 -18.269  0.00  0.00    -0.345 N 
HETATM    3  C           1     -25.405  -6.858 -18.984  0.00  0.00     0.249 C 
HETATM    4  O           1     -24.348  -6.455 -18.560  0.00  0.00    -0.271 OA
ENDROOT
BRANCH   2   5
HETATM    5  C           1     -26.501  -5.941 -17.004  0.00  0.00     0.185 C 
BRANCH   5   6
HETATM    6  C           1     -27.746  -5.076 -16.853  0.00  0.00     0.036 C 
BRANCH   6   7
HETATM    7  C           1     -28.702  -5.357 -18.004  0.00  0.00     0.004 C 
BRANCH   7   8
HETATM    8  C           1     -30.019  -5.889 -17.452  0.00  0.00     0.027 C 
BRANCH   8   9
HETATM    9  C           1     -30.322  -7.245 -18.076  0.00  0.00     0.229 C 
BRANCH   9  10
HETATM   10  N           1     -29.456  -8.292 -17.442  0.00  0.00    -0.079 N 
HETATM   11  H           1     -28.944  -8.819 -18.186  0.00  0.00     0.274 HD
HETATM   12  H           1     -28.767  -7.834 -16.804  0.00  0.00     0.274 HD
HETATM   13  H           1     -30.052  -8.954 -16.895  0.00  0.00     0.274 HD
ENDBRANCH   9  10
ENDBRANCH   8   9
ENDBRANCH   7   8
ENDBRANCH   6   7
ENDBRANCH   5   6
BRANCH   5  14
HETATM   14  C           1     -26.440  -6.939 -15.874  0.00  0.00     0.196 C 
HETATM   15  O           1     -27.495  -7.388 -15.378  0.00  0.00    -0.646 OA
HETATM   16  O           1     -25.332  -7.317 -15.433  0.00  0.00    -0.646 OA
ENDBRANCH   5  14
ENDBRANCH   2   5
BRANCH   3  17
HETATM   17  C           1     -25.461  -7.592 -20.300  0.00  0.00     0.274 C 
BRANCH  17  18
HETATM   18  C           1     -24.827  -6.735 -21.389  0.00  0.00     0.044 C 
BRANCH  18  19
HETATM   19  C           1     -24.092  -7.631 -22.377  0.00  0.00     0.030 C 
BRANCH  19  20
HETATM   20  C           1     -23.034  -8.441 -21.641  0.00  0.00     0.230 C 
BRANCH  20  21
HETATM   21  N           1     -22.394  -9.411 -22.589  0.00  0.00    -0.079 N 
HETATM   22  H           1     -23.087 -10.148 -22.852  0.00  0.00     0.274 HD
HETATM   23  H           1     -21.568  -9.855 -22.128  0.00  0.00     0.274 HD
HETATM   24  H           1     -22.083  -8.905 -23.449  0.00  0.00     0.274 HD
ENDBRANCH  20  21
ENDBRANCH  19  20
ENDBRANCH  18  19
ENDBRANCH  17  18
BRANCH  17  25
HETATM   25  N           1     -26.890  -7.873 -20.657  0.00  0.00    -0.067 N 
HETATM   26  H           1     -27.479  -7.042 -20.423  0.00  0.00     0.275 HD
HETATM   27  H           1     -26.961  -8.072 -21.680  0.00  0.00     0.275 HD
HETATM   28  H           1     -27.228  -8.702 -20.117  0.00  0.00     0.275 HD
ENDBRANCH  17  25
ENDBRANCH   3  17
TORSDOF 13
ENDMDL
MODEL 2
REMARK VINA RESULT:      -6.1     10.687     12.463
REMARK  13 active torsions:
REMARK  status: ('A' for Active; 'I' for Inactive)
REMARK    1  A    between atoms: C_1  and  N_23 
REMARK    2  A    between atoms: C_1  and  C_28 
REMARK    3  A    between atoms: C_2  and  C_20 
REMARK    4  A    between atoms: C_2  and  C_3 
REMARK    5  A    between atoms: C_3  and  C_26 
REMARK    6  A    between atoms: C_3  and  N_12 
REMARK    7  A    between atoms: C_6  and  C_15 
REMARK    8  A    between atoms: C_6  and  C_22 
REMARK    9  A    between atoms: C_6  and  N_17 
REMARK       I    between atoms: N_12  and  C_15 
REMARK   10  A    between atoms: C_13  and  C_24 
REMARK   11  A    between atoms: C_13  and  N_16 
REMARK   12  A    between atoms: C_20  and  C_28 
REMARK   13  A    between atoms: C_22  and  C_24 
ROOT
HETATM    1  H           1     -35.781  -3.070 -12.626  0.00  0.00     0.163 HD
HETATM    2  N           1     -35.125  -2.516 -12.091  0.00  0.00    -0.345 N 
HETATM    3  C           1     -33.980  -3.090 -11.607  0.00  0.00     0.249 C 
HETATM    4  O           1     -33.197  -2.430 -10.968  0.00  0.00    -0.271 OA
ENDROOT
BRANCH   2   5
HETATM    5  C           1     -35.397  -1.115 -11.834  0.00  0.00     0.185 C 
BRANCH   5   6
HETATM    6  C           1     -35.949  -0.467 -13.097  0.00  0.00     0.036 C 
BRANCH   6   7
HETATM    7  C           1     -34.964   0.580 -13.602  0.00  0.00     0.004 C 
BRANCH   7   8
HETATM    8  C           1     -35.110   0.726 -15.112  0.00  0.00     0.027 C 
BRANCH   8   9
HETATM    9  C           1     -36.430   0.111 -15.558  0.00  0.00     0.229 C 
BRANCH   9  10
HETATM   10  N           1     -36.265  -0.494 -16.920  0.00  0.00    -0.079 N 
HETATM   11  H           1     -36.028   0.255 -17.609  0.00  0.00     0.274 HD
HETATM   12  H           1     -35.495  -1.201 -16.896  0.00  0.00     0.274 HD
HETATM   13  H           1     -37.156  -0.960 -17.205  0.00  0.00     0.274 HD
ENDBRANCH   9  10
ENDBRANCH   8   9
ENDBRANCH   7   8
ENDBRANCH   6   7
ENDBRANCH   5   6
BRANCH   5  14
HETATM   14  C           1     -36.411  -0.996 -10.723  0.00  0.00     0.196 C 
HETATM   15  O           1     -37.615  -1.246 -10.943  0.00  0.00    -0.646 OA
HETATM   16  O           1     -36.045  -0.646  -9.579  0.00  0.00    -0.646 OA
ENDBRANCH   5  14
ENDBRANCH   2   5
BRANCH   3  17
HETATM   17  C           1     -33.697  -4.548 -11.874  0.00  0.00     0.274 C 
BRANCH  17  18
HETATM   18  C           1     -34.020  -5.365 -10.629  0.00  0.00     0.044 C 
BRANCH  18  19
HETATM   19  C           1     -34.696  -6.667 -11.037  0.00  0.00     0.030 C 
BRANCH  19  20
HETATM   20  C           1     -34.593  -7.672  -9.898  0.00  0.00     0.230 C 
BRANCH  20  21
HETATM   21  N           1     -33.607  -8.743 -10.262  0.00  0.00    -0.079 N 
HETATM   22  H           1     -33.264  -8.583 -11.236  0.00  0.00     0.274 HD
HETATM   23  H           1     -34.072  -9.677 -10.205  0.00  0.00     0.274 HD
HETATM   24  H           1     -32.800  -8.714  -9.600  0.00  0.00     0.274 HD
ENDBRANCH  20  21
ENDBRANCH  19  20
ENDBRANCH  18  19
ENDBRANCH  17  18
BRANCH  17  25
HETATM   25  N           1     -32.248  -4.721 -12.222  0.00  0.00    -0.067 N 
HETATM   26  H           1     -31.905  -5.634 -11.846  0.00  0.00     0.275 HD
HETATM   27  H           1     -32.136  -4.707 -13.260  0.00  0.00     0.275 HD
HETATM   28  H           1     -31.694  -3.941 -11.801  0.00  0.00     0.275 HD
ENDBRANCH  17  25
ENDBRANCH   3  17
TORSDOF 13
ENDMDL
MODEL 3
REMARK VINA RESULT:      -5.4     12.069     14.160
REMARK  13 active torsions:
REMARK  status: ('A' for Active; 'I' for Inactive)
REMARK    1  A    between atoms: C_1  and  N_23 
REMARK    2  A    between atoms: C_1  and  C_28 
REMARK    3  A    between atoms: C_2  and  C_20 
REMARK    4  A    between atoms: C_2  and  C_3 
REMARK    5  A    between atoms: C_3  and  C_26 
REMARK    6  A    between atoms: C_3  and  N_12 
REMARK    7  A    between atoms: C_6  and  C_15 
REMARK    8  A    between atoms: C_6  and  C_22 
REMARK    9  A    between atoms: C_6  and  N_17 
REMARK       I    between atoms: N_12  and  C_15 
REMARK   10  A    between atoms: C_13  and  C_24 
REMARK   11  A    between atoms: C_13  and  N_16 
REMARK   12  A    between atoms: C_20  and  C_28 
REMARK   13  A    between atoms: C_22  and  C_24 
ROOT
HETATM    1  H           1     -21.784  -7.048  -6.957  0.00  0.00     0.163 HD
HETATM    2  N           1     -21.298  -6.376  -6.377  0.00  0.00    -0.345 N 
HETATM    3  C           1     -21.073  -5.108  -6.841  0.00  0.00     0.249 C 
HETATM    4  O           1     -20.492  -4.306  -6.149  0.00  0.00    -0.271 OA
ENDROOT
BRANCH   2   5
HETATM    5  C           1     -20.840  -6.757  -5.055  0.00  0.00     0.185 C 
BRANCH   5   6
HETATM    6  C           1     -21.975  -6.581  -4.055  0.00  0.00     0.036 C 
BRANCH   6   7
HETATM    7  C           1     -21.421  -6.031  -2.748  0.00  0.00     0.004 C 
BRANCH   7   8
HETATM    8  C           1     -22.272  -6.527  -1.586  0.00  0.00     0.027 C 
BRANCH   8   9
HETATM    9  C           1     -21.841  -7.938  -1.206  0.00  0.00     0.229 C 
BRANCH   9  10
HETATM   10  N           1     -20.361  -8.080  -1.407  0.00  0.00    -0.079 N 
HETATM   11  H           1     -20.148  -9.037  -1.769  0.00  0.00     0.274 HD
HETATM   12  H           1     -20.034  -7.366  -2.098  0.00  0.00     0.274 HD
HETATM   13  H           1     -19.870  -7.935  -0.497  0.00  0.00     0.274 HD
ENDBRANCH   9  10
ENDBRANCH   8   9
ENDBRANCH   7   8
ENDBRANCH   6   7
ENDBRANCH   5   6
BRANCH   5  14
HETATM   14  C           1     -20.401  -8.200  -5.072  0.00  0.00     0.196 C 
HETATM   15  O           1     -20.981  -9.023  -5.813  0.00  0.00    -0.646 OA
HETATM   16  O           1     -19.456  -8.574  -4.343  0.00  0.00    -0.646 OA
ENDBRANCH   5  14
ENDBRANCH   2   5
BRANCH   3  17
HETATM   17  C           1     -21.549  -4.712  -8.217  0.00  0.00     0.274 C 
BRANCH  17  18
HETATM   18  C           1     -20.417  -4.024  -8.969  0.00  0.00     0.044 C 
BRANCH  18  19
HETATM   19  C           1     -20.304  -4.614 -10.368  0.00  0.00     0.030 C 
BRANCH  19  20
HETATM   20  C           1     -21.083  -3.749 -11.349  0.00  0.00     0.230 C 
BRANCH  20  21
HETATM   21  N           1     -22.111  -4.588 -12.050  0.00  0.00    -0.079 N 
HETATM   22  H           1     -21.715  -4.942 -12.951  0.00  0.00     0.274 HD
HETATM   23  H           1     -22.958  -4.009 -12.245  0.00  0.00     0.274 HD
HETATM   24  H           1     -22.373  -5.397 -11.445  0.00  0.00     0.274 HD
ENDBRANCH  20  21
ENDBRANCH  19  20
ENDBRANCH  18  19
ENDBRANCH  17  18
BRANCH  17  25
HETATM   25  N           1     -22.710  -3.771  -8.092  0.00  0.00    -0.067 N 
HETATM   26  H           1     -22.669  -3.062  -8.859  0.00  0.00     0.275 HD
HETATM   27  H           1     -23.603  -4.309  -8.162  0.00  0.00     0.275 HD
HETATM   28  H           1     -22.667  -3.286  -7.167  0.00  0.00     0.275 HD
ENDBRANCH  17  25
ENDBRANCH   3  17
TORSDOF 13
ENDMDL
MODEL 4
REMARK VINA RESULT:      -5.3     12.312     14.665
REMARK  13 active torsions:
REMARK  status: ('A' for Active; 'I' for Inactive)
REMARK    1  A    between atoms: C_1  and  N_23 
REMARK    2  A    between atoms: C_1  and  C_28 
REMARK    3  A    between atoms: C_2  and  C_20 
REMARK    4  A    between atoms: C_2  and  C_3 
REMARK    5  A    between atoms: C_3  and  C_26 
REMARK    6  A    between atoms: C_3  and  N_12 
REMARK    7  A    between atoms: C_6  and  C_15 
REMARK    8  A    between atoms: C_6  and  C_22 
REMARK    9  A    between atoms: C_6  and  N_17 
REMARK       I    between atoms: N_12  and  C_15 
REMARK   10  A    between atoms: C_13  and  C_24 
REMARK   11  A    between atoms: C_13  and  N_16 
REMARK   12  A    between atoms: C_20  and  C_28 
REMARK   13  A    between atoms: C_22  and  C_24 
ROOT
HETATM    1  H           1     -22.327  -6.079  -6.263  0.00  0.00     0.163 HD
HETATM    2  N           1     -21.469  -5.824  -5.792  0.00  0.00    -0.345 N 
HETATM    3  C           1     -20.688  -4.817  -6.289  0.00  0.00     0.249 C 
HETATM    4  O           1     -19.663  -4.512  -5.727  0.00  0.00    -0.271 OA
ENDROOT
BRANCH   2   5
HETATM    5  C           1     -21.066  -6.527  -4.589  0.00  0.00     0.185 C 
BRANCH   5   6
HETATM    6  C           1     -22.240  -6.587  -3.620  0.00  0.00     0.036 C 
BRANCH   6   7
HETATM    7  C           1     -21.796  -6.082  -2.253  0.00  0.00     0.004 C 
BRANCH   7   8
HETATM    8  C           1     -22.183  -7.099  -1.187  0.00  0.00     0.027 C 
BRANCH   8   9
HETATM    9  C           1     -21.013  -8.042  -0.936  0.00  0.00     0.229 C 
BRANCH   9  10
HETATM   10  N           1     -21.280  -9.360  -1.601  0.00  0.00    -0.079 N 
HETATM   11  H           1     -20.391  -9.735  -2.001  0.00  0.00     0.274 HD
HETATM   12  H           1     -21.657 -10.035  -0.897  0.00  0.00     0.274 HD
HETATM   13  H           1     -21.979  -9.228  -2.367  0.00  0.00     0.274 HD
ENDBRANCH   9  10
ENDBRANCH   8   9
ENDBRANCH   7   8
ENDBRANCH   6   7
ENDBRANCH   5   6
BRANCH   5  14
HETATM   14  C           1     -20.635  -7.928  -4.946  0.00  0.00     0.196 C 
HETATM   15  O           1     -19.826  -8.540  -4.216  0.00  0.00    -0.646 OA
HETATM   16  O           1     -21.087  -8.478  -5.975  0.00  0.00    -0.646 OA
ENDBRANCH   5  14
ENDBRANCH   2   5
BRANCH   3  17
HETATM   17  C           1     -21.107  -4.086  -7.541  0.00  0.00     0.274 C 
BRANCH  17  18
HETATM   18  C           1     -22.591  -4.320  -7.795  0.00  0.00     0.044 C 
BRANCH  18  19
HETATM   19  C           1     -22.984  -3.696  -9.127  0.00  0.00     0.030 C 
BRANCH  19  20
HETATM   20  C           1     -24.175  -4.445  -9.708  0.00  0.00     0.230 C 
BRANCH  20  21
HETATM   21  N           1     -25.383  -3.555  -9.693  0.00  0.00    -0.079 N 
HETATM   22  H           1     -26.085  -3.912 -10.380  0.00  0.00     0.274 HD
HETATM   23  H           1     -25.102  -2.583  -9.953  0.00  0.00     0.274 HD
HETATM   24  H           1     -25.803  -3.553  -8.736  0.00  0.00     0.274 HD
ENDBRANCH  20  21
ENDBRANCH  19  20
ENDBRANCH  18  19
ENDBRANCH  17  18
BRANCH  17  25
HETATM   25  N           1     -20.315  -4.597  -8.708  0.00  0.00    -0.067 N 
HETATM   26  H           1     -19.333  -4.791  -8.406  0.00  0.00     0.275 HD
HETATM   27  H           1     -20.750  -5.478  -9.064  0.00  0.00     0.275 HD
HETATM   28  H           1     -20.311  -3.879  -9.467  0.00  0.00     0.275 HD
ENDBRANCH  17  25
ENDBRANCH   3  17
TORSDOF 13
ENDMDL
MODEL 5
REMARK VINA RESULT:      -5.2     11.122     13.279
REMARK  13 active torsions:
REMARK  status: ('A' for Active; 'I' for Inactive)
REMARK    1  A    between atoms: C_1  and  N_23 
REMARK    2  A    between atoms: C_1  and  C_28 
REMARK    3  A    between atoms: C_2  and  C_20 
REMARK    4  A    between atoms: C_2  and  C_3 
REMARK    5  A    between atoms: C_3  and  C_26 
REMARK    6  A    between atoms: C_3  and  N_12 
REMARK    7  A    between atoms: C_6  and  C_15 
REMARK    8  A    between atoms: C_6  and  C_22 
REMARK    9  A    between atoms: C_6  and  N_17 
REMARK       I    between atoms: N_12  and  C_15 
REMARK   10  A    between atoms: C_13  and  C_24 
REMARK   11  A    between atoms: C_13  and  N_16 
REMARK   12  A    between atoms: C_20  and  C_28 
REMARK   13  A    between atoms: C_22  and  C_24 
ROOT
HETATM    1  H           1     -22.647  -6.166  -7.692  0.00  0.00     0.163 HD
HETATM    2  N           1     -22.187  -5.309  -7.411  0.00  0.00    -0.345 N 
HETATM    3  C           1     -22.439  -4.144  -8.085  0.00  0.00     0.249 C 
HETATM    4  O           1     -21.890  -3.122  -7.750  0.00  0.00    -0.271 OA
ENDROOT
BRANCH   2   5
HETATM    5  C           1     -21.262  -5.315  -6.295  0.00  0.00     0.185 C 
BRANCH   5   6
HETATM    6  C           1     -21.716  -6.342  -5.266  0.00  0.00     0.036 C 
BRANCH   6   7
HETATM    7  C           1     -21.061  -6.040  -3.924  0.00  0.00     0.004 C 
BRANCH   7   8
HETATM    8  C           1     -20.994  -7.316  -3.094  0.00  0.00     0.027 C 
BRANCH   8   9
HETATM    9  C           1     -21.856  -7.158  -1.848  0.00  0.00     0.229 C 
BRANCH   9  10
HETATM   10  N           1     -22.345  -5.743  -1.754  0.00  0.00    -0.079 N 
HETATM   11  H           1     -22.765  -5.458  -2.668  0.00  0.00     0.274 HD
HETATM   12  H           1     -23.069  -5.674  -1.003  0.00  0.00     0.274 HD
HETATM   13  H           1     -21.545  -5.111  -1.527  0.00  0.00     0.274 HD
ENDBRANCH   9  10
ENDBRANCH   8   9
ENDBRANCH   7   8
ENDBRANCH   6   7
ENDBRANCH   5   6
BRANCH   5  14
HETATM   14  C           1     -19.882  -5.672  -6.789  0.00  0.00     0.196 C 
HETATM   15  O           1     -19.059  -4.770  -7.055  0.00  0.00    -0.646 OA
HETATM   16  O           1     -19.561  -6.872  -6.933  0.00  0.00    -0.646 OA
ENDBRANCH   5  14
ENDBRANCH   2   5
BRANCH   3  17
HETATM   17  C           1     -23.402  -4.138  -9.247  0.00  0.00     0.274 C 
BRANCH  17  18
HETATM   18  C           1     -22.732  -3.504 -10.460  0.00  0.00     0.044 C 
BRANCH  18  19
HETATM   19  C           1     -21.890  -4.549 -11.180  0.00  0.00     0.030 C 
BRANCH  19  20
HETATM   20  C           1     -20.426  -4.131 -11.151  0.00  0.00     0.230 C 
BRANCH  20  21
HETATM   21  N           1     -20.319  -2.662 -11.438  0.00  0.00    -0.079 N 
HETATM   22  H           1     -20.931  -2.422 -12.251  0.00  0.00     0.274 HD
HETATM   23  H           1     -19.328  -2.423 -11.666  0.00  0.00     0.274 HD
HETATM   24  H           1     -20.626  -2.119 -10.601  0.00  0.00     0.274 HD
ENDBRANCH  20  21
ENDBRANCH  19  20
ENDBRANCH  18  19
ENDBRANCH  17  18
BRANCH  17  25
HETATM   25  N           1     -24.622  -3.347  -8.881  0.00  0.00    -0.067 N 
HETATM   26  H           1     -24.572  -2.402  -9.327  0.00  0.00     0.275 HD
HETATM   27  H           1     -25.475  -3.847  -9.219  0.00  0.00     0.275 HD
HETATM   28  H           1     -24.669  -3.240  -7.843  0.00  0.00     0.275 HD
ENDBRANCH  17  25
ENDBRANCH   3  17
TORSDOF 13
ENDMDL
MODEL 6
REMARK VINA RESULT:      -5.1      1.880      6.113
REMARK  13 active torsions:
REMARK  status: ('A' for Active; 'I' for Inactive)
REMARK    1  A    between atoms: C_1  and  N_23 
REMARK    2  A    between atoms: C_1  and  C_28 
REMARK    3  A    between atoms: C_2  and  C_20 
REMARK    4  A    between atoms: C_2  and  C_3 
REMARK    5  A    between atoms: C_3  and  C_26 
REMARK    6  A    between atoms: C_3  and  N_12 
REMARK    7  A    between atoms: C_6  and  C_15 
REMARK    8  A    between atoms: C_6  and  C_22 
REMARK    9  A    between atoms: C_6  and  N_17 
REMARK       I    between atoms: N_12  and  C_15 
REMARK   10  A    between atoms: C_13  and  C_24 
REMARK   11  A    between atoms: C_13  and  N_16 
REMARK   12  A    between atoms: C_20  and  C_28 
REMARK   13  A    between atoms: C_22  and  C_24 
ROOT
HETATM    1  H           1     -26.560  -4.772 -17.755  0.00  0.00     0.163 HD
HETATM    2  N           1     -26.875  -5.689 -17.466  0.00  0.00    -0.345 N 
HETATM    3  C           1     -28.135  -5.851 -16.956  0.00  0.00     0.249 C 
HETATM    4  O           1     -28.512  -6.946 -16.612  0.00  0.00    -0.271 OA
ENDROOT
BRANCH   2   5
HETATM    5  C           1     -25.993  -6.833 -17.593  0.00  0.00     0.185 C 
BRANCH   5   6
HETATM    6  C           1     -25.164  -6.695 -18.863  0.00  0.00     0.036 C 
BRANCH   6   7
HETATM    7  C           1     -26.084  -6.723 -20.076  0.00  0.00     0.004 C 
BRANCH   7   8
HETATM    8  C           1     -25.747  -7.932 -20.941  0.00  0.00     0.027 C 
BRANCH   8   9
HETATM    9  C           1     -24.400  -7.714 -21.617  0.00  0.00     0.229 C 
BRANCH   9  10
HETATM   10  N           1     -23.413  -8.719 -21.101  0.00  0.00    -0.079 N 
HETATM   11  H           1     -23.768  -9.684 -21.289  0.00  0.00     0.274 HD
HETATM   12  H           1     -22.496  -8.586 -21.584  0.00  0.00     0.274 HD
HETATM   13  H           1     -23.287  -8.589 -20.072  0.00  0.00     0.274 HD
ENDBRANCH   9  10
ENDBRANCH   8   9
ENDBRANCH   7   8
ENDBRANCH   6   7
ENDBRANCH   5   6
BRANCH   5  14
HETATM   14  C           1     -25.075  -6.894 -16.397  0.00  0.00     0.196 C 
HETATM   15  O           1     -24.941  -5.894 -15.659  0.00  0.00    -0.646 OA
HETATM   16  O           1     -24.449  -7.946 -16.143  0.00  0.00    -0.646 OA
ENDBRANCH   5  14
ENDBRANCH   2   5
BRANCH   3  17
HETATM   17  C           1     -29.054  -4.662 -16.824  0.00  0.00     0.274 C 
BRANCH  17  18
HETATM   18  C           1     -30.078  -4.682 -17.952  0.00  0.00     0.044 C 
BRANCH  18  19
HETATM   19  C           1     -31.258  -3.792 -17.583  0.00  0.00     0.030 C 
BRANCH  19  20
HETATM   20  C           1     -32.211  -4.559 -16.678  0.00  0.00     0.230 C 
BRANCH  20  21
HETATM   21  N           1     -32.162  -6.019 -17.021  0.00  0.00    -0.079 N 
HETATM   22  H           1     -31.514  -6.509 -16.363  0.00  0.00     0.274 HD
HETATM   23  H           1     -31.818  -6.135 -18.001  0.00  0.00     0.274 HD
HETATM   24  H           1     -33.118  -6.430 -16.936  0.00  0.00     0.274 HD
ENDBRANCH  20  21
ENDBRANCH  19  20
ENDBRANCH  18  19
ENDBRANCH  17  18
BRANCH  17  25
HETATM   25  N           1     -28.250  -3.398 -16.904  0.00  0.00    -0.067 N 
HETATM   26  H           1     -27.620  -3.436 -17.736  0.00  0.00     0.275 HD
HETATM   27  H           1     -28.896  -2.581 -16.992  0.00  0.00     0.275 HD
HETATM   28  H           1     -27.676  -3.295 -16.036  0.00  0.00     0.275 HD
ENDBRANCH  17  25
ENDBRANCH   3  17
TORSDOF 13
ENDMDL
MODEL 7
REMARK VINA RESULT:      -5.0     10.852     12.968
REMARK  13 active torsions:
REMARK  status: ('A' for Active; 'I' for Inactive)
REMARK    1  A    between atoms: C_1  and  N_23 
REMARK    2  A    between atoms: C_1  and  C_28 
REMARK    3  A    between atoms: C_2  and  C_20 
REMARK    4  A    between atoms: C_2  and  C_3 
REMARK    5  A    between atoms: C_3  and  C_26 
REMARK    6  A    between atoms: C_3  and  N_12 
REMARK    7  A    between atoms: C_6  and  C_15 
REMARK    8  A    between atoms: C_6  and  C_22 
REMARK    9  A    between atoms: C_6  and  N_17 
REMARK       I    between atoms: N_12  and  C_15 
REMARK   10  A    between atoms: C_13  and  C_24 
REMARK   11  A    between atoms: C_13  and  N_16 
REMARK   12  A    between atoms: C_20  and  C_28 
REMARK   13  A    between atoms: C_22  and  C_24 
ROOT
HETATM    1  H           1     -36.196  -2.237 -13.753  0.00  0.00     0.163 HD
HETATM    2  N           1     -35.656  -1.626 -13.154  0.00  0.00    -0.345 N 
HETATM    3  C           1     -34.647  -2.140 -12.383  0.00  0.00     0.249 C 
HETATM    4  O           1     -34.002  -1.411 -11.669  0.00  0.00    -0.271 OA
ENDROOT
BRANCH   2   5
HETATM    5  C           1     -35.948  -0.207 -13.112  0.00  0.00     0.185 C 
BRANCH   5   6
HETATM    6  C           1     -35.837   0.292 -11.678  0.00  0.00     0.036 C 
BRANCH   6   7
HETATM    7  C           1     -37.157   0.054 -10.955  0.00  0.00     0.004 C 
BRANCH   7   8
HETATM    8  C           1     -36.900  -0.735  -9.677  0.00  0.00     0.027 C 
BRANCH   8   9
HETATM    9  C           1     -37.289   0.110  -8.471  0.00  0.00     0.229 C 
BRANCH   9  10
HETATM   10  N           1     -36.364   1.286  -8.364  0.00  0.00    -0.079 N 
HETATM   11  H           1     -36.263   1.561  -7.361  0.00  0.00     0.274 HD
HETATM   12  H           1     -35.427   1.027  -8.749  0.00  0.00     0.274 HD
HETATM   13  H           1     -36.755   2.088  -8.907  0.00  0.00     0.274 HD
ENDBRANCH   9  10
ENDBRANCH   8   9
ENDBRANCH   7   8
ENDBRANCH   6   7
ENDBRANCH   5   6
BRANCH   5  14
HETATM   14  C           1     -34.961   0.535 -13.981  0.00  0.00     0.196 C 
HETATM   15  O           1     -34.677   0.099 -15.117  0.00  0.00    -0.646 OA
HETATM   16  O           1     -34.428   1.586 -13.564  0.00  0.00    -0.646 OA
ENDBRANCH   5  14
ENDBRANCH   2   5
BRANCH   3  17
HETATM   17  C           1     -34.343  -3.618 -12.427  0.00  0.00     0.274 C 
BRANCH  17  18
HETATM   18  C           1     -33.290  -3.951 -11.378  0.00  0.00     0.044 C 
BRANCH  18  19
HETATM   19  C           1     -33.202  -5.462 -11.209  0.00  0.00     0.030 C 
BRANCH  19  20
HETATM   20  C           1     -34.491  -5.980 -10.587  0.00  0.00     0.230 C 
BRANCH  20  21
HETATM   21  N           1     -34.576  -7.466 -10.772  0.00  0.00    -0.079 N 
HETATM   22  H           1     -34.466  -7.938  -9.846  0.00  0.00     0.274 HD
HETATM   23  H           1     -33.816  -7.780 -11.416  0.00  0.00     0.274 HD
HETATM   24  H           1     -35.504  -7.715 -11.181  0.00  0.00     0.274 HD
ENDBRANCH  20  21
ENDBRANCH  19  20
ENDBRANCH  18  19
ENDBRANCH  17  18
BRANCH  17  25
HETATM   25  N           1     -33.826  -3.982 -13.786  0.00  0.00    -0.067 N 
HETATM   26  H           1     -34.438  -3.556 -14.519  0.00  0.00     0.275 HD
HETATM   27  H           1     -32.851  -3.622 -13.895  0.00  0.00     0.275 HD
HETATM   28  H           1     -33.827  -5.022 -13.892  0.00  0.00     0.275 HD
ENDBRANCH  17  25
ENDBRANCH   3  17
TORSDOF 13
ENDMDL
MODEL 8
REMARK VINA RESULT:      -4.9     12.332     14.759
REMARK  13 active torsions:
REMARK  status: ('A' for Active; 'I' for Inactive)
REMARK    1  A    between atoms: C_1  and  N_23 
REMARK    2  A    between atoms: C_1  and  C_28 
REMARK    3  A    between atoms: C_2  and  C_20 
REMARK    4  A    between atoms: C_2  and  C_3 
REMARK    5  A    between atoms: C_3  and  C_26 
REMARK    6  A    between atoms: C_3  and  N_12 
REMARK    7  A    between atoms: C_6  and  C_15 
REMARK    8  A    between atoms: C_6  and  C_22 
REMARK    9  A    between atoms: C_6  and  N_17 
REMARK       I    between atoms: N_12  and  C_15 
REMARK   10  A    between atoms: C_13  and  C_24 
REMARK   11  A    between atoms: C_13  and  N_16 
REMARK   12  A    between atoms: C_20  and  C_28 
REMARK   13  A    between atoms: C_22  and  C_24 
ROOT
HETATM    1  H           1     -19.926  -6.953  -4.808  0.00  0.00     0.163 HD
HETATM    2  N           1     -20.918  -6.755  -4.802  0.00  0.00    -0.345 N 
HETATM    3  C           1     -21.433  -5.812  -5.651  0.00  0.00     0.249 C 
HETATM    4  O           1     -22.618  -5.577  -5.644  0.00  0.00    -0.271 OA
ENDROOT
BRANCH   2   5
HETATM    5  C           1     -21.795  -7.470  -3.895  0.00  0.00     0.185 C 
BRANCH   5   6
HETATM    6  C           1     -21.428  -8.948  -3.896  0.00  0.00     0.036 C 
BRANCH   6   7
HETATM    7  C           1     -20.532  -9.249  -5.090  0.00  0.00     0.004 C 
BRANCH   7   8
HETATM    8  C           1     -20.711 -10.704  -5.505  0.00  0.00     0.027 C 
BRANCH   8   9
HETATM    9  C           1     -19.345 -11.356  -5.675  0.00  0.00     0.229 C 
BRANCH   9  10
HETATM   10  N           1     -18.928 -11.277  -7.114  0.00  0.00    -0.079 N 
HETATM   11  H           1     -19.466 -10.519  -7.592  0.00  0.00     0.274 HD
HETATM   12  H           1     -17.906 -11.066  -7.170  0.00  0.00     0.274 HD
HETATM   13  H           1     -19.122 -12.190  -7.584  0.00  0.00     0.274 HD
ENDBRANCH   9  10
ENDBRANCH   8   9
ENDBRANCH   7   8
ENDBRANCH   6   7
ENDBRANCH   5   6
BRANCH   5  14
HETATM   14  C           1     -21.639  -6.912  -2.502  0.00  0.00     0.196 C 
HETATM   15  O           1     -20.864  -7.463  -1.690  0.00  0.00    -0.646 OA
HETATM   16  O           1     -22.285  -5.898  -2.159  0.00  0.00    -0.646 OA
ENDBRANCH   5  14
ENDBRANCH   2   5
BRANCH   3  17
HETATM   17  C           1     -20.521  -5.068  -6.594  0.00  0.00     0.274 C 
BRANCH  17  18
HETATM   18  C           1     -21.284  -3.917  -7.238  0.00  0.00     0.044 C 
BRANCH  18  19
HETATM   19  C           1     -21.392  -4.154  -8.738  0.00  0.00     0.030 C 
BRANCH  19  20
HETATM   20  C           1     -22.848  -4.046  -9.167  0.00  0.00     0.230 C 
BRANCH  20  21
HETATM   21  N           1     -23.729  -4.045  -7.953  0.00  0.00    -0.079 N 
HETATM   22  H           1     -24.027  -5.024  -7.739  0.00  0.00     0.274 HD
HETATM   23  H           1     -24.573  -3.456  -8.135  0.00  0.00     0.274 HD
HETATM   24  H           1     -23.202  -3.657  -7.139  0.00  0.00     0.274 HD
ENDBRANCH  20  21
ENDBRANCH  19  20
ENDBRANCH  18  19
ENDBRANCH  17  18
BRANCH  17  25
HETATM   25  N           1     -20.036  -6.003  -7.662  0.00  0.00    -0.067 N 
HETATM   26  H           1     -20.543  -6.914  -7.586  0.00  0.00     0.275 HD
HETATM   27  H           1     -20.216  -5.581  -8.601  0.00  0.00     0.275 HD
HETATM   28  H           1     -19.010  -6.164  -7.544  0.00  0.00     0.275 HD
ENDBRANCH  17  25
ENDBRANCH   3  17
TORSDOF 13
ENDMDL
MODEL 9
REMARK VINA RESULT:      -4.8     13.111     15.547
REMARK  13 active torsions:
REMARK  status: ('A' for Active; 'I' for Inactive)
REMARK    1  A    between atoms: C_1  and  N_23 
REMARK    2  A    between atoms: C_1  and  C_28 
REMARK    3  A    between atoms: C_2  and  C_20 
REMARK    4  A    between atoms: C_2  and  C_3 
REMARK    5  A    between atoms: C_3  and  C_26 
REMARK    6  A    between atoms: C_3  and  N_12 
REMARK    7  A    between atoms: C_6  and  C_15 
REMARK    8  A    between atoms: C_6  and  C_22 
REMARK    9  A    between atoms: C_6  and  N_17 
REMARK       I    between atoms: N_12  and  C_15 
REMARK   10  A    between atoms: C_13  and  C_24 
REMARK   11  A    between atoms: C_13  and  N_16 
REMARK   12  A    between atoms: C_20  and  C_28 
REMARK   13  A    between atoms: C_22  and  C_24 
ROOT
HETATM    1  H           1     -20.199  -5.897  -3.530  0.00  0.00     0.163 HD
HETATM    2  N           1     -20.778  -6.669  -3.834  0.00  0.00    -0.345 N 
HETATM    3  C           1     -21.112  -6.795  -5.156  0.00  0.00     0.249 C 
HETATM    4  O           1     -21.804  -7.716  -5.519  0.00  0.00    -0.271 OA
ENDROOT
BRANCH   2   5
HETATM    5  C           1     -21.256  -7.640  -2.870  0.00  0.00     0.185 C 
BRANCH   5   6
HETATM    6  C           1     -20.067  -8.332  -2.215  0.00  0.00     0.036 C 
BRANCH   6   7
HETATM    7  C           1     -19.695  -9.571  -3.018  0.00  0.00     0.004 C 
BRANCH   7   8
HETATM    8  C           1     -18.369  -9.335  -3.730  0.00  0.00     0.027 C 
BRANCH   8   9
HETATM    9  C           1     -18.431  -9.927  -5.132  0.00  0.00     0.229 C 
BRANCH   9  10
HETATM   10  N           1     -19.855  -9.946  -5.604  0.00  0.00    -0.079 N 
HETATM   11  H           1     -20.428  -9.304  -5.010  0.00  0.00     0.274 HD
HETATM   12  H           1     -19.896  -9.628  -6.599  0.00  0.00     0.274 HD
HETATM   13  H           1     -20.234 -10.917  -5.532  0.00  0.00     0.274 HD
ENDBRANCH   9  10
ENDBRANCH   8   9
ENDBRANCH   7   8
ENDBRANCH   6   7
ENDBRANCH   5   6
BRANCH   5  14
HETATM   14  C           1     -22.076  -6.939  -1.814  0.00  0.00     0.196 C 
HETATM   15  O           1     -22.324  -7.512  -0.731  0.00  0.00    -0.646 OA
HETATM   16  O           1     -22.507  -5.784  -2.024  0.00  0.00    -0.646 OA
ENDBRANCH   5  14
ENDBRANCH   2   5
BRANCH   3  17
HETATM   17  C           1     -20.614  -5.784  -6.159  0.00  0.00     0.274 C 
BRANCH  17  18
HETATM   18  C           1     -21.793  -4.992  -6.711  0.00  0.00     0.044 C 
BRANCH  18  19
HETATM   19  C           1     -21.307  -4.054  -7.807  0.00  0.00     0.030 C 
BRANCH  19  20
HETATM   20  C           1     -22.463  -3.720  -8.740  0.00  0.00     0.230 C 
BRANCH  20  21
HETATM   21  N           1     -23.764  -3.992  -8.043  0.00  0.00    -0.079 N 
HETATM   22  H           1     -24.172  -3.090  -7.705  0.00  0.00     0.274 HD
HETATM   23  H           1     -23.597  -4.626  -7.230  0.00  0.00     0.274 HD
HETATM   24  H           1     -24.428  -4.445  -8.709  0.00  0.00     0.274 HD
ENDBRANCH  20  21
ENDBRANCH  19  20
ENDBRANCH  18  19
ENDBRANCH  17  18
BRANCH  17  25
HETATM   25  N           1     -19.921  -6.494  -7.283  0.00  0.00    -0.067 N 
HETATM   26  H           1     -20.633  -6.903  -7.930  0.00  0.00     0.275 HD
HETATM   27  H           1     -19.324  -5.815  -7.807  0.00  0.00     0.275 HD
HETATM   28  H           1     -19.323  -7.258  -6.896  0.00  0.00     0.275 HD
ENDBRANCH  17  25
ENDBRANCH   3  17
TORSDOF 13
ENDMDL
