MODEL 1
REMARK VINA RESULT:      -8.1      0.000      0.000
REMARK  8 active torsions:
REMARK  status: ('A' for Active; 'I' for Inactive)
REMARK    1  A    between atoms: N_1  and  C_19 
REMARK    2  A    between atoms: C_6  and  C_17 
REMARK    3  A    between atoms: N_11  and  C_23 
REMARK       I    between atoms: N_11  and  C_22 
REMARK    4  A    between atoms: C_17  and  C_23 
REMARK    5  A    between atoms: C_18  and  C_23 
REMARK    6  A    between atoms: C_19  and  C_22 
REMARK    7  A    between atoms: C_19  and  C_21 
REMARK    8  A    between atoms: C_21  and  C_25 
ROOT
HETATM    1  C           1     -21.224  -5.870  -6.794  0.00  0.00     0.260 C 
ENDROOT
BRANCH   1   2
HETATM    2  N           1     -19.880  -6.180  -7.382  0.00  0.00    -0.067 N 
HETATM    3  H           1     -19.637  -5.458  -8.098  0.00  0.00     0.275 HD
HETATM    4  H           1     -19.159  -6.173  -6.625  0.00  0.00     0.275 HD
HETATM    5  H           1     -19.905  -7.122  -7.833  0.00  0.00     0.275 HD
ENDBRANCH   1   2
BRANCH   1   6
HETATM    6  C           1     -21.796  -4.645  -7.466  0.00  0.00     0.130 C 
HETATM    7  N           1     -22.590  -4.780  -8.573  0.00  0.00    -0.359 N 
HETATM    8  H           1     -22.795  -5.701  -8.939  0.00  0.00     0.162 HD
HETATM    9  O           1     -21.552  -3.546  -7.028  0.00  0.00    -0.397 OA
BRANCH   7  10
HETATM   10  C           1     -23.140  -3.604  -9.219  0.00  0.00     0.184 C 
BRANCH  10  11
HETATM   11  C           1     -22.153  -3.088 -10.258  0.00  0.00     0.040 C 
BRANCH  11  12
HETATM   12  C           1     -21.556  -4.264 -11.021  0.00  0.00    -0.018 C 
HETATM   13  C           1     -20.038  -4.229 -10.904  0.00  0.00     0.289 C 
HETATM   14  C           1     -21.954  -4.170 -12.489  0.00  0.00     0.009 C 
ENDBRANCH  11  12
ENDBRANCH  10  11
BRANCH  10  15
HETATM   15  C           1     -24.439  -3.963  -9.896  0.00  0.00     0.196 C 
HETATM   16  O           1     -24.907  -5.117  -9.779  0.00  0.00    -0.646 OA
HETATM   17  O           1     -25.048  -3.108 -10.574  0.00  0.00    -0.646 OA
ENDBRANCH  10  15
ENDBRANCH   7  10
ENDBRANCH   1   6
BRANCH   1  18
HETATM   18  C           1     -21.076  -5.607  -5.301  0.00  0.00     0.082 C 
BRANCH  18  19
HETATM   19  C           1     -21.132  -6.905  -4.558  0.00  0.00    -0.028 A 
HETATM   20  C           1     -21.539  -7.080  -3.206  0.00  0.00    -0.002 A 
HETATM   21  C           1     -21.441  -8.442  -2.921  0.00  0.00     0.042 A 
HETATM   22  C           1     -21.983  -6.206  -2.195  0.00  0.00     0.014 A 
HETATM   23  C           1     -21.766  -8.978  -1.668  0.00  0.00     0.030 A 
HETATM   24  N           1     -20.990  -9.064  -4.064  0.00  0.00    -0.365 N 
HETATM   25  C           1     -22.204  -8.090  -0.681  0.00  0.00     0.002 A 
HETATM   26  C           1     -22.312  -6.725  -0.937  0.00  0.00     0.001 A 
HETATM   27  H           1     -20.817 -10.094  -4.158  0.00  0.00     0.165 HD
HETATM   28  C           1     -20.800  -8.143  -5.060  0.00  0.00     0.096 A 
ENDBRANCH  18  19
ENDBRANCH   1  18
TORSDOF 8
ENDMDL
MODEL 2
REMARK VINA RESULT:      -8.0      3.378      7.955
REMARK  8 active torsions:
REMARK  status: ('A' for Active; 'I' for Inactive)
REMARK    1  A    between atoms: N_1  and  C_19 
REMARK    2  A    between atoms: C_6  and  C_17 
REMARK    3  A    between atoms: N_11  and  C_23 
REMARK       I    between atoms: N_11  and  C_22 
REMARK    4  A    between atoms: C_17  and  C_23 
REMARK    5  A    between atoms: C_18  and  C_23 
REMARK    6  A    between atoms: C_19  and  C_22 
REMARK    7  A    between atoms: C_19  and  C_21 
REMARK    8  A    between atoms: C_21  and  C_25 
ROOT
HETATM    1  C           1     -21.276  -6.148  -5.452  0.00  0.00     0.260 C 
ENDROOT
BRANCH   1   2
HETATM    2  N           1     -21.440  -5.848  -3.992  0.00  0.00    -0.067 N 
HETATM    3  H           1     -20.724  -5.146  -3.698  0.00  0.00     0.275 HD
HETATM    4  H           1     -22.396  -5.460  -3.822  0.00  0.00     0.275 HD
HETATM    5  H           1     -21.315  -6.725  -3.439  0.00  0.00     0.275 HD
ENDBRANCH   1   2
BRANCH   1   6
HETATM    6  C           1     -20.236  -7.227  -5.629  0.00  0.00     0.130 C 
HETATM    7  N           1     -20.098  -8.207  -4.683  0.00  0.00    -0.359 N 
HETATM    8  H           1     -20.695  -8.208  -3.865  0.00  0.00     0.162 HD
HETATM    9  O           1     -19.525  -7.227  -6.605  0.00  0.00    -0.397 OA
BRANCH   7  10
HETATM   10  C           1     -19.099  -9.244  -4.852  0.00  0.00     0.184 C 
BRANCH  10  11
HETATM   11  C           1     -18.305  -9.399  -3.561  0.00  0.00     0.040 C 
BRANCH  11  12
HETATM   12  C           1     -16.979 -10.088  -3.861  0.00  0.00    -0.018 C 
HETATM   13  C           1     -15.946  -9.679  -2.819  0.00  0.00     0.289 C 
HETATM   14  C           1     -16.495  -9.676  -5.245  0.00  0.00     0.009 C 
ENDBRANCH  11  12
ENDBRANCH  10  11
BRANCH  10  15
HETATM   15  C           1     -19.780 -10.549  -5.182  0.00  0.00     0.196 C 
HETATM   16  O           1     -19.798 -10.963  -6.362  0.00  0.00    -0.646 OA
HETATM   17  O           1     -20.326 -11.216  -4.277  0.00  0.00    -0.646 OA
ENDBRANCH  10  15
ENDBRANCH   7  10
ENDBRANCH   1   6
BRANCH   1  18
HETATM   18  C           1     -20.829  -4.887  -6.182  0.00  0.00     0.082 C 
BRANCH  18  19
HETATM   19  C           1     -21.803  -4.572  -7.274  0.00  0.00    -0.028 A 
HETATM   20  C           1     -21.492  -4.411  -8.653  0.00  0.00    -0.002 A 
HETATM   21  C           1     -22.688  -4.127  -9.313  0.00  0.00     0.042 A 
HETATM   22  C           1     -20.303  -4.480  -9.404  0.00  0.00     0.014 A 
HETATM   23  C           1     -22.755  -3.908 -10.695  0.00  0.00     0.030 A 
HETATM   24  N           1     -23.683  -4.118  -8.362  0.00  0.00    -0.365 N 
HETATM   25  C           1     -21.562  -3.981 -11.419  0.00  0.00     0.002 A 
HETATM   26  C           1     -20.352  -4.263 -10.786  0.00  0.00     0.001 A 
HETATM   27  H           1     -24.698  -3.933  -8.556  0.00  0.00     0.165 HD
HETATM   28  C           1     -23.159  -4.386  -7.125  0.00  0.00     0.096 A 
ENDBRANCH  18  19
ENDBRANCH   1  18
TORSDOF 8
ENDMDL
MODEL 3
REMARK VINA RESULT:      -7.7      2.958      8.040
REMARK  8 active torsions:
REMARK  status: ('A' for Active; 'I' for Inactive)
REMARK    1  A    between atoms: N_1  and  C_19 
REMARK    2  A    between atoms: C_6  and  C_17 
REMARK    3  A    between atoms: N_11  and  C_23 
REMARK       I    between atoms: N_11  and  C_22 
REMARK    4  A    between atoms: C_17  and  C_23 
REMARK    5  A    between atoms: C_18  and  C_23 
REMARK    6  A    between atoms: C_19  and  C_22 
REMARK    7  A    between atoms: C_19  and  C_21 
REMARK    8  A    between atoms: C_21  and  C_25 
ROOT
HETATM    1  C           1     -21.724  -6.494  -5.367  0.00  0.00     0.260 C 
ENDROOT
BRANCH   1   2
HETATM    2  N           1     -21.956  -5.993  -3.973  0.00  0.00    -0.067 N 
HETATM    3  H           1     -21.086  -6.118  -3.408  0.00  0.00     0.275 HD
HETATM    4  H           1     -22.205  -4.979  -4.005  0.00  0.00     0.275 HD
HETATM    5  H           1     -22.736  -6.531  -3.534  0.00  0.00     0.275 HD
ENDBRANCH   1   2
BRANCH   1   6
HETATM    6  C           1     -20.918  -7.769  -5.315  0.00  0.00     0.130 C 
HETATM    7  N           1     -21.389  -8.848  -4.618  0.00  0.00    -0.359 N 
HETATM    8  H           1     -22.279  -8.792  -4.139  0.00  0.00     0.162 HD
HETATM    9  O           1     -19.857  -7.837  -5.889  0.00  0.00    -0.397 OA
BRANCH   7  10
HETATM   10  C           1     -20.616 -10.073  -4.568  0.00  0.00     0.184 C 
BRANCH  10  11
HETATM   11  C           1     -20.648 -10.637  -3.153  0.00  0.00     0.040 C 
BRANCH  11  12
HETATM   12  C           1     -21.620  -9.826  -2.305  0.00  0.00    -0.018 C 
HETATM   13  C           1     -20.879  -9.218  -1.122  0.00  0.00     0.289 C 
HETATM   14  C           1     -22.730 -10.737  -1.795  0.00  0.00     0.009 C 
ENDBRANCH  11  12
ENDBRANCH  10  11
BRANCH  10  15
HETATM   15  C           1     -21.206 -11.081  -5.522  0.00  0.00     0.196 C 
HETATM   16  O           1     -22.161 -11.802  -5.159  0.00  0.00    -0.646 OA
HETATM   17  O           1     -20.741 -11.196  -6.677  0.00  0.00    -0.646 OA
ENDBRANCH  10  15
ENDBRANCH   7  10
ENDBRANCH   1   6
BRANCH   1  18
HETATM   18  C           1     -20.961  -5.443  -6.164  0.00  0.00     0.082 C 
BRANCH  18  19
HETATM   19  C           1     -21.857  -4.866  -7.215  0.00  0.00    -0.028 A 
HETATM   20  C           1     -21.491  -4.572  -8.558  0.00  0.00    -0.002 A 
HETATM   21  C           1     -22.623  -4.052  -9.187  0.00  0.00     0.042 A 
HETATM   22  C           1     -20.301  -4.699  -9.300  0.00  0.00     0.014 A 
HETATM   23  C           1     -22.624  -3.651 -10.529  0.00  0.00     0.030 A 
HETATM   24  N           1     -23.634  -4.035  -8.253  0.00  0.00    -0.365 N 
HETATM   25  C           1     -21.431  -3.787 -11.245  0.00  0.00     0.002 A 
HETATM   26  C           1     -20.285  -4.303 -10.642  0.00  0.00     0.001 A 
HETATM   27  H           1     -24.611  -3.696  -8.431  0.00  0.00     0.165 HD
HETATM   28  C           1     -23.181  -4.525  -7.056  0.00  0.00     0.096 A 
ENDBRANCH  18  19
ENDBRANCH   1  18
TORSDOF 8
ENDMDL
MODEL 4
REMARK VINA RESULT:      -7.6      2.961      8.133
REMARK  8 active torsions:
REMARK  status: ('A' for Active; 'I' for Inactive)
REMARK    1  A    between atoms: N_1  and  C_19 
REMARK    2  A    between atoms: C_6  and  C_17 
REMARK    3  A    between atoms: N_11  and  C_23 
REMARK       I    between atoms: N_11  and  C_22 
REMARK    4  A    between atoms: C_17  and  C_23 
REMARK    5  A    between atoms: C_18  and  C_23 
REMARK    6  A    between atoms: C_19  and  C_22 
REMARK    7  A    between atoms: C_19  and  C_21 
REMARK    8  A    between atoms: C_21  and  C_25 
ROOT
HETATM    1  C           1     -21.697  -6.393  -5.874  0.00  0.00     0.260 C 
ENDROOT
BRANCH   1   2
HETATM    2  N           1     -22.947  -6.086  -5.106  0.00  0.00    -0.067 N 
HETATM    3  H           1     -22.993  -5.060  -4.909  0.00  0.00     0.275 HD
HETATM    4  H           1     -23.780  -6.368  -5.671  0.00  0.00     0.275 HD
HETATM    5  H           1     -22.942  -6.613  -4.204  0.00  0.00     0.275 HD
ENDBRANCH   1   2
BRANCH   1   6
HETATM    6  C           1     -20.845  -7.355  -5.083  0.00  0.00     0.130 C 
HETATM    7  N           1     -21.249  -7.765  -3.841  0.00  0.00    -0.359 N 
HETATM    8  H           1     -22.120  -7.424  -3.455  0.00  0.00     0.162 HD
HETATM    9  O           1     -19.806  -7.763  -5.545  0.00  0.00    -0.397 OA
BRANCH   7  10
HETATM   10  C           1     -20.431  -8.689  -3.081  0.00  0.00     0.184 C 
BRANCH  10  11
HETATM   11  C           1     -20.455  -8.296  -1.609  0.00  0.00     0.040 C 
BRANCH  11  12
HETATM   12  C           1     -21.896  -8.269  -1.114  0.00  0.00    -0.018 C 
HETATM   13  C           1     -22.312  -6.831  -0.837  0.00  0.00     0.289 C 
HETATM   14  C           1     -22.007  -9.086   0.168  0.00  0.00     0.009 C 
ENDBRANCH  11  12
ENDBRANCH  10  11
BRANCH  10  15
HETATM   15  C           1     -20.974 -10.088  -3.236  0.00  0.00     0.196 C 
HETATM   16  O           1     -22.045 -10.278  -3.854  0.00  0.00    -0.646 OA
HETATM   17  O           1     -20.355 -11.057  -2.746  0.00  0.00    -0.646 OA
ENDBRANCH  10  15
ENDBRANCH   7  10
ENDBRANCH   1   6
BRANCH   1  18
HETATM   18  C           1     -20.920  -5.105  -6.114  0.00  0.00     0.082 C 
BRANCH  18  19
HETATM   19  C           1     -20.863  -4.822  -7.583  0.00  0.00    -0.028 A 
HETATM   20  C           1     -21.951  -4.404  -8.399  0.00  0.00    -0.002 A 
HETATM   21  C           1     -21.460  -4.258  -9.696  0.00  0.00     0.042 A 
HETATM   22  C           1     -23.313  -4.137  -8.155  0.00  0.00     0.014 A 
HETATM   23  C           1     -22.265  -3.855 -10.768  0.00  0.00     0.030 A 
HETATM   24  N           1     -20.121  -4.577  -9.660  0.00  0.00    -0.365 N 
HETATM   25  C           1     -23.613  -3.594 -10.502  0.00  0.00     0.002 A 
HETATM   26  C           1     -24.131  -3.732  -9.216  0.00  0.00     0.001 A 
HETATM   27  H           1     -19.477  -4.560 -10.488  0.00  0.00     0.165 HD
HETATM   28  C           1     -19.750  -4.920  -8.387  0.00  0.00     0.096 A 
ENDBRANCH  18  19
ENDBRANCH   1  18
TORSDOF 8
ENDMDL
MODEL 5
REMARK VINA RESULT:      -7.6      2.393      8.015
REMARK  8 active torsions:
REMARK  status: ('A' for Active; 'I' for Inactive)
REMARK    1  A    between atoms: N_1  and  C_19 
REMARK    2  A    between atoms: C_6  and  C_17 
REMARK    3  A    between atoms: N_11  and  C_23 
REMARK       I    between atoms: N_11  and  C_22 
REMARK    4  A    between atoms: C_17  and  C_23 
REMARK    5  A    between atoms: C_18  and  C_23 
REMARK    6  A    between atoms: C_19  and  C_22 
REMARK    7  A    between atoms: C_19  and  C_21 
REMARK    8  A    between atoms: C_21  and  C_25 
ROOT
HETATM    1  C           1     -20.391  -6.160  -5.841  0.00  0.00     0.260 C 
ENDROOT
BRANCH   1   2
HETATM    2  N           1     -20.648  -6.809  -7.168  0.00  0.00    -0.067 N 
HETATM    3  H           1     -20.582  -6.092  -7.926  0.00  0.00     0.275 HD
HETATM    4  H           1     -19.935  -7.555  -7.334  0.00  0.00     0.275 HD
HETATM    5  H           1     -21.603  -7.231  -7.171  0.00  0.00     0.275 HD
ENDBRANCH   1   2
BRANCH   1   6
HETATM    6  C           1     -21.242  -6.822  -4.785  0.00  0.00     0.130 C 
HETATM    7  N           1     -20.735  -7.035  -3.532  0.00  0.00    -0.359 N 
HETATM    8  H           1     -19.789  -6.747  -3.313  0.00  0.00     0.162 HD
HETATM    9  O           1     -22.371  -7.164  -5.046  0.00  0.00    -0.397 OA
BRANCH   7  10
HETATM   10  C           1     -21.552  -7.671  -2.517  0.00  0.00     0.184 C 
BRANCH  10  11
HETATM   11  C           1     -20.681  -8.585  -1.664  0.00  0.00     0.040 C 
BRANCH  11  12
HETATM   12  C           1     -21.237 -10.003  -1.709  0.00  0.00    -0.018 C 
HETATM   13  C           1     -22.062 -10.186  -2.976  0.00  0.00     0.289 C 
HETATM   14  C           1     -22.119 -10.242  -0.490  0.00  0.00     0.009 C 
ENDBRANCH  11  12
ENDBRANCH  10  11
BRANCH  10  15
HETATM   15  C           1     -22.180  -6.615  -1.642  0.00  0.00     0.196 C 
HETATM   16  O           1     -22.097  -5.409  -1.960  0.00  0.00    -0.646 OA
HETATM   17  O           1     -22.782  -6.946  -0.598  0.00  0.00    -0.646 OA
ENDBRANCH  10  15
ENDBRANCH   7  10
ENDBRANCH   1   6
BRANCH   1  18
HETATM   18  C           1     -20.743  -4.680  -5.924  0.00  0.00     0.082 C 
BRANCH  18  19
HETATM   19  C           1     -21.736  -4.464  -7.022  0.00  0.00    -0.028 A 
HETATM   20  C           1     -21.433  -4.211  -8.389  0.00  0.00    -0.002 A 
HETATM   21  C           1     -22.647  -4.073  -9.061  0.00  0.00     0.042 A 
HETATM   22  C           1     -20.235  -4.086  -9.120  0.00  0.00     0.014 A 
HETATM   23  C           1     -22.726  -3.814 -10.435  0.00  0.00     0.030 A 
HETATM   24  N           1     -23.647  -4.237  -8.128  0.00  0.00    -0.365 N 
HETATM   25  C           1     -21.524  -3.694 -11.139  0.00  0.00     0.002 A 
HETATM   26  C           1     -20.296  -3.828 -10.494  0.00  0.00     0.001 A 
HETATM   27  H           1     -24.675  -4.188  -8.334  0.00  0.00     0.165 HD
HETATM   28  C           1     -23.107  -4.474  -6.892  0.00  0.00     0.096 A 
ENDBRANCH  18  19
ENDBRANCH   1  18
TORSDOF 8
ENDMDL
MODEL 6
REMARK VINA RESULT:      -7.4      4.079      8.532
REMARK  8 active torsions:
REMARK  status: ('A' for Active; 'I' for Inactive)
REMARK    1  A    between atoms: N_1  and  C_19 
REMARK    2  A    between atoms: C_6  and  C_17 
REMARK    3  A    between atoms: N_11  and  C_23 
REMARK       I    between atoms: N_11  and  C_22 
REMARK    4  A    between atoms: C_17  and  C_23 
REMARK    5  A    between atoms: C_18  and  C_23 
REMARK    6  A    between atoms: C_19  and  C_22 
REMARK    7  A    between atoms: C_19  and  C_21 
REMARK    8  A    between atoms: C_21  and  C_25 
ROOT
HETATM    1  C           1     -19.701  -8.480  -3.685  0.00  0.00     0.260 C 
ENDROOT
BRANCH   1   2
HETATM    2  N           1     -18.436  -9.283  -3.628  0.00  0.00    -0.067 N 
HETATM    3  H           1     -18.402  -9.939  -4.441  0.00  0.00     0.275 HD
HETATM    4  H           1     -17.613  -8.640  -3.666  0.00  0.00     0.275 HD
HETATM    5  H           1     -18.410  -9.831  -2.738  0.00  0.00     0.275 HD
ENDBRANCH   1   2
BRANCH   1   6
HETATM    6  C           1     -20.682  -9.015  -2.672  0.00  0.00     0.130 C 
HETATM    7  N           1     -20.806  -8.407  -1.452  0.00  0.00    -0.359 N 
HETATM    8  H           1     -20.240  -7.598  -1.230  0.00  0.00     0.162 HD
HETATM    9  O           1     -21.358  -9.980  -2.937  0.00  0.00    -0.397 OA
BRANCH   7  10
HETATM   10  C           1     -21.749  -8.921  -0.477  0.00  0.00     0.184 C 
BRANCH  10  11
HETATM   11  C           1     -20.995  -9.392   0.760  0.00  0.00     0.040 C 
BRANCH  11  12
HETATM   12  C           1     -21.041 -10.913   0.835  0.00  0.00    -0.018 C 
HETATM   13  C           1     -19.818 -11.494   0.137  0.00  0.00     0.289 C 
HETATM   14  C           1     -22.304 -11.416   0.148  0.00  0.00     0.009 C 
ENDBRANCH  11  12
ENDBRANCH  10  11
BRANCH  10  15
HETATM   15  C           1     -22.717  -7.831  -0.090  0.00  0.00     0.196 C 
HETATM   16  O           1     -23.458  -7.977   0.906  0.00  0.00    -0.646 OA
HETATM   17  O           1     -22.779  -6.781  -0.766  0.00  0.00    -0.646 OA
ENDBRANCH  10  15
ENDBRANCH   7  10
ENDBRANCH   1   6
BRANCH   1  18
HETATM   18  C           1     -20.304  -8.583  -5.081  0.00  0.00     0.082 C 
BRANCH  18  19
HETATM   19  C           1     -21.097  -7.348  -5.374  0.00  0.00    -0.028 A 
HETATM   20  C           1     -20.690  -6.268  -6.205  0.00  0.00    -0.002 A 
HETATM   21  C           1     -21.725  -5.333  -6.200  0.00  0.00     0.042 A 
HETATM   22  C           1     -19.534  -5.997  -6.963  0.00  0.00     0.014 A 
HETATM   23  C           1     -21.662  -4.133  -6.920  0.00  0.00     0.030 A 
HETATM   24  N           1     -22.720  -5.835  -5.393  0.00  0.00    -0.365 N 
HETATM   25  C           1     -20.506  -3.886  -7.665  0.00  0.00     0.002 A 
HETATM   26  C           1     -19.456  -4.802  -7.689  0.00  0.00     0.001 A 
HETATM   27  H           1     -23.631  -5.354  -5.193  0.00  0.00     0.165 HD
HETATM   28  C           1     -22.351  -7.053  -4.888  0.00  0.00     0.096 A 
ENDBRANCH  18  19
ENDBRANCH   1  18
TORSDOF 8
ENDMDL
MODEL 7
REMARK VINA RESULT:      -7.2      3.400      8.569
REMARK  8 active torsions:
REMARK  status: ('A' for Active; 'I' for Inactive)
REMARK    1  A    between atoms: N_1  and  C_19 
REMARK    2  A    between atoms: C_6  and  C_17 
REMARK    3  A    between atoms: N_11  and  C_23 
REMARK       I    between atoms: N_11  and  C_22 
REMARK    4  A    between atoms: C_17  and  C_23 
REMARK    5  A    between atoms: C_18  and  C_23 
REMARK    6  A    between atoms: C_19  and  C_22 
REMARK    7  A    between atoms: C_19  and  C_21 
REMARK    8  A    between atoms: C_21  and  C_25 
ROOT
HETATM    1  C           1     -20.523  -7.201  -4.972  0.00  0.00     0.260 C 
ENDROOT
BRANCH   1   2
HETATM    2  N           1     -21.356  -7.970  -5.953  0.00  0.00    -0.067 N 
HETATM    3  H           1     -22.025  -8.585  -5.437  0.00  0.00     0.275 HD
HETATM    4  H           1     -21.891  -7.303  -6.554  0.00  0.00     0.275 HD
HETATM    5  H           1     -20.734  -8.559  -6.553  0.00  0.00     0.275 HD
ENDBRANCH   1   2
BRANCH   1   6
HETATM    6  C           1     -20.766  -7.733  -3.581  0.00  0.00     0.130 C 
HETATM    7  N           1     -20.703  -9.079  -3.342  0.00  0.00    -0.359 N 
HETATM    8  H           1     -20.491  -9.717  -4.098  0.00  0.00     0.162 HD
HETATM    9  O           1     -21.018  -6.970  -2.678  0.00  0.00    -0.397 OA
BRANCH   7  10
HETATM   10  C           1     -20.937  -9.590  -2.006  0.00  0.00     0.184 C 
BRANCH  10  11
HETATM   11  C           1     -22.425  -9.853  -1.816  0.00  0.00     0.040 C 
BRANCH  11  12
HETATM   12  C           1     -22.740  -9.942  -0.328  0.00  0.00    -0.018 C 
HETATM   13  C           1     -23.937 -10.859  -0.114  0.00  0.00     0.289 C 
HETATM   14  C           1     -23.065  -8.552   0.205  0.00  0.00     0.009 C 
ENDBRANCH  11  12
ENDBRANCH  10  11
BRANCH  10  15
HETATM   15  C           1     -20.172 -10.877  -1.818  0.00  0.00     0.196 C 
HETATM   16  O           1     -20.674 -11.962  -2.186  0.00  0.00    -0.646 OA
HETATM   17  O           1     -19.037 -10.859  -1.295  0.00  0.00    -0.646 OA
ENDBRANCH  10  15
ENDBRANCH   7  10
ENDBRANCH   1   6
BRANCH   1  18
HETATM   18  C           1     -20.906  -5.727  -5.027  0.00  0.00     0.082 C 
BRANCH  18  19
HETATM   19  C           1     -20.583  -5.178  -6.382  0.00  0.00    -0.028 A 
HETATM   20  C           1     -21.523  -4.718  -7.346  0.00  0.00    -0.002 A 
HETATM   21  C           1     -20.796  -4.294  -8.458  0.00  0.00     0.042 A 
HETATM   22  C           1     -22.928  -4.622  -7.377  0.00  0.00     0.014 A 
HETATM   23  C           1     -21.406  -3.776  -9.607  0.00  0.00     0.030 A 
HETATM   24  N           1     -19.464  -4.493  -8.171  0.00  0.00    -0.365 N 
HETATM   25  C           1     -22.801  -3.690  -9.615  0.00  0.00     0.002 A 
HETATM   26  C           1     -23.554  -4.106  -8.517  0.00  0.00     0.001 A 
HETATM   27  H           1     -18.670  -4.268  -8.819  0.00  0.00     0.165 HD
HETATM   28  C           1     -19.324  -5.028  -6.918  0.00  0.00     0.096 A 
ENDBRANCH  18  19
ENDBRANCH   1  18
TORSDOF 8
ENDMDL
MODEL 8
REMARK VINA RESULT:      -7.1      3.105      4.777
REMARK  8 active torsions:
REMARK  status: ('A' for Active; 'I' for Inactive)
REMARK    1  A    between atoms: N_1  and  C_19 
REMARK    2  A    between atoms: C_6  and  C_17 
REMARK    3  A    between atoms: N_11  and  C_23 
REMARK       I    between atoms: N_11  and  C_22 
REMARK    4  A    between atoms: C_17  and  C_23 
REMARK    5  A    between atoms: C_18  and  C_23 
REMARK    6  A    between atoms: C_19  and  C_22 
REMARK    7  A    between atoms: C_19  and  C_21 
REMARK    8  A    between atoms: C_21  and  C_25 
ROOT
HETATM    1  C           1     -20.297 -10.523  -5.141  0.00  0.00     0.260 C 
ENDROOT
BRANCH   1   2
HETATM    2  N           1     -19.328 -11.007  -6.178  0.00  0.00    -0.067 N 
HETATM    3  H           1     -19.807 -11.683  -6.815  0.00  0.00     0.275 HD
HETATM    4  H           1     -18.980 -10.194  -6.735  0.00  0.00     0.275 HD
HETATM    5  H           1     -18.523 -11.480  -5.710  0.00  0.00     0.275 HD
ENDBRANCH   1   2
BRANCH   1   6
HETATM    6  C           1     -20.161  -9.028  -4.986  0.00  0.00     0.130 C 
HETATM    7  N           1     -21.033  -8.191  -5.629  0.00  0.00    -0.359 N 
HETATM    8  H           1     -21.769  -8.575  -6.207  0.00  0.00     0.162 HD
HETATM    9  O           1     -19.283  -8.570  -4.294  0.00  0.00    -0.397 OA
BRANCH   7  10
HETATM   10  C           1     -20.903  -6.755  -5.480  0.00  0.00     0.184 C 
BRANCH  10  11
HETATM   11  C           1     -20.996  -6.092  -6.848  0.00  0.00     0.040 C 
BRANCH  11  12
HETATM   12  C           1     -20.488  -4.658  -6.754  0.00  0.00    -0.018 C 
HETATM   13  C           1     -21.489  -3.720  -7.414  0.00  0.00     0.289 C 
HETATM   14  C           1     -19.145  -4.548  -7.463  0.00  0.00     0.009 C 
ENDBRANCH  11  12
ENDBRANCH  10  11
BRANCH  10  15
HETATM   15  C           1     -22.011  -6.238  -4.596  0.00  0.00     0.196 C 
HETATM   16  O           1     -21.784  -5.985  -3.392  0.00  0.00    -0.646 OA
HETATM   17  O           1     -23.156  -6.064  -5.066  0.00  0.00    -0.646 OA
ENDBRANCH  10  15
ENDBRANCH   7  10
ENDBRANCH   1   6
BRANCH   1  18
HETATM   18  C           1     -19.997 -11.202  -3.811  0.00  0.00     0.082 C 
BRANCH  18  19
HETATM   19  C           1     -21.216 -11.162  -2.944  0.00  0.00    -0.028 A 
HETATM   20  C           1     -21.461 -10.245  -1.883  0.00  0.00    -0.002 A 
HETATM   21  C           1     -22.708 -10.563  -1.346  0.00  0.00     0.042 A 
HETATM   22  C           1     -20.736  -9.173  -1.328  0.00  0.00     0.014 A 
HETATM   23  C           1     -23.272  -9.858  -0.275  0.00  0.00     0.030 A 
HETATM   24  N           1     -23.196 -11.634  -2.060  0.00  0.00    -0.365 N 
HETATM   25  C           1     -22.534  -8.797   0.259  0.00  0.00     0.002 A 
HETATM   26  C           1     -21.285  -8.457  -0.258  0.00  0.00     0.001 A 
HETATM   27  H           1     -24.120 -12.100  -1.888  0.00  0.00     0.165 HD
HETATM   28  C           1     -22.301 -12.004  -3.029  0.00  0.00     0.096 A 
ENDBRANCH  18  19
ENDBRANCH   1  18
TORSDOF 8
ENDMDL
MODEL 9
REMARK VINA RESULT:      -7.1     12.908     15.121
REMARK  8 active torsions:
REMARK  status: ('A' for Active; 'I' for Inactive)
REMARK    1  A    between atoms: N_1  and  C_19 
REMARK    2  A    between atoms: C_6  and  C_17 
REMARK    3  A    between atoms: N_11  and  C_23 
REMARK       I    between atoms: N_11  and  C_22 
REMARK    4  A    between atoms: C_17  and  C_23 
REMARK    5  A    between atoms: C_18  and  C_23 
REMARK    6  A    between atoms: C_19  and  C_22 
REMARK    7  A    between atoms: C_19  and  C_21 
REMARK    8  A    between atoms: C_21  and  C_25 
ROOT
HETATM    1  C           1     -33.642  -4.413 -16.108  0.00  0.00     0.260 C 
ENDROOT
BRANCH   1   2
HETATM    2  N           1     -34.117  -3.277 -16.964  0.00  0.00    -0.067 N 
HETATM    3  H           1     -34.942  -2.822 -16.513  0.00  0.00     0.275 HD
HETATM    4  H           1     -33.349  -2.577 -17.070  0.00  0.00     0.275 HD
HETATM    5  H           1     -34.390  -3.640 -17.905  0.00  0.00     0.275 HD
ENDBRANCH   1   2
BRANCH   1   6
HETATM    6  C           1     -34.265  -4.303 -14.737  0.00  0.00     0.130 C 
HETATM    7  N           1     -33.981  -3.227 -13.941  0.00  0.00    -0.359 N 
HETATM    8  H           1     -33.355  -2.504 -14.271  0.00  0.00     0.162 HD
HETATM    9  O           1     -35.013  -5.166 -14.344  0.00  0.00    -0.397 OA
BRANCH   7  10
HETATM   10  C           1     -34.579  -3.121 -12.624  0.00  0.00     0.184 C 
BRANCH  10  11
HETATM   11  C           1     -33.524  -3.405 -11.563  0.00  0.00     0.040 C 
BRANCH  11  12
HETATM   12  C           1     -34.013  -4.519 -10.645  0.00  0.00    -0.018 C 
HETATM   13  C           1     -33.422  -5.848 -11.099  0.00  0.00     0.289 C 
HETATM   14  C           1     -35.533  -4.594 -10.704  0.00  0.00     0.009 C 
ENDBRANCH  11  12
ENDBRANCH  10  11
BRANCH  10  15
HETATM   15  C           1     -35.125  -1.729 -12.430  0.00  0.00     0.196 C 
HETATM   16  O           1     -36.191  -1.391 -12.988  0.00  0.00    -0.646 OA
HETATM   17  O           1     -34.510  -0.911 -11.711  0.00  0.00    -0.646 OA
ENDBRANCH  10  15
ENDBRANCH   7  10
ENDBRANCH   1   6
BRANCH   1  18
HETATM   18  C           1     -32.124  -4.353 -15.982  0.00  0.00     0.082 C 
BRANCH  18  19
HETATM   19  C           1     -31.511  -5.418 -16.837  0.00  0.00    -0.028 A 
HETATM   20  C           1     -30.151  -5.483 -17.248  0.00  0.00    -0.002 A 
HETATM   21  C           1     -30.011  -6.631 -18.028  0.00  0.00     0.042 A 
HETATM   22  C           1     -29.022  -4.670 -17.030  0.00  0.00     0.014 A 
HETATM   23  C           1     -28.793  -7.010 -18.604  0.00  0.00     0.030 A 
HETATM   24  N           1     -31.247  -7.235 -18.082  0.00  0.00    -0.365 N 
HETATM   25  C           1     -27.686  -6.188 -18.373  0.00  0.00     0.002 A 
HETATM   26  C           1     -27.795  -5.035 -17.598  0.00  0.00     0.001 A 
HETATM   27  H           1     -31.459  -8.124 -18.599  0.00  0.00     0.165 HD
HETATM   28  C           1     -32.161  -6.510 -17.365  0.00  0.00     0.096 A 
ENDBRANCH  18  19
ENDBRANCH   1  18
TORSDOF 8
ENDMDL
