MODEL 1
REMARK VINA RESULT:      -5.3      0.000      0.000
REMARK  9 active torsions:
REMARK  status: ('A' for Active; 'I' for Inactive)
REMARK    1  A    between atoms: C_4  and  C_20 
REMARK    2  A    between atoms: C_4  and  Se_5 
REMARK    3  A    between atoms: N_6  and  C_20 
REMARK    4  A    between atoms: S_13  and  C_14 
REMARK    5  A    between atoms: C_14  and  C_15 
REMARK    6  A    between atoms: C_15  and  C_16 
REMARK    7  A    between atoms: C_16  and  C_17 
REMARK    8  A    between atoms: C_16  and  N_18 
REMARK       I    between atoms: N_18  and  C_19 
REMARK    9  A    between atoms: C_19  and  C_20 
ROOT
HETATM    1  O           1     -24.314  -6.466 -18.589  0.00  0.00    -0.271 OA
HETATM    2  H           1     -27.410  -6.965 -18.609  0.00  0.00     0.163 HD
HETATM    3  N           1     -26.515  -6.642 -18.264  0.00  0.00    -0.345 N 
HETATM    4  C           1     -25.381  -6.851 -19.001  0.00  0.00     0.249 C 
ENDROOT
BRANCH   3   5
HETATM    5  C           1     -26.436  -5.956 -16.989  0.00  0.00     0.186 C 
BRANCH   5   6
HETATM    6  C           1     -27.655  -5.060 -16.817  0.00  0.00     0.046 C 
BRANCH   6   7
HETATM    7  C           1     -28.589  -5.241 -18.007  0.00  0.00     0.076 C 
BRANCH   7   8
HETATM    8  S           1     -30.187  -5.881 -17.431  0.00  0.00    -0.173 SA
HETATM    9  C           1     -29.975  -7.561 -18.084  0.00  0.00     0.089 C 
ENDBRANCH   7   8
ENDBRANCH   6   7
ENDBRANCH   5   6
BRANCH   5  10
HETATM   10  C           1     -26.397  -6.973 -15.874  0.00  0.00     0.196 C 
HETATM   11  O           1     -25.299  -7.389 -15.446  0.00  0.00    -0.646 OA
HETATM   12  O           1     -27.463  -7.398 -15.378  0.00  0.00    -0.646 OA
ENDBRANCH   5  10
ENDBRANCH   3   5
BRANCH   4  13
HETATM   13  C           1     -25.465  -7.565 -20.329  0.00  0.00     0.274 C 
BRANCH  13  14
HETATM   14  C           1     -24.857  -6.689 -21.416  0.00  0.00     0.045 C 
BRANCH  14  15
HETATM   15 Se           1     -23.801  -7.793 -22.625  0.00  0.00     0.000 Se
HETATM   16  H           1     -23.491  -6.689 -23.548  0.00  0.00     0.000 HD
ENDBRANCH  14  15
ENDBRANCH  13  14
BRANCH  13  17
HETATM   17  N           1     -26.903  -7.841 -20.656  0.00  0.00    -0.067 N 
HETATM   18  H           1     -27.134  -8.828 -20.404  0.00  0.00     0.275 HD
HETATM   19  H           1     -27.061  -7.696 -21.678  0.00  0.00     0.275 HD
HETATM   20  H           1     -27.515  -7.191 -20.113  0.00  0.00     0.275 HD
ENDBRANCH  13  17
ENDBRANCH   4  13
TORSDOF 9
ENDMDL
MODEL 2
REMARK VINA RESULT:      -4.9      2.224      2.854
REMARK  9 active torsions:
REMARK  status: ('A' for Active; 'I' for Inactive)
REMARK    1  A    between atoms: C_4  and  C_20 
REMARK    2  A    between atoms: C_4  and  Se_5 
REMARK    3  A    between atoms: N_6  and  C_20 
REMARK    4  A    between atoms: S_13  and  C_14 
REMARK    5  A    between atoms: C_14  and  C_15 
REMARK    6  A    between atoms: C_15  and  C_16 
REMARK    7  A    between atoms: C_16  and  C_17 
REMARK    8  A    between atoms: C_16  and  N_18 
REMARK       I    between atoms: N_18  and  C_19 
REMARK    9  A    between atoms: C_19  and  C_20 
ROOT
HETATM    1  O           1     -25.898  -6.252 -17.732  0.00  0.00    -0.271 OA
HETATM    2  H           1     -27.611  -7.082 -20.225  0.00  0.00     0.163 HD
HETATM    3  N           1     -27.420  -6.781 -19.278  0.00  0.00    -0.345 N 
HETATM    4  C           1     -26.127  -6.611 -18.862  0.00  0.00     0.249 C 
ENDROOT
BRANCH   3   5
HETATM    5  C           1     -28.516  -6.529 -18.362  0.00  0.00     0.186 C 
BRANCH   5   6
HETATM    6  C           1     -29.214  -5.233 -18.752  0.00  0.00     0.046 C 
BRANCH   6   7
HETATM    7  C           1     -29.391  -4.361 -17.516  0.00  0.00     0.076 C 
BRANCH   7   8
HETATM    8  S           1     -30.991  -3.508 -17.601  0.00  0.00    -0.173 SA
HETATM    9  C           1     -31.955  -4.813 -16.786  0.00  0.00     0.089 C 
ENDBRANCH   7   8
ENDBRANCH   6   7
ENDBRANCH   5   6
BRANCH   5  10
HETATM   10  C           1     -29.500  -7.672 -18.431  0.00  0.00     0.196 C 
HETATM   11  O           1     -30.269  -7.893 -17.471  0.00  0.00    -0.646 OA
HETATM   12  O           1     -29.546  -8.396 -19.449  0.00  0.00    -0.646 OA
ENDBRANCH   5  10
ENDBRANCH   3   5
BRANCH   4  13
HETATM   13  C           1     -24.987  -6.874 -19.815  0.00  0.00     0.274 C 
BRANCH  13  14
HETATM   14  C           1     -25.459  -7.801 -20.928  0.00  0.00     0.045 C 
BRANCH  14  15
HETATM   15 Se           1     -24.093  -7.902 -22.314  0.00  0.00     0.000 Se
HETATM   16  H           1     -24.767  -8.976 -23.062  0.00  0.00     0.000 HD
ENDBRANCH  14  15
ENDBRANCH  13  14
BRANCH  13  17
HETATM   17  N           1     -23.855  -7.521 -19.074  0.00  0.00    -0.067 N 
HETATM   18  H           1     -24.078  -7.550 -18.054  0.00  0.00     0.275 HD
HETATM   19  H           1     -22.980  -6.969 -19.224  0.00  0.00     0.275 HD
HETATM   20  H           1     -23.717  -8.494 -19.428  0.00  0.00     0.275 HD
ENDBRANCH  13  17
ENDBRANCH   4  13
TORSDOF 9
ENDMDL
MODEL 3
REMARK VINA RESULT:      -4.8     10.450     12.442
REMARK  9 active torsions:
REMARK  status: ('A' for Active; 'I' for Inactive)
REMARK    1  A    between atoms: C_4  and  C_20 
REMARK    2  A    between atoms: C_4  and  Se_5 
REMARK    3  A    between atoms: N_6  and  C_20 
REMARK    4  A    between atoms: S_13  and  C_14 
REMARK    5  A    between atoms: C_14  and  C_15 
REMARK    6  A    between atoms: C_15  and  C_16 
REMARK    7  A    between atoms: C_16  and  C_17 
REMARK    8  A    between atoms: C_16  and  N_18 
REMARK       I    between atoms: N_18  and  C_19 
REMARK    9  A    between atoms: C_19  and  C_20 
ROOT
HETATM    1  O           1     -34.535  -3.167 -13.538  0.00  0.00    -0.271 OA
HETATM    2  H           1     -34.661  -0.918 -11.356  0.00  0.00     0.163 HD
HETATM    3  N           1     -34.876  -1.397 -12.220  0.00  0.00    -0.345 N 
HETATM    4  C           1     -34.278  -2.595 -12.506  0.00  0.00     0.249 C 
ENDROOT
BRANCH   3   5
HETATM    5  C           1     -35.820  -0.816 -13.156  0.00  0.00     0.186 C 
BRANCH   5   6
HETATM    6  C           1     -36.922  -0.101 -12.386  0.00  0.00     0.046 C 
BRANCH   6   7
HETATM    7  C           1     -36.973  -0.633 -10.960  0.00  0.00     0.076 C 
BRANCH   7   8
HETATM    8  S           1     -37.284   0.738  -9.812  0.00  0.00    -0.173 SA
HETATM    9  C           1     -37.437  -0.283  -8.319  0.00  0.00     0.089 C 
ENDBRANCH   7   8
ENDBRANCH   6   7
ENDBRANCH   5   6
BRANCH   5  10
HETATM   10  C           1     -35.102   0.172 -14.043  0.00  0.00     0.196 C 
HETATM   11  O           1     -34.850  -0.123 -15.231  0.00  0.00    -0.646 OA
HETATM   12  O           1     -34.761   1.286 -13.589  0.00  0.00    -0.646 OA
ENDBRANCH   5  10
ENDBRANCH   3   5
BRANCH   4  13
HETATM   13  C           1     -33.296  -3.199 -11.532  0.00  0.00     0.274 C 
BRANCH  13  14
HETATM   14  C           1     -32.985  -4.631 -11.947  0.00  0.00     0.045 C 
BRANCH  14  15
HETATM   15 Se           1     -34.066  -5.864 -10.895  0.00  0.00     0.000 Se
HETATM   16  H           1     -33.332  -5.622  -9.643  0.00  0.00     0.000 HD
ENDBRANCH  14  15
ENDBRANCH  13  14
BRANCH  13  17
HETATM   17  N           1     -33.894  -3.197 -10.156  0.00  0.00    -0.067 N 
HETATM   18  H           1     -33.184  -3.534  -9.468  0.00  0.00     0.275 HD
HETATM   19  H           1     -34.726  -3.829 -10.137  0.00  0.00     0.275 HD
HETATM   20  H           1     -34.188  -2.226  -9.906  0.00  0.00     0.275 HD
ENDBRANCH  13  17
ENDBRANCH   4  13
TORSDOF 9
ENDMDL
MODEL 4
REMARK VINA RESULT:      -4.7     11.359     12.935
REMARK  9 active torsions:
REMARK  status: ('A' for Active; 'I' for Inactive)
REMARK    1  A    between atoms: C_4  and  C_20 
REMARK    2  A    between atoms: C_4  and  Se_5 
REMARK    3  A    between atoms: N_6  and  C_20 
REMARK    4  A    between atoms: S_13  and  C_14 
REMARK    5  A    between atoms: C_14  and  C_15 
REMARK    6  A    between atoms: C_15  and  C_16 
REMARK    7  A    between atoms: C_16  and  C_17 
REMARK    8  A    between atoms: C_16  and  N_18 
REMARK       I    between atoms: N_18  and  C_19 
REMARK    9  A    between atoms: C_19  and  C_20 
ROOT
HETATM    1  O           1     -35.157   1.054 -13.938  0.00  0.00    -0.271 OA
HETATM    2  H           1     -37.215  -1.223 -13.291  0.00  0.00     0.163 HD
HETATM    3  N           1     -36.391  -0.646 -13.181  0.00  0.00    -0.345 N 
HETATM    4  C           1     -36.140   0.366 -14.069  0.00  0.00     0.249 C 
ENDROOT
BRANCH   3   5
HETATM    5  C           1     -35.477  -0.891 -12.082  0.00  0.00     0.186 C 
BRANCH   5   6
HETATM    6  C           1     -36.271  -1.132 -10.806  0.00  0.00     0.046 C 
BRANCH   6   7
HETATM    7  C           1     -36.871   0.182 -10.325  0.00  0.00     0.076 C 
BRANCH   7   8
HETATM    8  S           1     -37.721  -0.084  -8.743  0.00  0.00    -0.173 SA
HETATM    9  C           1     -36.516   0.806  -7.718  0.00  0.00     0.089 C 
ENDBRANCH   7   8
ENDBRANCH   6   7
ENDBRANCH   5   6
BRANCH   5  10
HETATM   10  C           1     -34.636  -2.106 -12.391  0.00  0.00     0.196 C 
HETATM   11  O           1     -33.837  -2.546 -11.536  0.00  0.00    -0.646 OA
HETATM   12  O           1     -34.739  -2.672 -13.500  0.00  0.00    -0.646 OA
ENDBRANCH   5  10
ENDBRANCH   3   5
BRANCH   4  13
HETATM   13  C           1     -37.092   0.619 -15.212  0.00  0.00     0.274 C 
BRANCH  13  14
HETATM   14  C           1     -37.270  -0.661 -16.018  0.00  0.00     0.045 C 
BRANCH  14  15
HETATM   15 Se           1     -35.539  -1.253 -16.689  0.00  0.00     0.000 Se
HETATM   16  H           1     -35.216  -2.045 -15.492  0.00  0.00     0.000 HD
ENDBRANCH  14  15
ENDBRANCH  13  14
BRANCH  13  17
HETATM   17  N           1     -36.534   1.693 -16.098  0.00  0.00    -0.067 N 
HETATM   18  H           1     -35.842   2.262 -15.561  0.00  0.00     0.275 HD
HETATM   19  H           1     -37.310   2.309 -16.429  0.00  0.00     0.275 HD
HETATM   20  H           1     -36.062   1.255 -16.921  0.00  0.00     0.275 HD
ENDBRANCH  13  17
ENDBRANCH   4  13
TORSDOF 9
ENDMDL
MODEL 5
REMARK VINA RESULT:      -4.6     11.368     13.389
REMARK  9 active torsions:
REMARK  status: ('A' for Active; 'I' for Inactive)
REMARK    1  A    between atoms: C_4  and  C_20 
REMARK    2  A    between atoms: C_4  and  Se_5 
REMARK    3  A    between atoms: N_6  and  C_20 
REMARK    4  A    between atoms: S_13  and  C_14 
REMARK    5  A    between atoms: C_14  and  C_15 
REMARK    6  A    between atoms: C_15  and  C_16 
REMARK    7  A    between atoms: C_16  and  C_17 
REMARK    8  A    between atoms: C_16  and  N_18 
REMARK       I    between atoms: N_18  and  C_19 
REMARK    9  A    between atoms: C_19  and  C_20 
ROOT
HETATM    1  O           1     -36.278  -3.517 -10.782  0.00  0.00    -0.271 OA
HETATM    2  H           1     -34.364  -1.040 -10.976  0.00  0.00     0.163 HD
HETATM    3  N           1     -35.236  -1.553 -10.982  0.00  0.00    -0.345 N 
HETATM    4  C           1     -35.237  -2.906 -10.774  0.00  0.00     0.249 C 
ENDROOT
BRANCH   3   5
HETATM    5  C           1     -36.485  -0.853 -11.211  0.00  0.00     0.186 C 
BRANCH   5   6
HETATM    6  C           1     -36.577   0.342 -10.272  0.00  0.00     0.046 C 
BRANCH   6   7
HETATM    7  C           1     -38.005   0.477  -9.760  0.00  0.00     0.076 C 
BRANCH   7   8
HETATM    8  S           1     -38.075   1.776  -8.495  0.00  0.00    -0.173 SA
HETATM    9  C           1     -36.827   1.050  -7.395  0.00  0.00     0.089 C 
ENDBRANCH   7   8
ENDBRANCH   6   7
ENDBRANCH   5   6
BRANCH   5  10
HETATM   10  C           1     -36.537  -0.374 -12.642  0.00  0.00     0.196 C 
HETATM   11  O           1     -35.684   0.438 -13.060  0.00  0.00    -0.646 OA
HETATM   12  O           1     -37.432  -0.792 -13.409  0.00  0.00    -0.646 OA
ENDBRANCH   5  10
ENDBRANCH   3   5
BRANCH   4  13
HETATM   13  C           1     -33.936  -3.633 -10.536  0.00  0.00     0.274 C 
BRANCH  13  14
HETATM   14  C           1     -33.026  -3.455 -11.744  0.00  0.00     0.045 C 
BRANCH  14  15
HETATM   15 Se           1     -33.958  -4.043 -13.352  0.00  0.00     0.000 Se
HETATM   16  H           1     -34.764  -2.817 -13.472  0.00  0.00     0.000 HD
ENDBRANCH  14  15
ENDBRANCH  13  14
BRANCH  13  17
HETATM   17  N           1     -34.211  -5.093 -10.328  0.00  0.00    -0.067 N 
HETATM   18  H           1     -34.457  -5.534 -11.241  0.00  0.00     0.275 HD
HETATM   19  H           1     -35.007  -5.205  -9.660  0.00  0.00     0.275 HD
HETATM   20  H           1     -33.360  -5.556  -9.935  0.00  0.00     0.275 HD
ENDBRANCH  13  17
ENDBRANCH   4  13
TORSDOF 9
ENDMDL
MODEL 6
REMARK VINA RESULT:      -4.5      2.039      2.527
REMARK  9 active torsions:
REMARK  status: ('A' for Active; 'I' for Inactive)
REMARK    1  A    between atoms: C_4  and  C_20 
REMARK    2  A    between atoms: C_4  and  Se_5 
REMARK    3  A    between atoms: N_6  and  C_20 
REMARK    4  A    between atoms: S_13  and  C_14 
REMARK    5  A    between atoms: C_14  and  C_15 
REMARK    6  A    between atoms: C_15  and  C_16 
REMARK    7  A    between atoms: C_16  and  C_17 
REMARK    8  A    between atoms: C_16  and  N_18 
REMARK       I    between atoms: N_18  and  C_19 
REMARK    9  A    between atoms: C_19  and  C_20 
ROOT
HETATM    1  O           1     -25.715  -5.920 -16.884  0.00  0.00    -0.271 OA
HETATM    2  H           1     -27.719  -6.940 -19.071  0.00  0.00     0.163 HD
HETATM    3  N           1     -27.412  -6.578 -18.177  0.00  0.00    -0.345 N 
HETATM    4  C           1     -26.081  -6.352 -17.950  0.00  0.00     0.249 C 
ENDROOT
BRANCH   3   5
HETATM    5  C           1     -28.383  -6.297 -17.138  0.00  0.00     0.186 C 
BRANCH   5   6
HETATM    6  C           1     -29.723  -5.953 -17.775  0.00  0.00     0.046 C 
BRANCH   6   7
HETATM    7  C           1     -30.540  -5.103 -16.812  0.00  0.00     0.076 C 
BRANCH   7   8
HETATM    8  S           1     -30.945  -3.517 -17.596  0.00  0.00    -0.173 SA
HETATM    9  C           1     -32.737  -3.611 -17.322  0.00  0.00     0.089 C 
ENDBRANCH   7   8
ENDBRANCH   6   7
ENDBRANCH   5   6
BRANCH   5  10
HETATM   10  C           1     -28.542  -7.512 -16.257  0.00  0.00     0.196 C 
HETATM   11  O           1     -29.247  -8.472 -16.638  0.00  0.00    -0.646 OA
HETATM   12  O           1     -27.966  -7.560 -15.149  0.00  0.00    -0.646 OA
ENDBRANCH   5  10
ENDBRANCH   3   5
BRANCH   4  13
HETATM   13  C           1     -25.071  -6.645 -19.033  0.00  0.00     0.274 C 
BRANCH  13  14
HETATM   14  C           1     -25.788  -7.181 -20.265  0.00  0.00     0.045 C 
BRANCH  14  15
HETATM   15 Se           1     -24.483  -7.930 -21.503  0.00  0.00     0.000 Se
HETATM   16  H           1     -24.670  -9.316 -21.043  0.00  0.00     0.000 HD
ENDBRANCH  14  15
ENDBRANCH  13  14
BRANCH  13  17
HETATM   17  N           1     -24.093  -7.669 -18.539  0.00  0.00    -0.067 N 
HETATM   18  H           1     -24.426  -8.058 -17.629  0.00  0.00     0.275 HD
HETATM   19  H           1     -23.158  -7.223 -18.407  0.00  0.00     0.275 HD
HETATM   20  H           1     -24.014  -8.442 -19.239  0.00  0.00     0.275 HD
ENDBRANCH  13  17
ENDBRANCH   4  13
TORSDOF 9
ENDMDL
MODEL 7
REMARK VINA RESULT:      -4.4      2.704      5.557
REMARK  9 active torsions:
REMARK  status: ('A' for Active; 'I' for Inactive)
REMARK    1  A    between atoms: C_4  and  C_20 
REMARK    2  A    between atoms: C_4  and  Se_5 
REMARK    3  A    between atoms: N_6  and  C_20 
REMARK    4  A    between atoms: S_13  and  C_14 
REMARK    5  A    between atoms: C_14  and  C_15 
REMARK    6  A    between atoms: C_15  and  C_16 
REMARK    7  A    between atoms: C_16  and  C_17 
REMARK    8  A    between atoms: C_16  and  N_18 
REMARK       I    between atoms: N_18  and  C_19 
REMARK    9  A    between atoms: C_19  and  C_20 
ROOT
HETATM    1  O           1     -30.218  -6.406 -17.672  0.00  0.00    -0.271 OA
HETATM    2  H           1     -28.067  -4.302 -16.785  0.00  0.00     0.163 HD
HETATM    3  N           1     -28.433  -5.188 -17.111  0.00  0.00    -0.345 N 
HETATM    4  C           1     -29.781  -5.350 -17.283  0.00  0.00     0.249 C 
ENDROOT
BRANCH   3   5
HETATM    5  C           1     -27.528  -6.283 -17.399  0.00  0.00     0.186 C 
BRANCH   5   6
HETATM    6  C           1     -26.691  -5.942 -18.624  0.00  0.00     0.046 C 
BRANCH   6   7
HETATM    7  C           1     -27.117  -6.822 -19.791  0.00  0.00     0.076 C 
BRANCH   7   8
HETATM    8  S           1     -25.647  -7.383 -20.696  0.00  0.00    -0.173 SA
HETATM    9  C           1     -24.462  -7.083 -19.355  0.00  0.00     0.089 C 
ENDBRANCH   7   8
ENDBRANCH   6   7
ENDBRANCH   5   6
BRANCH   5  10
HETATM   10  C           1     -26.619  -6.507 -16.214  0.00  0.00     0.196 C 
HETATM   11  O           1     -25.599  -5.799 -16.067  0.00  0.00    -0.646 OA
HETATM   12  O           1     -26.887  -7.398 -15.380  0.00  0.00    -0.646 OA
ENDBRANCH   5  10
ENDBRANCH   3   5
BRANCH   4  13
HETATM   13  C           1     -30.723  -4.209 -16.983  0.00  0.00     0.274 C 
BRANCH  13  14
HETATM   14  C           1     -32.143  -4.743 -16.852  0.00  0.00     0.045 C 
BRANCH  14  15
HETATM   15 Se           1     -33.413  -3.304 -17.191  0.00  0.00     0.000 Se
HETATM   16  H           1     -32.519  -2.574 -18.105  0.00  0.00     0.000 HD
ENDBRANCH  14  15
ENDBRANCH  13  14
BRANCH  13  17
HETATM   17  N           1     -30.666  -3.209 -18.100  0.00  0.00    -0.067 N 
HETATM   18  H           1     -29.849  -3.421 -18.716  0.00  0.00     0.275 HD
HETATM   19  H           1     -30.563  -2.249 -17.702  0.00  0.00     0.275 HD
HETATM   20  H           1     -31.547  -3.261 -18.660  0.00  0.00     0.275 HD
ENDBRANCH  13  17
ENDBRANCH   4  13
TORSDOF 9
ENDMDL
MODEL 8
REMARK VINA RESULT:      -4.4     12.527     14.198
REMARK  9 active torsions:
REMARK  status: ('A' for Active; 'I' for Inactive)
REMARK    1  A    between atoms: C_4  and  C_20 
REMARK    2  A    between atoms: C_4  and  Se_5 
REMARK    3  A    between atoms: N_6  and  C_20 
REMARK    4  A    between atoms: S_13  and  C_14 
REMARK    5  A    between atoms: C_14  and  C_15 
REMARK    6  A    between atoms: C_15  and  C_16 
REMARK    7  A    between atoms: C_16  and  C_17 
REMARK    8  A    between atoms: C_16  and  N_18 
REMARK       I    between atoms: N_18  and  C_19 
REMARK    9  A    between atoms: C_19  and  C_20 
ROOT
HETATM    1  O           1     -20.276  -4.408  -6.163  0.00  0.00    -0.271 OA
HETATM    2  H           1     -21.855  -7.013  -6.914  0.00  0.00     0.163 HD
HETATM    3  N           1     -21.287  -6.390  -6.354  0.00  0.00    -0.345 N 
HETATM    4  C           1     -20.954  -5.151  -6.832  0.00  0.00     0.249 C 
ENDROOT
BRANCH   3   5
HETATM    5  C           1     -20.829  -6.809  -5.043  0.00  0.00     0.186 C 
BRANCH   5   6
HETATM    6  C           1     -21.969  -6.678  -4.041  0.00  0.00     0.046 C 
BRANCH   6   7
HETATM    7  C           1     -21.447  -6.046  -2.758  0.00  0.00     0.076 C 
BRANCH   7   8
HETATM    8  S           1     -22.163  -6.902  -1.327  0.00  0.00    -0.173 SA
HETATM    9  C           1     -20.849  -8.142  -1.158  0.00  0.00     0.089 C 
ENDBRANCH   7   8
ENDBRANCH   6   7
ENDBRANCH   5   6
BRANCH   5  10
HETATM   10  C           1     -20.377  -8.248  -5.107  0.00  0.00     0.196 C 
HETATM   11  O           1     -19.299  -8.539  -5.669  0.00  0.00    -0.646 OA
HETATM   12  O           1     -21.079  -9.147  -4.596  0.00  0.00    -0.646 OA
ENDBRANCH   5  10
ENDBRANCH   3   5
BRANCH   4  13
HETATM   13  C           1     -21.431  -4.716  -8.196  0.00  0.00     0.274 C 
BRANCH  13  14
HETATM   14  C           1     -20.235  -4.305  -9.046  0.00  0.00     0.045 C 
BRANCH  14  15
HETATM   15 Se           1     -20.799  -4.083 -10.898  0.00  0.00     0.000 Se
HETATM   16  H           1     -22.237  -4.102 -10.583  0.00  0.00     0.000 HD
ENDBRANCH  14  15
ENDBRANCH  13  14
BRANCH  13  17
HETATM   17  N           1     -22.363  -3.550  -8.050  0.00  0.00    -0.067 N 
HETATM   18  H           1     -22.047  -2.772  -8.669  0.00  0.00     0.275 HD
HETATM   19  H           1     -22.364  -3.228  -7.056  0.00  0.00     0.275 HD
HETATM   20  H           1     -23.330  -3.841  -8.321  0.00  0.00     0.275 HD
ENDBRANCH  13  17
ENDBRANCH   4  13
TORSDOF 9
ENDMDL
MODEL 9
REMARK VINA RESULT:      -4.3      2.892      3.830
REMARK  9 active torsions:
REMARK  status: ('A' for Active; 'I' for Inactive)
REMARK    1  A    between atoms: C_4  and  C_20 
REMARK    2  A    between atoms: C_4  and  Se_5 
REMARK    3  A    between atoms: N_6  and  C_20 
REMARK    4  A    between atoms: S_13  and  C_14 
REMARK    5  A    between atoms: C_14  and  C_15 
REMARK    6  A    between atoms: C_15  and  C_16 
REMARK    7  A    between atoms: C_16  and  C_17 
REMARK    8  A    between atoms: C_16  and  N_18 
REMARK       I    between atoms: N_18  and  C_19 
REMARK    9  A    between atoms: C_19  and  C_20 
ROOT
HETATM    1  O           1     -28.961  -7.162 -19.113  0.00  0.00    -0.271 OA
HETATM    2  H           1     -27.772  -4.390 -18.252  0.00  0.00     0.163 HD
HETATM    3  N           1     -28.451  -5.137 -18.323  0.00  0.00    -0.345 N 
HETATM    4  C           1     -28.151  -6.270 -19.030  0.00  0.00     0.249 C 
ENDROOT
BRANCH   3   5
HETATM    5  C           1     -29.741  -5.007 -17.673  0.00  0.00     0.186 C 
BRANCH   5   6
HETATM    6  C           1     -29.680  -5.644 -16.291  0.00  0.00     0.046 C 
BRANCH   6   7
HETATM    7  C           1     -28.262  -5.539 -15.746  0.00  0.00     0.076 C 
BRANCH   7   8
HETATM    8  S           1     -27.587  -7.204 -15.487  0.00  0.00    -0.173 SA
HETATM    9  C           1     -25.838  -6.725 -15.572  0.00  0.00     0.089 C 
ENDBRANCH   7   8
ENDBRANCH   6   7
ENDBRANCH   5   6
BRANCH   5  10
HETATM   10  C           1     -30.089  -3.545 -17.539  0.00  0.00     0.196 C 
HETATM   11  O           1     -29.181  -2.695 -17.415  0.00  0.00    -0.646 OA
HETATM   12  O           1     -31.286  -3.184 -17.553  0.00  0.00    -0.646 OA
ENDBRANCH   5  10
ENDBRANCH   3   5
BRANCH   4  13
HETATM   13  C           1     -26.808  -6.404 -19.705  0.00  0.00     0.274 C 
BRANCH  13  14
HETATM   14  C           1     -26.857  -7.547 -20.711  0.00  0.00     0.045 C 
BRANCH  14  15
HETATM   15 Se           1     -25.049  -7.969 -21.305  0.00  0.00     0.000 Se
HETATM   16  H           1     -25.321  -7.670 -22.720  0.00  0.00     0.000 HD
ENDBRANCH  14  15
ENDBRANCH  13  14
BRANCH  13  17
HETATM   17  N           1     -25.757  -6.691 -18.674  0.00  0.00    -0.067 N 
HETATM   18  H           1     -25.079  -5.898 -18.638  0.00  0.00     0.275 HD
HETATM   19  H           1     -25.253  -7.570 -18.926  0.00  0.00     0.275 HD
HETATM   20  H           1     -26.209  -6.806 -17.739  0.00  0.00     0.275 HD
ENDBRANCH  13  17
ENDBRANCH   4  13
TORSDOF 9
ENDMDL
