MODEL 1
REMARK VINA RESULT:      -5.9      0.000      0.000
REMARK  10 active torsions:
REMARK  status: ('A' for Active; 'I' for Inactive)
REMARK    1  A    between atoms: C_6  and  C_21 
REMARK    2  A    between atoms: N_9  and  C_21 
REMARK       I    between atoms: N_9  and  C_10 
REMARK    3  A    between atoms: C_10  and  C_11 
REMARK    4  A    between atoms: C_11  and  C_12 
REMARK    5  A    between atoms: C_11  and  N_20 
REMARK    6  A    between atoms: C_12  and  C_13 
REMARK    7  A    between atoms: C_13  and  C_19 
REMARK    8  A    between atoms: Se_14  and  C_16 
REMARK    9  A    between atoms: C_16  and  C_22 
REMARK   10  A    between atoms: C_21  and  C_22 
ROOT
HETATM    1  H           1     -35.101  -0.415 -11.290  0.00  0.00     0.163 HD
HETATM    2  N           1     -35.253  -0.965 -12.127  0.00  0.00    -0.345 N 
HETATM    3  C           1     -34.467  -2.056 -12.381  0.00  0.00     0.249 C 
HETATM    4  O           1     -34.650  -2.714 -13.379  0.00  0.00    -0.271 OA
ENDROOT
BRANCH   3   5
HETATM    5  C           1     -33.373  -2.439 -11.415  0.00  0.00     0.275 C 
BRANCH   5   6
HETATM    6  C           1     -33.098  -3.934 -11.525  0.00  0.00     0.053 C 
BRANCH   6   7
HETATM    7  C           1     -33.992  -4.688 -10.551  0.00  0.00     0.115 C 
BRANCH   7   8
HETATM    8  C           1     -34.604  -5.879 -11.247  0.00  0.00     0.172 C 
HETATM    9  O           1     -35.102  -5.750 -12.386  0.00  0.00    -0.648 OA
HETATM   10  O           1     -34.614  -6.994 -10.684  0.00  0.00    -0.648 OA
ENDBRANCH   7   8
ENDBRANCH   6   7
ENDBRANCH   5   6
BRANCH   5  11
HETATM   11  N           1     -33.804  -2.112 -10.017  0.00  0.00    -0.066 N 
HETATM   12  H           1     -34.211  -1.150  -9.993  0.00  0.00     0.275 HD
HETATM   13  H           1     -34.524  -2.802  -9.705  0.00  0.00     0.275 HD
HETATM   14  H           1     -32.977  -2.155  -9.378  0.00  0.00     0.275 HD
ENDBRANCH   5  11
ENDBRANCH   3   5
BRANCH   2  15
HETATM   15  C           1     -36.306  -0.598 -13.054  0.00  0.00     0.185 C 
BRANCH  15  16
HETATM   16  C           1     -35.803   0.480 -13.982  0.00  0.00     0.196 C 
HETATM   17  O           1     -34.840   1.200 -13.640  0.00  0.00    -0.646 OA
HETATM   18  O           1     -36.348   0.653 -15.093  0.00  0.00    -0.646 OA
ENDBRANCH  15  16
BRANCH  15  19
HETATM   19  C           1     -37.508  -0.079 -12.276  0.00  0.00     0.036 C 
BRANCH  19  20
HETATM   20  C           1     -37.466  -0.620 -10.853  0.00  0.00     0.003 C 
BRANCH  20  21
HETATM   21 Se           1     -38.070   0.757  -9.614  0.00  0.00     0.000 Se
HETATM   22  C           1     -36.723   0.363  -8.262  0.00  0.00     0.000 C 
ENDBRANCH  20  21
ENDBRANCH  19  20
ENDBRANCH  15  19
ENDBRANCH   2  15
TORSDOF 10
ENDMDL
MODEL 2
REMARK VINA RESULT:      -5.6     13.745     16.065
REMARK  10 active torsions:
REMARK  status: ('A' for Active; 'I' for Inactive)
REMARK    1  A    between atoms: C_6  and  C_21 
REMARK    2  A    between atoms: N_9  and  C_21 
REMARK       I    between atoms: N_9  and  C_10 
REMARK    3  A    between atoms: C_10  and  C_11 
REMARK    4  A    between atoms: C_11  and  C_12 
REMARK    5  A    between atoms: C_11  and  N_20 
REMARK    6  A    between atoms: C_12  and  C_13 
REMARK    7  A    between atoms: C_13  and  C_19 
REMARK    8  A    between atoms: Se_14  and  C_16 
REMARK    9  A    between atoms: C_16  and  C_22 
REMARK   10  A    between atoms: C_21  and  C_22 
ROOT
HETATM    1  H           1     -21.809  -6.608  -7.292  0.00  0.00     0.163 HD
HETATM    2  N           1     -21.283  -6.083  -6.603  0.00  0.00    -0.345 N 
HETATM    3  C           1     -20.949  -4.778  -6.848  0.00  0.00     0.249 C 
HETATM    4  O           1     -20.323  -4.151  -6.026  0.00  0.00    -0.271 OA
ENDROOT
BRANCH   3   5
HETATM    5  C           1     -21.362  -4.123  -8.143  0.00  0.00     0.275 C 
BRANCH   5   6
HETATM    6  C           1     -22.537  -4.883  -8.744  0.00  0.00     0.053 C 
BRANCH   6   7
HETATM    7  C           1     -23.737  -3.954  -8.861  0.00  0.00     0.115 C 
BRANCH   7   8
HETATM    8  C           1     -23.871  -3.478 -10.287  0.00  0.00     0.172 C 
HETATM    9  O           1     -24.999  -3.221 -10.757  0.00  0.00    -0.648 OA
HETATM   10  O           1     -22.851  -3.342 -10.997  0.00  0.00    -0.648 OA
ENDBRANCH   7   8
ENDBRANCH   6   7
ENDBRANCH   5   6
BRANCH   5  11
HETATM   11  N           1     -20.210  -4.144  -9.103  0.00  0.00    -0.066 N 
HETATM   12  H           1     -19.609  -4.977  -8.908  0.00  0.00     0.275 HD
HETATM   13  H           1     -20.573  -4.200 -10.081  0.00  0.00     0.275 HD
HETATM   14  H           1     -19.644  -3.273  -8.987  0.00  0.00     0.275 HD
ENDBRANCH   5  11
ENDBRANCH   3   5
BRANCH   2  15
HETATM   15  C           1     -20.888  -6.711  -5.358  0.00  0.00     0.185 C 
BRANCH  15  16
HETATM   16  C           1     -20.420  -8.119  -5.634  0.00  0.00     0.196 C 
HETATM   17  O           1     -19.207  -8.349  -5.822  0.00  0.00    -0.646 OA
HETATM   18  O           1     -21.247  -9.056  -5.673  0.00  0.00    -0.646 OA
ENDBRANCH  15  16
BRANCH  15  19
HETATM   19  C           1     -22.078  -6.749  -4.408  0.00  0.00     0.036 C 
BRANCH  19  20
HETATM   20  C           1     -21.639  -6.289  -3.025  0.00  0.00     0.003 C 
BRANCH  20  21
HETATM   21 Se           1     -21.252  -7.843  -1.915  0.00  0.00     0.000 Se
HETATM   22  C           1     -22.435  -7.305  -0.462  0.00  0.00     0.000 C 
ENDBRANCH  20  21
ENDBRANCH  19  20
ENDBRANCH  15  19
ENDBRANCH   2  15
TORSDOF 10
ENDMDL
MODEL 3
REMARK VINA RESULT:      -5.5     14.206     16.544
REMARK  10 active torsions:
REMARK  status: ('A' for Active; 'I' for Inactive)
REMARK    1  A    between atoms: C_6  and  C_21 
REMARK    2  A    between atoms: N_9  and  C_21 
REMARK       I    between atoms: N_9  and  C_10 
REMARK    3  A    between atoms: C_10  and  C_11 
REMARK    4  A    between atoms: C_11  and  C_12 
REMARK    5  A    between atoms: C_11  and  N_20 
REMARK    6  A    between atoms: C_12  and  C_13 
REMARK    7  A    between atoms: C_13  and  C_19 
REMARK    8  A    between atoms: Se_14  and  C_16 
REMARK    9  A    between atoms: C_16  and  C_22 
REMARK   10  A    between atoms: C_21  and  C_22 
ROOT
HETATM    1  H           1     -22.147  -6.930  -6.880  0.00  0.00     0.163 HD
HETATM    2  N           1     -21.400  -6.395  -6.455  0.00  0.00    -0.345 N 
HETATM    3  C           1     -20.938  -5.261  -7.066  0.00  0.00     0.249 C 
HETATM    4  O           1     -20.046  -4.621  -6.558  0.00  0.00    -0.271 OA
ENDROOT
BRANCH   3   5
HETATM    5  C           1     -21.540  -4.808  -8.373  0.00  0.00     0.275 C 
BRANCH   5   6
HETATM    6  C           1     -20.486  -4.071  -9.190  0.00  0.00     0.053 C 
BRANCH   6   7
HETATM    7  C           1     -20.515  -4.571 -10.627  0.00  0.00     0.115 C 
BRANCH   7   8
HETATM    8  C           1     -21.604  -3.856 -11.389  0.00  0.00     0.172 C 
HETATM    9  O           1     -22.589  -4.493 -11.818  0.00  0.00    -0.648 OA
HETATM   10  O           1     -21.519  -2.626 -11.591  0.00  0.00    -0.648 OA
ENDBRANCH   7   8
ENDBRANCH   6   7
ENDBRANCH   5   6
BRANCH   5  11
HETATM   11  N           1     -22.694  -3.890  -8.100  0.00  0.00    -0.066 N 
HETATM   12  H           1     -22.569  -3.442  -7.164  0.00  0.00     0.275 HD
HETATM   13  H           1     -22.732  -3.151  -8.837  0.00  0.00     0.275 HD
HETATM   14  H           1     -23.584  -4.438  -8.107  0.00  0.00     0.275 HD
ENDBRANCH   5  11
ENDBRANCH   3   5
BRANCH   2  15
HETATM   15  C           1     -20.822  -6.828  -5.198  0.00  0.00     0.185 C 
BRANCH  15  16
HETATM   16  C           1     -20.268  -8.223  -5.356  0.00  0.00     0.196 C 
HETATM   17  O           1     -20.904  -9.202  -4.910  0.00  0.00    -0.646 OA
HETATM   18  O           1     -19.174  -8.400  -5.934  0.00  0.00    -0.646 OA
ENDBRANCH  15  16
BRANCH  15  19
HETATM   19  C           1     -21.897  -6.828  -4.118  0.00  0.00     0.036 C 
BRANCH  19  20
HETATM   20  C           1     -21.307  -6.309  -2.814  0.00  0.00     0.003 C 
BRANCH  20  21
HETATM   21 Se           1     -21.036  -7.798  -1.585  0.00  0.00     0.000 Se
HETATM   22  C           1     -22.561  -7.355  -0.454  0.00  0.00     0.000 C 
ENDBRANCH  20  21
ENDBRANCH  19  20
ENDBRANCH  15  19
ENDBRANCH   2  15
TORSDOF 10
ENDMDL
MODEL 4
REMARK VINA RESULT:      -5.4     11.437     13.173
REMARK  10 active torsions:
REMARK  status: ('A' for Active; 'I' for Inactive)
REMARK    1  A    between atoms: C_6  and  C_21 
REMARK    2  A    between atoms: N_9  and  C_21 
REMARK       I    between atoms: N_9  and  C_10 
REMARK    3  A    between atoms: C_10  and  C_11 
REMARK    4  A    between atoms: C_11  and  C_12 
REMARK    5  A    between atoms: C_11  and  N_20 
REMARK    6  A    between atoms: C_12  and  C_13 
REMARK    7  A    between atoms: C_13  and  C_19 
REMARK    8  A    between atoms: Se_14  and  C_16 
REMARK    9  A    between atoms: C_16  and  C_22 
REMARK   10  A    between atoms: C_21  and  C_22 
ROOT
HETATM    1  H           1     -27.369  -8.108 -18.785  0.00  0.00     0.163 HD
HETATM    2  N           1     -27.497  -7.204 -19.223  0.00  0.00    -0.345 N 
HETATM    3  C           1     -28.361  -6.295 -18.675  0.00  0.00     0.249 C 
HETATM    4  O           1     -28.514  -5.215 -19.198  0.00  0.00    -0.271 OA
ENDROOT
BRANCH   3   5
HETATM    5  C           1     -29.122  -6.639 -17.419  0.00  0.00     0.275 C 
BRANCH   5   6
HETATM    6  C           1     -28.397  -6.060 -16.210  0.00  0.00     0.053 C 
BRANCH   6   7
HETATM    7  C           1     -27.507  -7.130 -15.592  0.00  0.00     0.115 C 
BRANCH   7   8
HETATM    8  C           1     -26.059  -6.736 -15.752  0.00  0.00     0.172 C 
HETATM    9  O           1     -25.764  -5.602 -16.185  0.00  0.00    -0.648 OA
HETATM   10  O           1     -25.155  -7.545 -15.451  0.00  0.00    -0.648 OA
ENDBRANCH   7   8
ENDBRANCH   6   7
ENDBRANCH   5   6
BRANCH   5  11
HETATM   11  N           1     -29.212  -8.129 -17.281  0.00  0.00    -0.066 N 
HETATM   12  H           1     -29.150  -8.391 -16.271  0.00  0.00     0.275 HD
HETATM   13  H           1     -30.123  -8.461 -17.670  0.00  0.00     0.275 HD
HETATM   14  H           1     -28.424  -8.575 -17.805  0.00  0.00     0.275 HD
ENDBRANCH   5  11
ENDBRANCH   3   5
BRANCH   2  15
HETATM   15  C           1     -26.765  -6.872 -20.430  0.00  0.00     0.185 C 
BRANCH  15  16
HETATM   16  C           1     -26.638  -8.103 -21.293  0.00  0.00     0.196 C 
HETATM   17  O           1     -27.584  -8.916 -21.366  0.00  0.00    -0.646 OA
HETATM   18  O           1     -25.587  -8.310 -21.937  0.00  0.00    -0.646 OA
ENDBRANCH  15  16
BRANCH  15  19
HETATM   19  C           1     -25.377  -6.368 -20.058  0.00  0.00     0.036 C 
BRANCH  19  20
HETATM   20  C           1     -24.743  -7.319 -19.051  0.00  0.00     0.003 C 
BRANCH  20  21
HETATM   21 Se           1     -22.803  -7.138 -19.117  0.00  0.00     0.000 Se
HETATM   22  C           1     -22.587  -8.273 -20.686  0.00  0.00     0.000 C 
ENDBRANCH  20  21
ENDBRANCH  19  20
ENDBRANCH  15  19
ENDBRANCH   2  15
TORSDOF 10
ENDMDL
MODEL 5
REMARK VINA RESULT:      -5.3     10.811     12.711
REMARK  10 active torsions:
REMARK  status: ('A' for Active; 'I' for Inactive)
REMARK    1  A    between atoms: C_6  and  C_21 
REMARK    2  A    between atoms: N_9  and  C_21 
REMARK       I    between atoms: N_9  and  C_10 
REMARK    3  A    between atoms: C_10  and  C_11 
REMARK    4  A    between atoms: C_11  and  C_12 
REMARK    5  A    between atoms: C_11  and  N_20 
REMARK    6  A    between atoms: C_12  and  C_13 
REMARK    7  A    between atoms: C_13  and  C_19 
REMARK    8  A    between atoms: Se_14  and  C_16 
REMARK    9  A    between atoms: C_16  and  C_22 
REMARK   10  A    between atoms: C_21  and  C_22 
ROOT
HETATM    1  H           1     -26.615  -7.399 -18.420  0.00  0.00     0.163 HD
HETATM    2  N           1     -27.189  -6.804 -19.005  0.00  0.00    -0.345 N 
HETATM    3  C           1     -28.061  -5.919 -18.431  0.00  0.00     0.249 C 
HETATM    4  O           1     -28.745  -5.208 -19.129  0.00  0.00    -0.271 OA
ENDROOT
BRANCH   3   5
HETATM    5  C           1     -28.167  -5.829 -16.929  0.00  0.00     0.275 C 
BRANCH   5   6
HETATM    6  C           1     -29.110  -4.693 -16.553  0.00  0.00     0.053 C 
BRANCH   6   7
HETATM    7  C           1     -30.538  -5.217 -16.491  0.00  0.00     0.115 C 
BRANCH   7   8
HETATM    8  C           1     -31.492  -4.135 -16.935  0.00  0.00     0.172 C 
HETATM    9  O           1     -32.705  -4.214 -16.648  0.00  0.00    -0.648 OA
HETATM   10  O           1     -31.067  -3.158 -17.590  0.00  0.00    -0.648 OA
ENDBRANCH   7   8
ENDBRANCH   6   7
ENDBRANCH   5   6
BRANCH   5  11
HETATM   11  N           1     -26.810  -5.566 -16.347  0.00  0.00    -0.066 N 
HETATM   12  H           1     -26.817  -4.648 -15.847  0.00  0.00     0.275 HD
HETATM   13  H           1     -26.568  -6.327 -15.673  0.00  0.00     0.275 HD
HETATM   14  H           1     -26.102  -5.539 -17.115  0.00  0.00     0.275 HD
ENDBRANCH   5  11
ENDBRANCH   3   5
BRANCH   2  15
HETATM   15  C           1     -27.086  -6.889 -20.448  0.00  0.00     0.185 C 
BRANCH  15  16
HETATM   16  C           1     -27.486  -8.273 -20.899  0.00  0.00     0.196 C 
HETATM   17  O           1     -26.765  -8.900 -21.703  0.00  0.00    -0.646 OA
HETATM   18  O           1     -28.538  -8.791 -20.467  0.00  0.00    -0.646 OA
ENDBRANCH  15  16
BRANCH  15  19
HETATM   19  C           1     -25.648  -6.613 -20.871  0.00  0.00     0.036 C 
BRANCH  19  20
HETATM   20  C           1     -24.693  -7.261 -19.877  0.00  0.00     0.003 C 
BRANCH  20  21
HETATM   21 Se           1     -23.323  -8.254 -20.843  0.00  0.00     0.000 Se
HETATM   22  C           1     -23.854  -7.599 -22.600  0.00  0.00     0.000 C 
ENDBRANCH  20  21
ENDBRANCH  19  20
ENDBRANCH  15  19
ENDBRANCH   2  15
TORSDOF 10
ENDMDL
MODEL 6
REMARK VINA RESULT:      -5.2     14.587     17.065
REMARK  10 active torsions:
REMARK  status: ('A' for Active; 'I' for Inactive)
REMARK    1  A    between atoms: C_6  and  C_21 
REMARK    2  A    between atoms: N_9  and  C_21 
REMARK       I    between atoms: N_9  and  C_10 
REMARK    3  A    between atoms: C_10  and  C_11 
REMARK    4  A    between atoms: C_11  and  C_12 
REMARK    5  A    between atoms: C_11  and  N_20 
REMARK    6  A    between atoms: C_12  and  C_13 
REMARK    7  A    between atoms: C_13  and  C_19 
REMARK    8  A    between atoms: Se_14  and  C_16 
REMARK    9  A    between atoms: C_16  and  C_22 
REMARK   10  A    between atoms: C_21  and  C_22 
ROOT
HETATM    1  H           1     -19.830  -6.400  -4.893  0.00  0.00     0.163 HD
HETATM    2  N           1     -20.841  -6.383  -4.955  0.00  0.00    -0.345 N 
HETATM    3  C           1     -21.459  -5.499  -5.799  0.00  0.00     0.249 C 
HETATM    4  O           1     -22.665  -5.479  -5.873  0.00  0.00    -0.271 OA
ENDROOT
BRANCH   3   5
HETATM    5  C           1     -20.635  -4.552  -6.635  0.00  0.00     0.275 C 
BRANCH   5   6
HETATM    6  C           1     -21.561  -3.638  -7.428  0.00  0.00     0.053 C 
BRANCH   6   7
HETATM    7  C           1     -21.504  -4.013  -8.902  0.00  0.00     0.115 C 
BRANCH   7   8
HETATM    8  C           1     -22.844  -3.746  -9.543  0.00  0.00     0.172 C 
HETATM    9  O           1     -23.895  -3.928  -8.893  0.00  0.00    -0.648 OA
HETATM   10  O           1     -22.901  -3.341 -10.724  0.00  0.00    -0.648 OA
ENDBRANCH   7   8
ENDBRANCH   6   7
ENDBRANCH   5   6
BRANCH   5  11
HETATM   11  N           1     -19.777  -5.337  -7.581  0.00  0.00    -0.066 N 
HETATM   12  H           1     -20.373  -5.735  -8.343  0.00  0.00     0.275 HD
HETATM   13  H           1     -19.054  -4.710  -7.998  0.00  0.00     0.275 HD
HETATM   14  H           1     -19.310  -6.116  -7.063  0.00  0.00     0.275 HD
ENDBRANCH   5  11
ENDBRANCH   3   5
BRANCH   2  15
HETATM   15  C           1     -21.632  -7.294  -4.153  0.00  0.00     0.185 C 
BRANCH  15  16
HETATM   16  C           1     -21.641  -6.822  -2.719  0.00  0.00     0.196 C 
HETATM   17  O           1     -22.428  -5.919  -2.363  0.00  0.00    -0.646 OA
HETATM   18  O           1     -20.861  -7.335  -1.888  0.00  0.00    -0.646 OA
ENDBRANCH  15  16
BRANCH  15  19
HETATM   19  C           1     -21.026  -8.690  -4.224  0.00  0.00     0.036 C 
BRANCH  19  20
HETATM   20  C           1     -19.739  -8.644  -5.037  0.00  0.00     0.003 C 
BRANCH  20  21
HETATM   21 Se           1     -18.328  -9.585  -4.077  0.00  0.00     0.000 Se
HETATM   22  C           1     -17.233  -9.895  -5.659  0.00  0.00     0.000 C 
ENDBRANCH  20  21
ENDBRANCH  19  20
ENDBRANCH  15  19
ENDBRANCH   2  15
TORSDOF 10
ENDMDL
MODEL 7
REMARK VINA RESULT:      -5.0     12.447     14.176
REMARK  10 active torsions:
REMARK  status: ('A' for Active; 'I' for Inactive)
REMARK    1  A    between atoms: C_6  and  C_21 
REMARK    2  A    between atoms: N_9  and  C_21 
REMARK       I    between atoms: N_9  and  C_10 
REMARK    3  A    between atoms: C_10  and  C_11 
REMARK    4  A    between atoms: C_11  and  C_12 
REMARK    5  A    between atoms: C_11  and  N_20 
REMARK    6  A    between atoms: C_12  and  C_13 
REMARK    7  A    between atoms: C_13  and  C_19 
REMARK    8  A    between atoms: Se_14  and  C_16 
REMARK    9  A    between atoms: C_16  and  C_22 
REMARK   10  A    between atoms: C_21  and  C_22 
ROOT
HETATM    1  H           1     -24.496  -4.952  -8.108  0.00  0.00     0.163 HD
HETATM    2  N           1     -23.654  -4.469  -8.398  0.00  0.00    -0.345 N 
HETATM    3  C           1     -22.613  -4.327  -7.520  0.00  0.00     0.249 C 
HETATM    4  O           1     -21.607  -3.752  -7.865  0.00  0.00    -0.271 OA
ENDROOT
BRANCH   3   5
HETATM    5  C           1     -22.721  -4.886  -6.123  0.00  0.00     0.275 C 
BRANCH   5   6
HETATM    6  C           1     -21.702  -6.004  -5.943  0.00  0.00     0.053 C 
BRANCH   6   7
HETATM    7  C           1     -20.850  -5.722  -4.712  0.00  0.00     0.115 C 
BRANCH   7   8
HETATM    8  C           1     -21.401  -6.485  -3.533  0.00  0.00     0.172 C 
HETATM    9  O           1     -22.375  -6.034  -2.895  0.00  0.00    -0.648 OA
HETATM   10  O           1     -20.880  -7.570  -3.194  0.00  0.00    -0.648 OA
ENDBRANCH   7   8
ENDBRANCH   6   7
ENDBRANCH   5   6
BRANCH   5  11
HETATM   11  N           1     -24.102  -5.430  -5.908  0.00  0.00    -0.066 N 
HETATM   12  H           1     -24.468  -5.817  -6.808  0.00  0.00     0.275 HD
HETATM   13  H           1     -24.069  -6.190  -5.192  0.00  0.00     0.275 HD
HETATM   14  H           1     -24.731  -4.664  -5.578  0.00  0.00     0.275 HD
ENDBRANCH   5  11
ENDBRANCH   3   5
BRANCH   2  15
HETATM   15  C           1     -23.549  -3.933  -9.740  0.00  0.00     0.185 C 
BRANCH  15  16
HETATM   16  C           1     -24.845  -3.254 -10.111  0.00  0.00     0.196 C 
HETATM   17  O           1     -25.268  -3.314 -11.285  0.00  0.00    -0.646 OA
HETATM   18  O           1     -25.495  -2.632  -9.243  0.00  0.00    -0.646 OA
ENDBRANCH  15  16
BRANCH  15  19
HETATM   19  C           1     -23.272  -5.067 -10.719  0.00  0.00     0.036 C 
BRANCH  19  20
HETATM   20  C           1     -22.263  -4.604 -11.762  0.00  0.00     0.003 C 
BRANCH  20  21
HETATM   21 Se           1     -20.506  -4.436 -10.937  0.00  0.00     0.000 Se
HETATM   22  C           1     -20.415  -2.499 -11.141  0.00  0.00     0.000 C 
ENDBRANCH  20  21
ENDBRANCH  19  20
ENDBRANCH  15  19
ENDBRANCH   2  15
TORSDOF 10
ENDMDL
MODEL 8
REMARK VINA RESULT:      -5.0     10.163     12.069
REMARK  10 active torsions:
REMARK  status: ('A' for Active; 'I' for Inactive)
REMARK    1  A    between atoms: C_6  and  C_21 
REMARK    2  A    between atoms: N_9  and  C_21 
REMARK       I    between atoms: N_9  and  C_10 
REMARK    3  A    between atoms: C_10  and  C_11 
REMARK    4  A    between atoms: C_11  and  C_12 
REMARK    5  A    between atoms: C_11  and  N_20 
REMARK    6  A    between atoms: C_12  and  C_13 
REMARK    7  A    between atoms: C_13  and  C_19 
REMARK    8  A    between atoms: Se_14  and  C_16 
REMARK    9  A    between atoms: C_16  and  C_22 
REMARK   10  A    between atoms: C_21  and  C_22 
ROOT
HETATM    1  H           1     -27.880  -8.146 -18.574  0.00  0.00     0.163 HD
HETATM    2  N           1     -27.991  -7.258 -19.050  0.00  0.00    -0.345 N 
HETATM    3  C           1     -28.763  -6.276 -18.490  0.00  0.00     0.249 C 
HETATM    4  O           1     -28.896  -5.216 -19.057  0.00  0.00    -0.271 OA
ENDROOT
BRANCH   3   5
HETATM    5  C           1     -29.446  -6.514 -17.166  0.00  0.00     0.275 C 
BRANCH   5   6
HETATM    6  C           1     -29.974  -5.193 -16.622  0.00  0.00     0.053 C 
BRANCH   6   7
HETATM    7  C           1     -31.450  -5.053 -16.970  0.00  0.00     0.115 C 
BRANCH   7   8
HETATM    8  C           1     -31.764  -3.607 -17.263  0.00  0.00     0.172 C 
HETATM    9  O           1     -30.840  -2.805 -17.515  0.00  0.00    -0.648 OA
HETATM   10  O           1     -32.950  -3.211 -17.253  0.00  0.00    -0.648 OA
ENDBRANCH   7   8
ENDBRANCH   6   7
ENDBRANCH   5   6
BRANCH   5  11
HETATM   11  N           1     -28.464  -7.098 -16.195  0.00  0.00    -0.066 N 
HETATM   12  H           1     -27.494  -6.982 -16.568  0.00  0.00     0.275 HD
HETATM   13  H           1     -28.545  -6.603 -15.279  0.00  0.00     0.275 HD
HETATM   14  H           1     -28.667  -8.115 -16.063  0.00  0.00     0.275 HD
ENDBRANCH   5  11
ENDBRANCH   3   5
BRANCH   2  15
HETATM   15  C           1     -27.334  -7.028 -20.321  0.00  0.00     0.185 C 
BRANCH  15  16
HETATM   16  C           1     -27.215  -8.334 -21.067  0.00  0.00     0.196 C 
HETATM   17  O           1     -28.214  -9.073 -21.196  0.00  0.00    -0.646 OA
HETATM   18  O           1     -26.118  -8.677 -21.558  0.00  0.00    -0.646 OA
ENDBRANCH  15  16
BRANCH  15  19
HETATM   19  C           1     -25.943  -6.455 -20.076  0.00  0.00     0.036 C 
BRANCH  19  20
HETATM   20  C           1     -25.639  -6.479 -18.584  0.00  0.00     0.003 C 
BRANCH  20  21
HETATM   21 Se           1     -23.843  -7.179 -18.297  0.00  0.00     0.000 Se
HETATM   22  C           1     -24.211  -7.840 -16.500  0.00  0.00     0.000 C 
ENDBRANCH  20  21
ENDBRANCH  19  20
ENDBRANCH  15  19
ENDBRANCH   2  15
TORSDOF 10
ENDMDL
MODEL 9
REMARK VINA RESULT:      -4.8     15.025     17.443
REMARK  10 active torsions:
REMARK  status: ('A' for Active; 'I' for Inactive)
REMARK    1  A    between atoms: C_6  and  C_21 
REMARK    2  A    between atoms: N_9  and  C_21 
REMARK       I    between atoms: N_9  and  C_10 
REMARK    3  A    between atoms: C_10  and  C_11 
REMARK    4  A    between atoms: C_11  and  C_12 
REMARK    5  A    between atoms: C_11  and  N_20 
REMARK    6  A    between atoms: C_12  and  C_13 
REMARK    7  A    between atoms: C_13  and  C_19 
REMARK    8  A    between atoms: Se_14  and  C_16 
REMARK    9  A    between atoms: C_16  and  C_22 
REMARK   10  A    between atoms: C_21  and  C_22 
ROOT
HETATM    1  H           1     -20.017  -6.211  -3.177  0.00  0.00     0.163 HD
HETATM    2  N           1     -20.824  -6.766  -3.435  0.00  0.00    -0.345 N 
HETATM    3  C           1     -21.291  -6.734  -4.721  0.00  0.00     0.249 C 
HETATM    4  O           1     -22.254  -7.397  -5.031  0.00  0.00    -0.271 OA
ENDROOT
BRANCH   3   5
HETATM    5  C           1     -20.605  -5.873  -5.753  0.00  0.00     0.275 C 
BRANCH   5   6
HETATM    6  C           1     -21.643  -5.025  -6.478  0.00  0.00     0.053 C 
BRANCH   6   7
HETATM    7  C           1     -20.956  -4.183  -7.544  0.00  0.00     0.115 C 
BRANCH   7   8
HETATM    8  C           1     -21.863  -4.050  -8.743  0.00  0.00     0.172 C 
HETATM    9  O           1     -23.102  -4.010  -8.588  0.00  0.00    -0.648 OA
HETATM   10  O           1     -21.374  -3.980  -9.891  0.00  0.00    -0.648 OA
ENDBRANCH   7   8
ENDBRANCH   6   7
ENDBRANCH   5   6
BRANCH   5  11
HETATM   11  N           1     -19.897  -6.749  -6.743  0.00  0.00    -0.066 N 
HETATM   12  H           1     -20.490  -7.583  -6.958  0.00  0.00     0.275 HD
HETATM   13  H           1     -19.722  -6.211  -7.621  0.00  0.00     0.275 HD
HETATM   14  H           1     -18.986  -7.065  -6.339  0.00  0.00     0.275 HD
ENDBRANCH   5  11
ENDBRANCH   3   5
BRANCH   2  15
HETATM   15  C           1     -21.483  -7.594  -2.444  0.00  0.00     0.185 C 
BRANCH  15  16
HETATM   16  C           1     -22.273  -6.718  -1.504  0.00  0.00     0.196 C 
HETATM   17  O           1     -22.365  -5.491  -1.721  0.00  0.00    -0.646 OA
HETATM   18  O           1     -22.838  -7.219  -0.508  0.00  0.00    -0.646 OA
ENDBRANCH  15  16
BRANCH  15  19
HETATM   19  C           1     -20.435  -8.370  -1.655  0.00  0.00     0.036 C 
BRANCH  19  20
HETATM   20  C           1     -20.345  -9.792  -2.193  0.00  0.00     0.003 C 
BRANCH  20  21
HETATM   21 Se           1     -21.939 -10.787  -1.673  0.00  0.00     0.000 Se
HETATM   22  C           1     -21.662 -10.549   0.242  0.00  0.00     0.000 C 
ENDBRANCH  20  21
ENDBRANCH  19  20
ENDBRANCH  15  19
ENDBRANCH   2  15
TORSDOF 10
ENDMDL
