MODEL 1
REMARK VINA RESULT:      -5.9      0.000      0.000
REMARK  8 active torsions:
REMARK  status: ('A' for Active; 'I' for Inactive)
REMARK    1  A    between atoms: C_2  and  C_3 
REMARK    2  A    between atoms: C_2  and  N_6 
REMARK       I    between atoms: N_6  and  C_7 
REMARK    3  A    between atoms: C_7  and  C_8 
REMARK    4  A    between atoms: C_8  and  C_9 
REMARK    5  A    between atoms: C_8  and  N_15 
REMARK    6  A    between atoms: C_9  and  O_10 
REMARK    7  A    between atoms: O_10  and  P_11 
REMARK    8  A    between atoms: P_11  and  O_12 
ROOT
HETATM    1  C           1     -35.558  -0.795 -11.402  0.00  0.00     0.298 C 
ENDROOT
BRANCH   1   2
HETATM    2  C           1     -36.280  -0.473 -12.687  0.00  0.00     0.251 C 
HETATM    3  N           1     -35.567  -0.157 -13.812  0.00  0.00    -0.345 N 
HETATM    4  H           1     -34.556  -0.139 -13.782  0.00  0.00     0.163 HD
HETATM    5  O           1     -37.487  -0.494 -12.723  0.00  0.00    -0.271 OA
BRANCH   3   6
HETATM    6  C           1     -36.262   0.153 -15.048  0.00  0.00     0.181 C 
HETATM    7  C           1     -35.792   1.505 -15.568  0.00  0.00     0.043 C 
BRANCH   6   8
HETATM    8  C           1     -35.962  -0.913 -16.072  0.00  0.00     0.196 C 
HETATM    9  O           1     -36.490  -0.858 -17.204  0.00  0.00    -0.646 OA
HETATM   10  O           1     -35.186  -1.851 -15.789  0.00  0.00    -0.646 OA
ENDBRANCH   6   8
ENDBRANCH   3   6
ENDBRANCH   1   2
BRANCH   1  11
HETATM   11  C           1     -35.528  -2.304 -11.201  0.00  0.00     0.224 C 
BRANCH  11  12
HETATM   12  O           1     -35.395  -2.940 -12.442  0.00  0.00    -0.287 OA
BRANCH  12  13
HETATM   13  P           1     -34.149  -3.956 -12.589  0.00  0.00     0.406 P 
HETATM   14  O           1     -34.555  -5.305 -12.136  0.00  0.00    -0.624 OA
HETATM   15  O           1     -33.020  -3.475 -11.762  0.00  0.00    -0.624 OA
BRANCH  13  16
HETATM   16  O           1     -33.690  -4.025 -14.136  0.00  0.00    -0.300 OA
HETATM   17  H           1     -34.001  -3.223 -14.520  0.00  0.00     0.223 HD
ENDBRANCH  13  16
ENDBRANCH  12  13
ENDBRANCH  11  12
ENDBRANCH   1  11
BRANCH   1  18
HETATM   18  N           1     -36.273  -0.152 -10.252  0.00  0.00    -0.064 N 
HETATM   19  H           1     -36.331   0.879 -10.409  0.00  0.00     0.275 HD
HETATM   20  H           1     -37.237  -0.547 -10.176  0.00  0.00     0.275 HD
HETATM   21  H           1     -35.749  -0.339  -9.367  0.00  0.00     0.275 HD
ENDBRANCH   1  18
TORSDOF 8
ENDMDL
MODEL 2
REMARK VINA RESULT:      -5.7      2.678      4.528
REMARK  8 active torsions:
REMARK  status: ('A' for Active; 'I' for Inactive)
REMARK    1  A    between atoms: C_2  and  C_3 
REMARK    2  A    between atoms: C_2  and  N_6 
REMARK       I    between atoms: N_6  and  C_7 
REMARK    3  A    between atoms: C_7  and  C_8 
REMARK    4  A    between atoms: C_8  and  C_9 
REMARK    5  A    between atoms: C_8  and  N_15 
REMARK    6  A    between atoms: C_9  and  O_10 
REMARK    7  A    between atoms: O_10  and  P_11 
REMARK    8  A    between atoms: P_11  and  O_12 
ROOT
HETATM    1  C           1     -36.505  -0.855 -10.443  0.00  0.00     0.298 C 
ENDROOT
BRANCH   1   2
HETATM    2  C           1     -35.304  -1.749 -10.630  0.00  0.00     0.251 C 
HETATM    3  N           1     -35.387  -2.844 -11.448  0.00  0.00    -0.345 N 
HETATM    4  H           1     -36.253  -3.053 -11.927  0.00  0.00     0.163 HD
HETATM    5  O           1     -34.270  -1.500 -10.057  0.00  0.00    -0.271 OA
BRANCH   3   6
HETATM    6  C           1     -34.233  -3.704 -11.627  0.00  0.00     0.181 C 
HETATM    7  C           1     -34.213  -4.761 -10.531  0.00  0.00     0.043 C 
BRANCH   6   8
HETATM    8  C           1     -34.314  -4.377 -12.975  0.00  0.00     0.196 C 
HETATM    9  O           1     -33.597  -3.978 -13.918  0.00  0.00    -0.646 OA
HETATM   10  O           1     -35.099  -5.335 -13.149  0.00  0.00    -0.646 OA
ENDBRANCH   6   8
ENDBRANCH   3   6
ENDBRANCH   1   2
BRANCH   1  11
HETATM   11  C           1     -36.838  -0.170 -11.762  0.00  0.00     0.224 C 
BRANCH  11  12
HETATM   12  O           1     -35.659   0.293 -12.361  0.00  0.00    -0.287 OA
BRANCH  12  13
HETATM   13  P           1     -35.539   0.072 -13.955  0.00  0.00     0.406 P 
HETATM   14  O           1     -35.460  -1.377 -14.248  0.00  0.00    -0.624 OA
HETATM   15  O           1     -34.321   0.745 -14.457  0.00  0.00    -0.624 OA
BRANCH  13  16
HETATM   16  O           1     -36.838   0.696 -14.685  0.00  0.00    -0.300 OA
HETATM   17  H           1     -37.404   0.970 -13.984  0.00  0.00     0.223 HD
ENDBRANCH  13  16
ENDBRANCH  12  13
ENDBRANCH  11  12
ENDBRANCH   1  11
BRANCH   1  18
HETATM   18  N           1     -36.198   0.184  -9.405  0.00  0.00    -0.064 N 
HETATM   19  H           1     -37.003   0.266  -8.745  0.00  0.00     0.275 HD
HETATM   20  H           1     -35.341  -0.094  -8.877  0.00  0.00     0.275 HD
HETATM   21  H           1     -36.036   1.105  -9.872  0.00  0.00     0.275 HD
ENDBRANCH   1  18
TORSDOF 8
ENDMDL
MODEL 3
REMARK VINA RESULT:      -5.7      2.367      4.890
REMARK  8 active torsions:
REMARK  status: ('A' for Active; 'I' for Inactive)
REMARK    1  A    between atoms: C_2  and  C_3 
REMARK    2  A    between atoms: C_2  and  N_6 
REMARK       I    between atoms: N_6  and  C_7 
REMARK    3  A    between atoms: C_7  and  C_8 
REMARK    4  A    between atoms: C_8  and  C_9 
REMARK    5  A    between atoms: C_8  and  N_15 
REMARK    6  A    between atoms: C_9  and  O_10 
REMARK    7  A    between atoms: O_10  and  P_11 
REMARK    8  A    between atoms: P_11  and  O_12 
ROOT
HETATM    1  C           1     -36.080  -0.026 -12.386  0.00  0.00     0.298 C 
ENDROOT
BRANCH   1   2
HETATM    2  C           1     -35.797  -1.481 -12.099  0.00  0.00     0.251 C 
HETATM    3  N           1     -34.810  -2.134 -12.788  0.00  0.00    -0.345 N 
HETATM    4  H           1     -34.271  -1.642 -13.488  0.00  0.00     0.163 HD
HETATM    5  O           1     -36.441  -2.068 -11.263  0.00  0.00    -0.271 OA
BRANCH   3   6
HETATM    6  C           1     -34.538  -3.532 -12.513  0.00  0.00     0.181 C 
HETATM    7  C           1     -33.876  -4.168 -13.728  0.00  0.00     0.043 C 
BRANCH   6   8
HETATM    8  C           1     -33.617  -3.639 -11.323  0.00  0.00     0.196 C 
HETATM    9  O           1     -32.604  -2.909 -11.248  0.00  0.00    -0.646 OA
HETATM   10  O           1     -33.865  -4.458 -10.411  0.00  0.00    -0.646 OA
ENDBRANCH   6   8
ENDBRANCH   3   6
ENDBRANCH   1   2
BRANCH   1  11
HETATM   11  C           1     -37.256   0.082 -13.348  0.00  0.00     0.224 C 
BRANCH  11  12
HETATM   12  O           1     -37.112  -0.864 -14.372  0.00  0.00    -0.287 OA
BRANCH  12  13
HETATM   13  P           1     -36.430  -0.334 -15.736  0.00  0.00     0.406 P 
HETATM   14  O           1     -37.193  -0.841 -16.898  0.00  0.00    -0.624 OA
HETATM   15  O           1     -35.034  -0.819 -15.810  0.00  0.00    -0.624 OA
BRANCH  13  16
HETATM   16  O           1     -36.440   1.281 -15.751  0.00  0.00    -0.300 OA
HETATM   17  H           1     -37.252   1.525 -15.340  0.00  0.00     0.223 HD
ENDBRANCH  13  16
ENDBRANCH  12  13
ENDBRANCH  11  12
ENDBRANCH   1  11
BRANCH   1  18
HETATM   18  N           1     -34.869   0.607 -13.004  0.00  0.00    -0.064 N 
HETATM   19  H           1     -34.922   0.520 -14.043  0.00  0.00     0.275 HD
HETATM   20  H           1     -34.831   1.617 -12.740  0.00  0.00     0.275 HD
HETATM   21  H           1     -34.009   0.124 -12.658  0.00  0.00     0.275 HD
ENDBRANCH   1  18
TORSDOF 8
ENDMDL
MODEL 4
REMARK VINA RESULT:      -5.4     13.819     16.139
REMARK  8 active torsions:
REMARK  status: ('A' for Active; 'I' for Inactive)
REMARK    1  A    between atoms: C_2  and  C_3 
REMARK    2  A    between atoms: C_2  and  N_6 
REMARK       I    between atoms: N_6  and  C_7 
REMARK    3  A    between atoms: C_7  and  C_8 
REMARK    4  A    between atoms: C_8  and  C_9 
REMARK    5  A    between atoms: C_8  and  N_15 
REMARK    6  A    between atoms: C_9  and  O_10 
REMARK    7  A    between atoms: O_10  and  P_11 
REMARK    8  A    between atoms: P_11  and  O_12 
ROOT
HETATM    1  C           1     -21.602  -3.932  -7.345  0.00  0.00     0.298 C 
ENDROOT
BRANCH   1   2
HETATM    2  C           1     -20.982  -4.828  -6.300  0.00  0.00     0.251 C 
HETATM    3  N           1     -21.779  -5.626  -5.524  0.00  0.00    -0.345 N 
HETATM    4  H           1     -22.783  -5.616  -5.651  0.00  0.00     0.163 HD
HETATM    5  O           1     -19.785  -4.840  -6.148  0.00  0.00    -0.271 OA
BRANCH   3   6
HETATM    6  C           1     -21.184  -6.487  -4.519  0.00  0.00     0.181 C 
HETATM    7  C           1     -21.839  -6.219  -3.171  0.00  0.00     0.043 C 
BRANCH   6   8
HETATM    8  C           1     -21.396  -7.930  -4.906  0.00  0.00     0.196 C 
HETATM    9  O           1     -21.720  -8.768  -4.037  0.00  0.00    -0.646 OA
HETATM   10  O           1     -21.247  -8.287  -6.095  0.00  0.00    -0.646 OA
ENDBRANCH   6   8
ENDBRANCH   3   6
ENDBRANCH   1   2
BRANCH   1  11
HETATM   11  C           1     -22.773  -4.652  -8.001  0.00  0.00     0.224 C 
BRANCH  11  12
HETATM   12  O           1     -23.612  -3.716  -8.619  0.00  0.00    -0.287 OA
BRANCH  12  13
HETATM   13  P           1     -23.793  -3.871 -10.216  0.00  0.00     0.406 P 
HETATM   14  O           1     -25.022  -3.168 -10.645  0.00  0.00    -0.624 OA
HETATM   15  O           1     -23.897  -5.306 -10.564  0.00  0.00    -0.624 OA
BRANCH  13  16
HETATM   16  O           1     -22.517  -3.227 -10.968  0.00  0.00    -0.300 OA
HETATM   17  H           1     -22.786  -2.355 -11.204  0.00  0.00     0.223 HD
ENDBRANCH  13  16
ENDBRANCH  12  13
ENDBRANCH  11  12
ENDBRANCH   1  11
BRANCH   1  18
HETATM   18  N           1     -20.577  -3.596  -8.387  0.00  0.00    -0.064 N 
HETATM   19  H           1     -20.241  -2.617  -8.243  0.00  0.00     0.275 HD
HETATM   20  H           1     -19.770  -4.256  -8.308  0.00  0.00     0.275 HD
HETATM   21  H           1     -21.004  -3.681  -9.337  0.00  0.00     0.275 HD
ENDBRANCH   1  18
TORSDOF 8
ENDMDL
MODEL 5
REMARK VINA RESULT:      -5.3     13.698     16.035
REMARK  8 active torsions:
REMARK  status: ('A' for Active; 'I' for Inactive)
REMARK    1  A    between atoms: C_2  and  C_3 
REMARK    2  A    between atoms: C_2  and  N_6 
REMARK       I    between atoms: N_6  and  C_7 
REMARK    3  A    between atoms: C_7  and  C_8 
REMARK    4  A    between atoms: C_8  and  C_9 
REMARK    5  A    between atoms: C_8  and  N_15 
REMARK    6  A    between atoms: C_9  and  O_10 
REMARK    7  A    between atoms: O_10  and  P_11 
REMARK    8  A    between atoms: P_11  and  O_12 
ROOT
HETATM    1  C           1     -22.321  -4.422  -7.536  0.00  0.00     0.298 C 
ENDROOT
BRANCH   1   2
HETATM    2  C           1     -21.446  -5.220  -6.600  0.00  0.00     0.251 C 
HETATM    3  N           1     -21.988  -5.804  -5.487  0.00  0.00    -0.345 N 
HETATM    4  H           1     -22.976  -5.701  -5.291  0.00  0.00     0.163 HD
HETATM    5  O           1     -20.268  -5.344  -6.834  0.00  0.00    -0.271 OA
BRANCH   3   6
HETATM    6  C           1     -21.147  -6.571  -4.588  0.00  0.00     0.181 C 
HETATM    7  C           1     -21.489  -6.216  -3.147  0.00  0.00     0.043 C 
BRANCH   6   8
HETATM    8  C           1     -21.384  -8.044  -4.813  0.00  0.00     0.196 C 
HETATM    9  O           1     -21.174  -8.546  -5.939  0.00  0.00    -0.646 OA
HETATM   10  O           1     -21.790  -8.763  -3.874  0.00  0.00    -0.646 OA
ENDBRANCH   6   8
ENDBRANCH   3   6
ENDBRANCH   1   2
BRANCH   1  11
HETATM   11  C           1     -22.167  -4.955  -8.954  0.00  0.00     0.224 C 
BRANCH  11  12
HETATM   12  O           1     -23.419  -4.983  -9.583  0.00  0.00    -0.287 OA
BRANCH  12  13
HETATM   13  P           1     -23.594  -4.006 -10.857  0.00  0.00     0.406 P 
HETATM   14  O           1     -22.510  -2.999 -10.860  0.00  0.00    -0.624 OA
HETATM   15  O           1     -24.904  -3.322 -10.778  0.00  0.00    -0.624 OA
BRANCH  13  16
HETATM   16  O           1     -23.522  -4.875 -12.216  0.00  0.00    -0.300 OA
HETATM   17  H           1     -22.951  -5.597 -12.015  0.00  0.00     0.223 HD
ENDBRANCH  13  16
ENDBRANCH  12  13
ENDBRANCH  11  12
ENDBRANCH   1  11
BRANCH   1  18
HETATM   18  N           1     -21.911  -2.980  -7.496  0.00  0.00    -0.064 N 
HETATM   19  H           1     -21.115  -2.862  -6.830  0.00  0.00     0.275 HD
HETATM   20  H           1     -21.613  -2.677  -8.451  0.00  0.00     0.275 HD
HETATM   21  H           1     -22.718  -2.397  -7.181  0.00  0.00     0.275 HD
ENDBRANCH   1  18
TORSDOF 8
ENDMDL
MODEL 6
REMARK VINA RESULT:      -5.3     25.154     26.084
REMARK  8 active torsions:
REMARK  status: ('A' for Active; 'I' for Inactive)
REMARK    1  A    between atoms: C_2  and  C_3 
REMARK    2  A    between atoms: C_2  and  N_6 
REMARK       I    between atoms: N_6  and  C_7 
REMARK    3  A    between atoms: C_7  and  C_8 
REMARK    4  A    between atoms: C_8  and  C_9 
REMARK    5  A    between atoms: C_8  and  N_15 
REMARK    6  A    between atoms: C_9  and  O_10 
REMARK    7  A    between atoms: O_10  and  P_11 
REMARK    8  A    between atoms: P_11  and  O_12 
ROOT
HETATM    1  C           1     -10.190   5.638 -19.684  0.00  0.00     0.298 C 
ENDROOT
BRANCH   1   2
HETATM    2  C           1     -10.475   7.114 -19.820  0.00  0.00     0.251 C 
HETATM    3  N           1     -10.896   7.623 -21.019  0.00  0.00    -0.345 N 
HETATM    4  H           1     -11.016   7.009 -21.815  0.00  0.00     0.163 HD
HETATM    5  O           1     -10.331   7.847 -18.870  0.00  0.00    -0.271 OA
BRANCH   3   6
HETATM    6  C           1     -11.169   9.041 -21.150  0.00  0.00     0.181 C 
HETATM    7  C           1     -10.671   9.531 -22.503  0.00  0.00     0.043 C 
BRANCH   6   8
HETATM    8  C           1     -12.656   9.277 -21.044  0.00  0.00     0.196 C 
HETATM    9  O           1     -13.142   9.737 -19.988  0.00  0.00    -0.646 OA
HETATM   10  O           1     -13.401   9.013 -22.013  0.00  0.00    -0.646 OA
ENDBRANCH   6   8
ENDBRANCH   3   6
ENDBRANCH   1   2
BRANCH   1  11
HETATM   11  C           1     -11.494   4.889 -19.447  0.00  0.00     0.224 C 
BRANCH  11  12
HETATM   12  O           1     -12.572   5.778 -19.554  0.00  0.00    -0.287 OA
BRANCH  12  13
HETATM   13  P           1     -13.855   5.242 -20.374  0.00  0.00     0.406 P 
HETATM   14  O           1     -15.067   5.373 -19.536  0.00  0.00    -0.624 OA
HETATM   15  O           1     -13.653   3.821 -20.733  0.00  0.00    -0.624 OA
BRANCH  13  16
HETATM   16  O           1     -14.037   6.116 -21.721  0.00  0.00    -0.300 OA
HETATM   17  H           1     -13.190   6.107 -22.134  0.00  0.00     0.223 HD
ENDBRANCH  13  16
ENDBRANCH  12  13
ENDBRANCH  11  12
ENDBRANCH   1  11
BRANCH   1  18
HETATM   18  N           1      -9.266   5.412 -18.525  0.00  0.00    -0.064 N 
HETATM   19  H           1      -9.827   5.252 -17.658  0.00  0.00     0.275 HD
HETATM   20  H           1      -8.670   4.574 -18.713  0.00  0.00     0.275 HD
HETATM   21  H           1      -8.657   6.251 -18.396  0.00  0.00     0.275 HD
ENDBRANCH   1  18
TORSDOF 8
ENDMDL
MODEL 7
REMARK VINA RESULT:      -5.2     14.034     15.541
REMARK  8 active torsions:
REMARK  status: ('A' for Active; 'I' for Inactive)
REMARK    1  A    between atoms: C_2  and  C_3 
REMARK    2  A    between atoms: C_2  and  N_6 
REMARK       I    between atoms: N_6  and  C_7 
REMARK    3  A    between atoms: C_7  and  C_8 
REMARK    4  A    between atoms: C_8  and  C_9 
REMARK    5  A    between atoms: C_8  and  N_15 
REMARK    6  A    between atoms: C_9  and  O_10 
REMARK    7  A    between atoms: O_10  and  P_11 
REMARK    8  A    between atoms: P_11  and  O_12 
ROOT
HETATM    1  C           1     -21.228  -5.928  -7.019  0.00  0.00     0.298 C 
ENDROOT
BRANCH   1   2
HETATM    2  C           1     -21.709  -4.703  -7.758  0.00  0.00     0.251 C 
HETATM    3  N           1     -22.219  -4.824  -9.023  0.00  0.00    -0.345 N 
HETATM    4  H           1     -22.273  -5.733  -9.463  0.00  0.00     0.163 HD
HETATM    5  O           1     -21.645  -3.617  -7.233  0.00  0.00    -0.271 OA
BRANCH   3   6
HETATM    6  C           1     -22.682  -3.646  -9.733  0.00  0.00     0.181 C 
HETATM    7  C           1     -21.811  -3.421 -10.962  0.00  0.00     0.043 C 
BRANCH   6   8
HETATM    8  C           1     -24.114  -3.849 -10.160  0.00  0.00     0.196 C 
HETATM    9  O           1     -24.694  -4.929  -9.913  0.00  0.00    -0.646 OA
HETATM   10  O           1     -24.722  -2.937 -10.762  0.00  0.00    -0.646 OA
ENDBRANCH   6   8
ENDBRANCH   3   6
ENDBRANCH   1   2
BRANCH   1  11
HETATM   11  C           1     -21.265  -5.665  -5.520  0.00  0.00     0.224 C 
BRANCH  11  12
HETATM   12  O           1     -21.998  -6.675  -4.884  0.00  0.00    -0.287 OA
BRANCH  12  13
HETATM   13  P           1     -21.134  -7.813  -4.134  0.00  0.00     0.406 P 
HETATM   14  O           1     -21.866  -9.099  -4.179  0.00  0.00    -0.624 OA
HETATM   15  O           1     -20.915  -7.418  -2.725  0.00  0.00    -0.624 OA
BRANCH  13  16
HETATM   16  O           1     -19.708  -7.982  -4.873  0.00  0.00    -0.300 OA
HETATM   17  H           1     -19.530  -8.907  -4.852  0.00  0.00     0.223 HD
ENDBRANCH  13  16
ENDBRANCH  12  13
ENDBRANCH  11  12
ENDBRANCH   1  11
BRANCH   1  18
HETATM   18  N           1     -19.822  -6.243  -7.437  0.00  0.00    -0.064 N 
HETATM   19  H           1     -19.382  -5.391  -7.850  0.00  0.00     0.275 HD
HETATM   20  H           1     -19.271  -6.549  -6.603  0.00  0.00     0.275 HD
HETATM   21  H           1     -19.832  -7.009  -8.147  0.00  0.00     0.275 HD
ENDBRANCH   1  18
TORSDOF 8
ENDMDL
MODEL 8
REMARK VINA RESULT:      -5.1     24.742     25.765
REMARK  8 active torsions:
REMARK  status: ('A' for Active; 'I' for Inactive)
REMARK    1  A    between atoms: C_2  and  C_3 
REMARK    2  A    between atoms: C_2  and  N_6 
REMARK       I    between atoms: N_6  and  C_7 
REMARK    3  A    between atoms: C_7  and  C_8 
REMARK    4  A    between atoms: C_8  and  C_9 
REMARK    5  A    between atoms: C_8  and  N_15 
REMARK    6  A    between atoms: C_9  and  O_10 
REMARK    7  A    between atoms: O_10  and  P_11 
REMARK    8  A    between atoms: P_11  and  O_12 
ROOT
HETATM    1  C           1     -10.607   6.625 -20.424  0.00  0.00     0.298 C 
ENDROOT
BRANCH   1   2
HETATM    2  C           1     -10.955   7.934 -19.758  0.00  0.00     0.251 C 
HETATM    3  N           1     -12.048   8.644 -20.175  0.00  0.00    -0.345 N 
HETATM    4  H           1     -12.622   8.292 -20.930  0.00  0.00     0.163 HD
HETATM    5  O           1     -10.269   8.354 -18.857  0.00  0.00    -0.271 OA
BRANCH   3   6
HETATM    6  C           1     -12.382   9.902 -19.535  0.00  0.00     0.181 C 
HETATM    7  C           1     -12.814  10.910 -20.592  0.00  0.00     0.043 C 
BRANCH   6   8
HETATM    8  C           1     -13.510   9.683 -18.557  0.00  0.00     0.196 C 
HETATM    9  O           1     -14.016  10.656 -17.957  0.00  0.00    -0.646 OA
HETATM   10  O           1     -13.940   8.528 -18.347  0.00  0.00    -0.646 OA
ENDBRANCH   6   8
ENDBRANCH   3   6
ENDBRANCH   1   2
BRANCH   1  11
HETATM   11  C           1     -11.314   5.484 -19.704  0.00  0.00     0.224 C 
BRANCH  11  12
HETATM   12  O           1     -12.633   5.858 -19.416  0.00  0.00    -0.287 OA
BRANCH  12  13
HETATM   13  P           1     -13.775   5.213 -20.358  0.00  0.00     0.406 P 
HETATM   14  O           1     -13.393   3.830 -20.720  0.00  0.00    -0.624 OA
HETATM   15  O           1     -13.917   6.024 -21.587  0.00  0.00    -0.624 OA
BRANCH  13  16
HETATM   16  O           1     -15.180   5.191 -19.563  0.00  0.00    -0.300 OA
HETATM   17  H           1     -15.536   6.056 -19.670  0.00  0.00     0.223 HD
ENDBRANCH  13  16
ENDBRANCH  12  13
ENDBRANCH  11  12
ENDBRANCH   1  11
BRANCH   1  18
HETATM   18  N           1      -9.123   6.411 -20.362  0.00  0.00    -0.064 N 
HETATM   19  H           1      -8.857   6.093 -19.404  0.00  0.00     0.275 HD
HETATM   20  H           1      -8.847   5.684 -21.060  0.00  0.00     0.275 HD
HETATM   21  H           1      -8.633   7.308 -20.580  0.00  0.00     0.275 HD
ENDBRANCH   1  18
TORSDOF 8
ENDMDL
MODEL 9
REMARK VINA RESULT:      -4.9     25.597     26.655
REMARK  8 active torsions:
REMARK  status: ('A' for Active; 'I' for Inactive)
REMARK    1  A    between atoms: C_2  and  C_3 
REMARK    2  A    between atoms: C_2  and  N_6 
REMARK       I    between atoms: N_6  and  C_7 
REMARK    3  A    between atoms: C_7  and  C_8 
REMARK    4  A    between atoms: C_8  and  C_9 
REMARK    5  A    between atoms: C_8  and  N_15 
REMARK    6  A    between atoms: C_9  and  O_10 
REMARK    7  A    between atoms: O_10  and  P_11 
REMARK    8  A    between atoms: P_11  and  O_12 
ROOT
HETATM    1  C           1     -10.584   4.738 -21.212  0.00  0.00     0.298 C 
ENDROOT
BRANCH   1   2
HETATM    2  C           1      -9.911   5.935 -20.585  0.00  0.00     0.251 C 
HETATM    3  N           1     -10.084   7.180 -21.129  0.00  0.00    -0.345 N 
HETATM    4  H           1     -10.663   7.297 -21.951  0.00  0.00     0.163 HD
HETATM    5  O           1      -9.220   5.795 -19.605  0.00  0.00    -0.271 OA
BRANCH   3   6
HETATM    6  C           1      -9.438   8.330 -20.528  0.00  0.00     0.181 C 
HETATM    7  C           1      -8.979   9.284 -21.623  0.00  0.00     0.043 C 
BRANCH   6   8
HETATM    8  C           1     -10.414   9.037 -19.620  0.00  0.00     0.196 C 
HETATM    9  O           1     -10.294   8.944 -18.379  0.00  0.00    -0.646 OA
HETATM   10  O           1     -11.343   9.716 -20.109  0.00  0.00    -0.646 OA
ENDBRANCH   6   8
ENDBRANCH   3   6
ENDBRANCH   1   2
BRANCH   1  11
HETATM   11  C           1     -11.805   5.196 -21.998  0.00  0.00     0.224 C 
BRANCH  11  12
HETATM   12  O           1     -12.722   5.803 -21.128  0.00  0.00    -0.287 OA
BRANCH  12  13
HETATM   13  P           1     -14.164   5.088 -21.007  0.00  0.00     0.406 P 
HETATM   14  O           1     -14.010   3.629 -21.206  0.00  0.00    -0.624 OA
HETATM   15  O           1     -15.074   5.634 -22.037  0.00  0.00    -0.624 OA
BRANCH  13  16
HETATM   16  O           1     -14.782   5.367 -19.541  0.00  0.00    -0.300 OA
HETATM   17  H           1     -14.712   4.545 -19.085  0.00  0.00     0.223 HD
ENDBRANCH  13  16
ENDBRANCH  12  13
ENDBRANCH  11  12
ENDBRANCH   1  11
BRANCH   1  18
HETATM   18  N           1     -11.011   3.785 -20.135  0.00  0.00    -0.064 N 
HETATM   19  H           1     -10.169   3.331 -19.717  0.00  0.00     0.275 HD
HETATM   20  H           1     -11.530   4.307 -19.394  0.00  0.00     0.275 HD
HETATM   21  H           1     -11.634   3.053 -20.546  0.00  0.00     0.275 HD
ENDBRANCH   1  18
TORSDOF 8
ENDMDL
