MODEL 1
REMARK VINA RESULT:      -6.7      0.000      0.000
REMARK  6 active torsions:
REMARK  status: ('A' for Active; 'I' for Inactive)
REMARK    1  A    between atoms: N_2  and  C_13 
REMARK       I    between atoms: C_8  and  N_15 
REMARK    2  A    between atoms: C_8  and  C_13 
REMARK    3  A    between atoms: C_10  and  C_11 
REMARK    4  A    between atoms: C_11  and  C_13 
REMARK    5  A    between atoms: N_15  and  C_21 
REMARK    6  A    between atoms: C_20  and  C_21 
ROOT
HETATM    1  C           1     -34.511  -2.333 -11.905  0.00  0.00     0.280 C 
ENDROOT
BRANCH   1   2
HETATM    2  N           1     -33.829  -1.396 -10.954  0.00  0.00    -0.066 N 
HETATM    3  H           1     -32.962  -1.017 -11.399  0.00  0.00     0.275 HD
HETATM    4  H           1     -34.473  -0.608 -10.718  0.00  0.00     0.275 HD
HETATM    5  H           1     -33.576  -1.911 -10.080  0.00  0.00     0.275 HD
ENDBRANCH   1   2
BRANCH   1   6
HETATM    6  C           1     -35.414  -1.547 -12.823  0.00  0.00     0.249 C 
HETATM    7  N           1     -34.934  -1.070 -14.013  0.00  0.00    -0.345 N 
HETATM    8  H           1     -33.972  -1.245 -14.277  0.00  0.00     0.163 HD
HETATM    9  O           1     -36.562  -1.340 -12.509  0.00  0.00    -0.271 OA
BRANCH   7  10
HETATM   10  C           1     -35.802  -0.315 -14.896  0.00  0.00     0.181 C 
HETATM   11  C           1     -35.301   1.120 -14.994  0.00  0.00     0.043 C 
BRANCH  10  12
HETATM   12  C           1     -35.796  -0.945 -16.266  0.00  0.00     0.196 C 
HETATM   13  O           1     -36.756  -0.758 -17.044  0.00  0.00    -0.646 OA
HETATM   14  O           1     -34.831  -1.656 -16.623  0.00  0.00    -0.646 OA
ENDBRANCH  10  12
ENDBRANCH   7  10
ENDBRANCH   1   6
BRANCH   1  15
HETATM   15  C           1     -35.338  -3.342 -11.119  0.00  0.00     0.101 C 
BRANCH  15  16
HETATM   16  C           1     -34.602  -4.643 -11.045  0.00  0.00     0.028 A 
HETATM   17  N           1     -35.073  -5.771 -10.424  0.00  0.00    -0.355 N 
HETATM   18  C           1     -34.134  -6.674 -10.586  0.00  0.00     0.180 A 
ATOM     19  HN          1     -35.964  -5.884  -9.940  1.00  0.00     0.166 HD
HETATM   20  N           1     -33.074  -6.173 -11.287  0.00  0.00    -0.360 N 
HETATM   21  C           1     -33.360  -4.870 -11.588  0.00  0.00     0.114 A 
HETATM   22  H           1     -32.200  -6.693 -11.547  0.00  0.00     0.166 HD
ENDBRANCH  15  16
ENDBRANCH   1  15
TORSDOF 6
ENDMDL
MODEL 2
REMARK VINA RESULT:      -6.3      1.664      1.987
REMARK  6 active torsions:
REMARK  status: ('A' for Active; 'I' for Inactive)
REMARK    1  A    between atoms: N_2  and  C_13 
REMARK       I    between atoms: C_8  and  N_15 
REMARK    2  A    between atoms: C_8  and  C_13 
REMARK    3  A    between atoms: C_10  and  C_11 
REMARK    4  A    between atoms: C_11  and  C_13 
REMARK    5  A    between atoms: N_15  and  C_21 
REMARK    6  A    between atoms: C_20  and  C_21 
ROOT
HETATM    1  C           1     -35.501  -0.787 -11.651  0.00  0.00     0.280 C 
ENDROOT
BRANCH   1   2
HETATM    2  N           1     -36.055   0.076 -10.557  0.00  0.00    -0.066 N 
HETATM    3  H           1     -35.410   0.053  -9.734  0.00  0.00     0.275 HD
HETATM    4  H           1     -36.147   1.059 -10.900  0.00  0.00     0.275 HD
HETATM    5  H           1     -36.995  -0.282 -10.273  0.00  0.00     0.275 HD
ENDBRANCH   1   2
BRANCH   1   6
HETATM    6  C           1     -36.230  -0.494 -12.939  0.00  0.00     0.249 C 
HETATM    7  N           1     -35.581   0.142 -13.964  0.00  0.00    -0.345 N 
HETATM    8  H           1     -34.613   0.415 -13.856  0.00  0.00     0.163 HD
HETATM    9  O           1     -37.385  -0.822 -13.068  0.00  0.00    -0.271 OA
BRANCH   7  10
HETATM   10  C           1     -36.281   0.423 -15.202  0.00  0.00     0.181 C 
HETATM   11  C           1     -35.841   1.779 -15.737  0.00  0.00     0.043 C 
BRANCH  10  12
HETATM   12  C           1     -35.958  -0.647 -16.216  0.00  0.00     0.196 C 
HETATM   13  O           1     -34.896  -1.298 -16.119  0.00  0.00    -0.646 OA
HETATM   14  O           1     -36.751  -0.880 -17.153  0.00  0.00    -0.646 OA
ENDBRANCH  10  12
ENDBRANCH   7  10
ENDBRANCH   1   6
BRANCH   1  15
HETATM   15  C           1     -35.687  -2.253 -11.284  0.00  0.00     0.101 C 
BRANCH  15  16
HETATM   16  C           1     -34.525  -3.048 -11.794  0.00  0.00     0.028 A 
HETATM   17  N           1     -33.434  -3.400 -11.044  0.00  0.00    -0.355 N 
HETATM   18  C           1     -32.659  -4.081 -11.857  0.00  0.00     0.180 A 
ATOM     19  HN          1     -33.260  -3.181 -10.063  1.00  0.00     0.166 HD
HETATM   20  N           1     -33.209  -4.180 -13.104  0.00  0.00    -0.360 N 
HETATM   21  C           1     -34.407  -3.522 -13.078  0.00  0.00     0.114 A 
HETATM   22  H           1     -32.788  -4.673 -13.930  0.00  0.00     0.166 HD
ENDBRANCH  15  16
ENDBRANCH   1  15
TORSDOF 6
ENDMDL
MODEL 3
REMARK VINA RESULT:      -6.2     13.065     14.569
REMARK  6 active torsions:
REMARK  status: ('A' for Active; 'I' for Inactive)
REMARK    1  A    between atoms: N_2  and  C_13 
REMARK       I    between atoms: C_8  and  N_15 
REMARK    2  A    between atoms: C_8  and  C_13 
REMARK    3  A    between atoms: C_10  and  C_11 
REMARK    4  A    between atoms: C_11  and  C_13 
REMARK    5  A    between atoms: N_15  and  C_21 
REMARK    6  A    between atoms: C_20  and  C_21 
ROOT
HETATM    1  C           1     -21.166  -5.604  -6.867  0.00  0.00     0.280 C 
ENDROOT
BRANCH   1   2
HETATM    2  N           1     -19.971  -6.196  -7.552  0.00  0.00    -0.066 N 
HETATM    3  H           1     -20.071  -6.081  -8.587  0.00  0.00     0.275 HD
HETATM    4  H           1     -19.106  -5.707  -7.229  0.00  0.00     0.275 HD
HETATM    5  H           1     -19.904  -7.212  -7.318  0.00  0.00     0.275 HD
ENDBRANCH   1   2
BRANCH   1   6
HETATM    6  C           1     -21.699  -4.456  -7.689  0.00  0.00     0.249 C 
HETATM    7  N           1     -22.362  -4.702  -8.862  0.00  0.00    -0.345 N 
HETATM    8  H           1     -22.494  -5.655  -9.176  0.00  0.00     0.163 HD
HETATM    9  O           1     -21.542  -3.319  -7.313  0.00  0.00    -0.271 OA
BRANCH   7  10
HETATM   10  C           1     -22.874  -3.600  -9.652  0.00  0.00     0.181 C 
HETATM   11  C           1     -21.975  -3.382 -10.862  0.00  0.00     0.043 C 
BRANCH  10  12
HETATM   12  C           1     -24.273  -3.921 -10.115  0.00  0.00     0.196 C 
HETATM   13  O           1     -24.810  -4.999  -9.780  0.00  0.00    -0.646 OA
HETATM   14  O           1     -24.894  -3.111 -10.836  0.00  0.00    -0.646 OA
ENDBRANCH  10  12
ENDBRANCH   7  10
ENDBRANCH   1   6
BRANCH   1  15
HETATM   15  C           1     -20.762  -5.097  -5.489  0.00  0.00     0.101 C 
BRANCH  15  16
HETATM   16  C           1     -21.132  -6.114  -4.454  0.00  0.00     0.028 A 
HETATM   17  N           1     -21.445  -5.822  -3.152  0.00  0.00    -0.355 N 
HETATM   18  C           1     -21.703  -6.980  -2.590  0.00  0.00     0.180 A 
ATOM     19  HN          1     -21.471  -4.901  -2.714  1.00  0.00     0.166 HD
HETATM   20  N           1     -21.569  -8.008  -3.478  0.00  0.00    -0.360 N 
HETATM   21  C           1     -21.202  -7.468  -4.679  0.00  0.00     0.114 A 
HETATM   22  H           1     -21.720  -9.028  -3.276  0.00  0.00     0.166 HD
ENDBRANCH  15  16
ENDBRANCH   1  15
TORSDOF 6
ENDMDL
MODEL 4
REMARK VINA RESULT:      -6.2      9.034     10.530
REMARK  6 active torsions:
REMARK  status: ('A' for Active; 'I' for Inactive)
REMARK    1  A    between atoms: N_2  and  C_13 
REMARK       I    between atoms: C_8  and  N_15 
REMARK    2  A    between atoms: C_8  and  C_13 
REMARK    3  A    between atoms: C_10  and  C_11 
REMARK    4  A    between atoms: C_11  and  C_13 
REMARK    5  A    between atoms: N_15  and  C_21 
REMARK    6  A    between atoms: C_20  and  C_21 
ROOT
HETATM    1  C           1     -29.432  -6.684 -18.290  0.00  0.00     0.280 C 
ENDROOT
BRANCH   1   2
HETATM    2  N           1     -29.555  -8.173 -18.169  0.00  0.00    -0.066 N 
HETATM    3  H           1     -29.929  -8.416 -17.223  0.00  0.00     0.275 HD
HETATM    4  H           1     -30.206  -8.531 -18.904  0.00  0.00     0.275 HD
HETATM    5  H           1     -28.614  -8.612 -18.295  0.00  0.00     0.275 HD
ENDBRANCH   1   2
BRANCH   1   6
HETATM    6  C           1     -28.051  -6.332 -18.784  0.00  0.00     0.249 C 
HETATM    7  N           1     -27.391  -7.179 -19.635  0.00  0.00    -0.345 N 
HETATM    8  H           1     -27.832  -8.041 -19.932  0.00  0.00     0.163 HD
HETATM    9  O           1     -27.527  -5.303 -18.431  0.00  0.00    -0.271 OA
BRANCH   7  10
HETATM   10  C           1     -26.064  -6.841 -20.110  0.00  0.00     0.181 C 
HETATM   11  C           1     -25.088  -6.854 -18.941  0.00  0.00     0.043 C 
BRANCH  10  12
HETATM   12  C           1     -25.627  -7.852 -21.141  0.00  0.00     0.196 C 
HETATM   13  O           1     -24.451  -7.846 -21.564  0.00  0.00    -0.646 OA
HETATM   14  O           1     -26.443  -8.695 -21.574  0.00  0.00    -0.646 OA
ENDBRANCH  10  12
ENDBRANCH   7  10
ENDBRANCH   1   6
BRANCH   1  15
HETATM   15  C           1     -29.663  -6.044 -16.927  0.00  0.00     0.101 C 
BRANCH  15  16
HETATM   16  C           1     -30.766  -5.037 -17.028  0.00  0.00     0.028 A 
HETATM   17  N           1     -32.050  -5.242 -16.597  0.00  0.00    -0.355 N 
HETATM   18  C           1     -32.690  -4.128 -16.868  0.00  0.00     0.180 A 
ATOM     19  HN          1     -32.429  -6.082 -16.159  1.00  0.00     0.166 HD
HETATM   20  N           1     -31.868  -3.210 -17.458  0.00  0.00    -0.360 N 
HETATM   21  C           1     -30.629  -3.779 -17.567  0.00  0.00     0.114 A 
HETATM   22  H           1     -32.137  -2.245 -17.770  0.00  0.00     0.166 HD
ENDBRANCH  15  16
ENDBRANCH   1  15
TORSDOF 6
ENDMDL
MODEL 5
REMARK VINA RESULT:      -6.0     13.236     15.609
REMARK  6 active torsions:
REMARK  status: ('A' for Active; 'I' for Inactive)
REMARK    1  A    between atoms: N_2  and  C_13 
REMARK       I    between atoms: C_8  and  N_15 
REMARK    2  A    between atoms: C_8  and  C_13 
REMARK    3  A    between atoms: C_10  and  C_11 
REMARK    4  A    between atoms: C_11  and  C_13 
REMARK    5  A    between atoms: N_15  and  C_21 
REMARK    6  A    between atoms: C_20  and  C_21 
ROOT
HETATM    1  C           1     -21.684  -4.392  -7.185  0.00  0.00     0.280 C 
ENDROOT
BRANCH   1   2
HETATM    2  N           1     -20.241  -4.137  -6.869  0.00  0.00    -0.066 N 
HETATM    3  H           1     -19.835  -3.498  -7.590  0.00  0.00     0.275 HD
HETATM    4  H           1     -20.162  -3.694  -5.926  0.00  0.00     0.275 HD
HETATM    5  H           1     -19.718  -5.043  -6.872  0.00  0.00     0.275 HD
ENDBRANCH   1   2
BRANCH   1   6
HETATM    6  C           1     -22.239  -5.408  -6.216  0.00  0.00     0.249 C 
HETATM    7  N           1     -21.400  -6.305  -5.610  0.00  0.00    -0.345 N 
HETATM    8  H           1     -20.409  -6.287  -5.813  0.00  0.00     0.163 HD
HETATM    9  O           1     -23.421  -5.428  -5.974  0.00  0.00    -0.271 OA
BRANCH   7  10
HETATM   10  C           1     -21.933  -7.281  -4.679  0.00  0.00     0.181 C 
HETATM   11  C           1     -21.263  -8.628  -4.918  0.00  0.00     0.043 C 
BRANCH  10  12
HETATM   12  C           1     -21.660  -6.827  -3.266  0.00  0.00     0.196 C 
HETATM   13  O           1     -20.730  -7.344  -2.613  0.00  0.00    -0.646 OA
HETATM   14  O           1     -22.367  -5.935  -2.750  0.00  0.00    -0.646 OA
ENDBRANCH  10  12
ENDBRANCH   7  10
ENDBRANCH   1   6
BRANCH   1  15
HETATM   15  C           1     -21.806  -4.927  -8.606  0.00  0.00     0.101 C 
BRANCH  15  16
HETATM   16  C           1     -23.043  -4.374  -9.244  0.00  0.00     0.028 A 
HETATM   17  N           1     -23.972  -3.600  -8.600  0.00  0.00    -0.355 N 
HETATM   18  C           1     -24.886  -3.330  -9.503  0.00  0.00     0.180 A 
ATOM     19  HN          1     -23.957  -3.297  -7.625  1.00  0.00     0.166 HD
HETATM   20  N           1     -24.582  -3.901 -10.707  0.00  0.00    -0.360 N 
HETATM   21  C           1     -23.402  -4.575 -10.556  0.00  0.00     0.114 A 
HETATM   22  H           1     -25.151  -3.835 -11.587  0.00  0.00     0.166 HD
ENDBRANCH  15  16
ENDBRANCH   1  15
TORSDOF 6
ENDMDL
MODEL 6
REMARK VINA RESULT:      -5.9      2.997      5.410
REMARK  6 active torsions:
REMARK  status: ('A' for Active; 'I' for Inactive)
REMARK    1  A    between atoms: N_2  and  C_13 
REMARK       I    between atoms: C_8  and  N_15 
REMARK    2  A    between atoms: C_8  and  C_13 
REMARK    3  A    between atoms: C_10  and  C_11 
REMARK    4  A    between atoms: C_11  and  C_13 
REMARK    5  A    between atoms: N_15  and  C_21 
REMARK    6  A    between atoms: C_20  and  C_21 
ROOT
HETATM    1  C           1     -35.523  -0.206 -12.486  0.00  0.00     0.280 C 
ENDROOT
BRANCH   1   2
HETATM    2  N           1     -35.634   0.701 -13.675  0.00  0.00    -0.066 N 
HETATM    3  H           1     -35.687   1.694 -13.351  0.00  0.00     0.275 HD
HETATM    4  H           1     -34.795   0.578 -14.287  0.00  0.00     0.275 HD
HETATM    5  H           1     -36.496   0.463 -14.215  0.00  0.00     0.275 HD
ENDBRANCH   1   2
BRANCH   1   6
HETATM    6  C           1     -34.991  -1.548 -12.925  0.00  0.00     0.249 C 
HETATM    7  N           1     -34.367  -2.367 -12.022  0.00  0.00    -0.345 N 
HETATM    8  H           1     -34.263  -2.070 -11.060  0.00  0.00     0.163 HD
HETATM    9  O           1     -35.118  -1.901 -14.073  0.00  0.00    -0.271 OA
BRANCH   7  10
HETATM   10  C           1     -33.856  -3.656 -12.444  0.00  0.00     0.181 C 
HETATM   11  C           1     -32.522  -3.922 -11.762  0.00  0.00     0.043 C 
BRANCH  10  12
HETATM   12  C           1     -34.840  -4.735 -12.063  0.00  0.00     0.196 C 
HETATM   13  O           1     -35.250  -5.540 -12.926  0.00  0.00    -0.646 OA
HETATM   14  O           1     -35.245  -4.822 -10.883  0.00  0.00    -0.646 OA
ENDBRANCH  10  12
ENDBRANCH   7  10
ENDBRANCH   1   6
BRANCH   1  15
HETATM   15  C           1     -36.898  -0.386 -11.855  0.00  0.00     0.101 C 
BRANCH  15  16
HETATM   16  C           1     -36.842   0.008 -10.412  0.00  0.00     0.028 A 
HETATM   17  N           1     -37.482   1.094  -9.875  0.00  0.00    -0.355 N 
HETATM   18  C           1     -37.177   1.081  -8.598  0.00  0.00     0.180 A 
ATOM     19  HN          1     -38.070   1.770 -10.364  1.00  0.00     0.166 HD
HETATM   20  N           1     -36.364   0.027  -8.290  0.00  0.00    -0.360 N 
HETATM   21  C           1     -36.140  -0.671  -9.444  0.00  0.00     0.114 A 
HETATM   22  H           1     -35.981  -0.205  -7.340  0.00  0.00     0.166 HD
ENDBRANCH  15  16
ENDBRANCH   1  15
TORSDOF 6
ENDMDL
MODEL 7
REMARK VINA RESULT:      -5.7     14.340     16.545
REMARK  6 active torsions:
REMARK  status: ('A' for Active; 'I' for Inactive)
REMARK    1  A    between atoms: N_2  and  C_13 
REMARK       I    between atoms: C_8  and  N_15 
REMARK    2  A    between atoms: C_8  and  C_13 
REMARK    3  A    between atoms: C_10  and  C_11 
REMARK    4  A    between atoms: C_11  and  C_13 
REMARK    5  A    between atoms: N_15  and  C_21 
REMARK    6  A    between atoms: C_20  and  C_21 
ROOT
HETATM    1  C           1     -22.177  -5.067  -6.823  0.00  0.00     0.280 C 
ENDROOT
BRANCH   1   2
HETATM    2  N           1     -23.622  -4.847  -6.490  0.00  0.00    -0.066 N 
HETATM    3  H           1     -23.925  -3.913  -6.853  0.00  0.00     0.275 HD
HETATM    4  H           1     -24.201  -5.596  -6.932  0.00  0.00     0.275 HD
HETATM    5  H           1     -23.749  -4.876  -5.453  0.00  0.00     0.275 HD
ENDBRANCH   1   2
BRANCH   1   6
HETATM    6  C           1     -21.418  -5.409  -5.564  0.00  0.00     0.249 C 
HETATM    7  N           1     -22.033  -6.115  -4.565  0.00  0.00    -0.345 N 
HETATM    8  H           1     -22.996  -6.407  -4.671  0.00  0.00     0.163 HD
HETATM    9  O           1     -20.269  -5.062  -5.439  0.00  0.00    -0.271 OA
BRANCH   7  10
HETATM   10  C           1     -21.304  -6.444  -3.355  0.00  0.00     0.181 C 
HETATM   11  C           1     -22.175  -6.150  -2.142  0.00  0.00     0.043 C 
BRANCH  10  12
HETATM   12  C           1     -20.941  -7.908  -3.371  0.00  0.00     0.196 C 
HETATM   13  O           1     -21.578  -8.717  -2.663  0.00  0.00    -0.646 OA
HETATM   14  O           1     -20.001  -8.311  -4.089  0.00  0.00    -0.646 OA
ENDBRANCH  10  12
ENDBRANCH   7  10
ENDBRANCH   1   6
BRANCH   1  15
HETATM   15  C           1     -21.598  -3.799  -7.437  0.00  0.00     0.101 C 
BRANCH  15  16
HETATM   16  C           1     -21.392  -4.003  -8.905  0.00  0.00     0.028 A 
HETATM   17  N           1     -20.199  -4.352  -9.483  0.00  0.00    -0.355 N 
HETATM   18  C           1     -20.446  -4.427 -10.770  0.00  0.00     0.180 A 
ATOM     19  HN          1     -19.309  -4.519  -9.012  1.00  0.00     0.166 HD
HETATM   20  N           1     -21.752  -4.138 -11.046  0.00  0.00    -0.360 N 
HETATM   21  C           1     -22.372  -3.864  -9.859  0.00  0.00     0.114 A 
HETATM   22  H           1     -22.199  -4.130 -11.996  0.00  0.00     0.166 HD
ENDBRANCH  15  16
ENDBRANCH   1  15
TORSDOF 6
ENDMDL
MODEL 8
REMARK VINA RESULT:      -5.6      1.753      2.011
REMARK  6 active torsions:
REMARK  status: ('A' for Active; 'I' for Inactive)
REMARK    1  A    between atoms: N_2  and  C_13 
REMARK       I    between atoms: C_8  and  N_15 
REMARK    2  A    between atoms: C_8  and  C_13 
REMARK    3  A    between atoms: C_10  and  C_11 
REMARK    4  A    between atoms: C_11  and  C_13 
REMARK    5  A    between atoms: N_15  and  C_21 
REMARK    6  A    between atoms: C_20  and  C_21 
ROOT
HETATM    1  C           1     -34.550  -2.160 -11.585  0.00  0.00     0.280 C 
ENDROOT
BRANCH   1   2
HETATM    2  N           1     -35.652  -2.771 -10.772  0.00  0.00    -0.066 N 
HETATM    3  H           1     -35.323  -2.914  -9.790  0.00  0.00     0.275 HD
HETATM    4  H           1     -36.480  -2.133 -10.772  0.00  0.00     0.275 HD
HETATM    5  H           1     -35.922  -3.691 -11.188  0.00  0.00     0.275 HD
ENDBRANCH   1   2
BRANCH   1   6
HETATM    6  C           1     -35.085  -1.758 -12.937  0.00  0.00     0.249 C 
HETATM    7  N           1     -35.948  -0.700 -13.045  0.00  0.00    -0.345 N 
HETATM    8  H           1     -36.226  -0.188 -12.218  0.00  0.00     0.163 HD
HETATM    9  O           1     -34.753  -2.369 -13.924  0.00  0.00    -0.271 OA
BRANCH   7  10
HETATM   10  C           1     -36.463  -0.314 -14.345  0.00  0.00     0.181 C 
HETATM   11  C           1     -37.953  -0.021 -14.233  0.00  0.00     0.043 C 
BRANCH  10  12
HETATM   12  C           1     -35.742   0.921 -14.823  0.00  0.00     0.196 C 
HETATM   13  O           1     -36.019   1.414 -15.937  0.00  0.00    -0.646 OA
HETATM   14  O           1     -34.866   1.451 -14.105  0.00  0.00    -0.646 OA
ENDBRANCH  10  12
ENDBRANCH   7  10
ENDBRANCH   1   6
BRANCH   1  15
HETATM   15  C           1     -33.429  -3.176 -11.764  0.00  0.00     0.101 C 
BRANCH  15  16
HETATM   16  C           1     -33.962  -4.555 -11.532  0.00  0.00     0.028 A 
HETATM   17  N           1     -33.877  -5.234 -10.345  0.00  0.00    -0.355 N 
HETATM   18  C           1     -34.458  -6.391 -10.564  0.00  0.00     0.180 A 
ATOM     19  HN          1     -33.453  -4.910  -9.475  1.00  0.00     0.166 HD
HETATM   20  N           1     -34.915  -6.486 -11.848  0.00  0.00    -0.360 N 
HETATM   21  C           1     -34.604  -5.314 -12.481  0.00  0.00     0.114 A 
HETATM   22  H           1     -35.414  -7.307 -12.271  0.00  0.00     0.166 HD
ENDBRANCH  15  16
ENDBRANCH   1  15
TORSDOF 6
ENDMDL
MODEL 9
REMARK VINA RESULT:      -5.6      7.212      8.941
REMARK  6 active torsions:
REMARK  status: ('A' for Active; 'I' for Inactive)
REMARK    1  A    between atoms: N_2  and  C_13 
REMARK       I    between atoms: C_8  and  N_15 
REMARK    2  A    between atoms: C_8  and  C_13 
REMARK    3  A    between atoms: C_10  and  C_11 
REMARK    4  A    between atoms: C_11  and  C_13 
REMARK    5  A    between atoms: N_15  and  C_21 
REMARK    6  A    between atoms: C_20  and  C_21 
ROOT
HETATM    1  C           1     -29.954  -3.769 -17.094  0.00  0.00     0.280 C 
ENDROOT
BRANCH   1   2
HETATM    2  N           1     -29.043  -2.614 -17.387  0.00  0.00    -0.066 N 
HETATM    3  H           1     -29.167  -2.317 -18.382  0.00  0.00     0.275 HD
HETATM    4  H           1     -29.275  -1.816 -16.754  0.00  0.00     0.275 HD
HETATM    5  H           1     -28.051  -2.905 -17.230  0.00  0.00     0.275 HD
ENDBRANCH   1   2
BRANCH   1   6
HETATM    6  C           1     -29.200  -5.063 -17.277  0.00  0.00     0.249 C 
HETATM    7  N           1     -27.839  -5.090 -17.124  0.00  0.00    -0.345 N 
HETATM    8  H           1     -27.340  -4.242 -16.889  0.00  0.00     0.163 HD
HETATM    9  O           1     -29.796  -6.075 -17.556  0.00  0.00    -0.271 OA
BRANCH   7  10
HETATM   10  C           1     -27.115  -6.334 -17.300  0.00  0.00     0.181 C 
HETATM   11  C           1     -26.363  -6.301 -18.623  0.00  0.00     0.043 C 
BRANCH  10  12
HETATM   12  C           1     -26.132  -6.506 -16.168  0.00  0.00     0.196 C 
HETATM   13  O           1     -25.159  -5.730 -16.062  0.00  0.00    -0.646 OA
HETATM   14  O           1     -26.292  -7.426 -15.337  0.00  0.00    -0.646 OA
ENDBRANCH  10  12
ENDBRANCH   7  10
ENDBRANCH   1   6
BRANCH   1  15
HETATM   15  C           1     -31.141  -3.733 -18.047  0.00  0.00     0.101 C 
BRANCH  15  16
HETATM   16  C           1     -32.415  -3.748 -17.261  0.00  0.00     0.028 A 
HETATM   17  N           1     -33.465  -2.892 -17.463  0.00  0.00    -0.355 N 
HETATM   18  C           1     -34.370  -3.237 -16.576  0.00  0.00     0.180 A 
ATOM     19  HN          1     -33.530  -2.145 -18.155  1.00  0.00     0.166 HD
HETATM   20  N           1     -33.944  -4.284 -15.809  0.00  0.00    -0.360 N 
HETATM   21  C           1     -32.691  -4.623 -16.237  0.00  0.00     0.114 A 
HETATM   22  H           1     -34.481  -4.744 -15.033  0.00  0.00     0.166 HD
ENDBRANCH  15  16
ENDBRANCH   1  15
TORSDOF 6
ENDMDL
