MODEL 1
REMARK VINA RESULT:      -6.6      0.000      0.000
REMARK  13 active torsions:
REMARK  status: ('A' for Active; 'I' for Inactive)
REMARK    1  A    between atoms: C_7  and  C_8 
REMARK    2  A    between atoms: C_7  and  C_14 
REMARK    3  A    between atoms: C_8  and  C_9 
REMARK    4  A    between atoms: C_8  and  N_23 
REMARK       I    between atoms: C_9  and  N_26 
REMARK    5  A    between atoms: C_10  and  C_12 
REMARK    6  A    between atoms: C_12  and  C_20 
REMARK    7  A    between atoms: C_12  and  N_26 
REMARK    8  A    between atoms: C_13  and  C_14 
REMARK    9  A    between atoms: C_13  and  C_25 
REMARK   10  A    between atoms: P_18  and  O_19 
REMARK   11  A    between atoms: P_18  and  O_28 
REMARK   12  A    between atoms: O_19  and  C_20 
REMARK   13  A    between atoms: N_24  and  C_25 
ROOT
HETATM    1  C           1     -28.552  -6.298 -18.854  0.00  0.00     0.249 C 
HETATM    2  H           1     -27.801  -8.219 -19.024  0.00  0.00     0.163 HD
HETATM    3  O           1     -28.333  -5.128 -19.058  0.00  0.00    -0.271 OA
HETATM    4  N           1     -27.617  -7.239 -19.195  0.00  0.00    -0.343 N 
ENDROOT
BRANCH   1   5
HETATM    5  C           1     -29.855  -6.723 -18.222  0.00  0.00     0.274 C 
BRANCH   5   6
HETATM    6  C           1     -29.755  -6.588 -16.709  0.00  0.00     0.042 C 
BRANCH   6   7
HETATM    7  C           1     -30.169  -5.181 -16.296  0.00  0.00     0.004 C 
BRANCH   7   8
HETATM    8  C           1     -31.529  -4.855 -16.901  0.00  0.00     0.027 C 
BRANCH   8   9
HETATM    9  C           1     -31.456  -3.516 -17.624  0.00  0.00     0.229 C 
BRANCH   9  10
HETATM   10  N           1     -30.040  -3.023 -17.623  0.00  0.00    -0.079 N 
HETATM   11  H           1     -29.558  -3.354 -16.756  0.00  0.00     0.274 HD
HETATM   12  H           1     -30.034  -1.979 -17.647  0.00  0.00     0.274 HD
HETATM   13  H           1     -29.541  -3.395 -18.463  0.00  0.00     0.274 HD
ENDBRANCH   9  10
ENDBRANCH   8   9
ENDBRANCH   7   8
ENDBRANCH   6   7
ENDBRANCH   5   6
BRANCH   5  14
HETATM   14  N           1     -30.140  -8.151 -18.580  0.00  0.00    -0.067 N 
HETATM   15  H           1     -30.198  -8.246 -19.618  0.00  0.00     0.275 HD
HETATM   16  H           1     -31.050  -8.442 -18.153  0.00  0.00     0.275 HD
HETATM   17  H           1     -29.374  -8.761 -18.215  0.00  0.00     0.275 HD
ENDBRANCH   5  14
ENDBRANCH   1   5
BRANCH   4  18
HETATM   18  C           1     -26.365  -6.830 -19.802  0.00  0.00     0.210 C 
BRANCH  18  19
HETATM   19  C           1     -25.973  -7.827 -20.863  0.00  0.00     0.198 C 
HETATM   20  O           1     -24.774  -7.946 -21.197  0.00  0.00    -0.646 OA
HETATM   21  O           1     -26.847  -8.535 -21.409  0.00  0.00    -0.646 OA
ENDBRANCH  18  19
BRANCH  18  22
HETATM   22  C           1     -25.281  -6.771 -18.733  0.00  0.00     0.217 C 
BRANCH  22  23
HETATM   23  O           1     -25.802  -6.187 -17.570  0.00  0.00    -0.287 OA
BRANCH  23  24
HETATM   24  P           1     -25.330  -6.848 -16.173  0.00  0.00     0.406 P 
HETATM   25  O           1     -24.358  -7.931 -16.443  0.00  0.00    -0.624 OA
HETATM   26  O           1     -26.506  -7.406 -15.471  0.00  0.00    -0.624 OA
BRANCH  24  27
HETATM   27  O           1     -24.635  -5.720 -15.252  0.00  0.00    -0.300 OA
HETATM   28  H           1     -24.817  -5.982 -14.366  0.00  0.00     0.223 HD
ENDBRANCH  24  27
ENDBRANCH  23  24
ENDBRANCH  22  23
ENDBRANCH  18  22
ENDBRANCH   4  18
TORSDOF 13
ENDMDL
MODEL 2
REMARK VINA RESULT:      -6.4      3.039      6.465
REMARK  13 active torsions:
REMARK  status: ('A' for Active; 'I' for Inactive)
REMARK    1  A    between atoms: C_7  and  C_8 
REMARK    2  A    between atoms: C_7  and  C_14 
REMARK    3  A    between atoms: C_8  and  C_9 
REMARK    4  A    between atoms: C_8  and  N_23 
REMARK       I    between atoms: C_9  and  N_26 
REMARK    5  A    between atoms: C_10  and  C_12 
REMARK    6  A    between atoms: C_12  and  C_20 
REMARK    7  A    between atoms: C_12  and  N_26 
REMARK    8  A    between atoms: C_13  and  C_14 
REMARK    9  A    between atoms: C_13  and  C_25 
REMARK   10  A    between atoms: P_18  and  O_19 
REMARK   11  A    between atoms: P_18  and  O_28 
REMARK   12  A    between atoms: O_19  and  C_20 
REMARK   13  A    between atoms: N_24  and  C_25 
ROOT
HETATM    1  C           1     -25.433  -6.926 -18.954  0.00  0.00     0.249 C 
HETATM    2  H           1     -27.470  -6.865 -18.590  0.00  0.00     0.163 HD
HETATM    3  O           1     -24.341  -6.642 -18.523  0.00  0.00    -0.271 OA
HETATM    4  N           1     -26.555  -6.626 -18.229  0.00  0.00    -0.343 N 
ENDROOT
BRANCH   1   5
HETATM    5  C           1     -25.560  -7.611 -20.293  0.00  0.00     0.274 C 
BRANCH   5   6
HETATM    6  C           1     -24.914  -6.748 -21.369  0.00  0.00     0.042 C 
BRANCH   6   7
HETATM    7  C           1     -24.072  -7.627 -22.285  0.00  0.00     0.004 C 
BRANCH   7   8
HETATM    8  C           1     -23.085  -8.433 -21.451  0.00  0.00     0.027 C 
BRANCH   8   9
HETATM    9  C           1     -21.946  -8.917 -22.338  0.00  0.00     0.229 C 
BRANCH   9  10
HETATM   10  N           1     -22.287 -10.265 -22.899  0.00  0.00    -0.079 N 
HETATM   11  H           1     -23.241 -10.233 -23.325  0.00  0.00     0.274 HD
HETATM   12  H           1     -22.272 -10.976 -22.133  0.00  0.00     0.274 HD
HETATM   13  H           1     -21.587 -10.526 -23.630  0.00  0.00     0.274 HD
ENDBRANCH   9  10
ENDBRANCH   8   9
ENDBRANCH   7   8
ENDBRANCH   6   7
ENDBRANCH   5   6
BRANCH   5  14
HETATM   14  N           1     -27.011  -7.809 -20.616  0.00  0.00    -0.067 N 
HETATM   15  H           1     -27.581  -7.087 -20.120  0.00  0.00     0.275 HD
HETATM   16  H           1     -27.310  -8.762 -20.304  0.00  0.00     0.275 HD
HETATM   17  H           1     -27.154  -7.720 -21.647  0.00  0.00     0.275 HD
ENDBRANCH   5  14
ENDBRANCH   1   5
BRANCH   4  18
HETATM   18  C           1     -26.432  -5.969 -16.942  0.00  0.00     0.210 C 
BRANCH  18  19
HETATM   19  C           1     -26.422  -7.006 -15.847  0.00  0.00     0.198 C 
HETATM   20  O           1     -25.336  -7.432 -15.399  0.00  0.00    -0.646 OA
HETATM   21  O           1     -27.501  -7.439 -15.386  0.00  0.00    -0.646 OA
ENDBRANCH  18  19
BRANCH  18  22
HETATM   22  C           1     -27.613  -5.028 -16.741  0.00  0.00     0.217 C 
BRANCH  22  23
HETATM   23  O           1     -28.629  -5.349 -17.652  0.00  0.00    -0.287 OA
BRANCH  23  24
HETATM   24  P           1     -30.096  -5.594 -17.022  0.00  0.00     0.406 P 
HETATM   25  O           1     -30.614  -6.906 -17.472  0.00  0.00    -0.624 OA
HETATM   26  O           1     -31.010  -4.522 -17.472  0.00  0.00    -0.624 OA
BRANCH  24  27
HETATM   27  O           1     -29.998  -5.580 -15.411  0.00  0.00    -0.300 OA
HETATM   28  H           1     -30.421  -6.373 -15.133  0.00  0.00     0.223 HD
ENDBRANCH  24  27
ENDBRANCH  23  24
ENDBRANCH  22  23
ENDBRANCH  18  22
ENDBRANCH   4  18
TORSDOF 13
ENDMDL
MODEL 3
REMARK VINA RESULT:      -6.4      2.909      6.175
REMARK  13 active torsions:
REMARK  status: ('A' for Active; 'I' for Inactive)
REMARK    1  A    between atoms: C_7  and  C_8 
REMARK    2  A    between atoms: C_7  and  C_14 
REMARK    3  A    between atoms: C_8  and  C_9 
REMARK    4  A    between atoms: C_8  and  N_23 
REMARK       I    between atoms: C_9  and  N_26 
REMARK    5  A    between atoms: C_10  and  C_12 
REMARK    6  A    between atoms: C_12  and  C_20 
REMARK    7  A    between atoms: C_12  and  N_26 
REMARK    8  A    between atoms: C_13  and  C_14 
REMARK    9  A    between atoms: C_13  and  C_25 
REMARK   10  A    between atoms: P_18  and  O_19 
REMARK   11  A    between atoms: P_18  and  O_28 
REMARK   12  A    between atoms: O_19  and  C_20 
REMARK   13  A    between atoms: N_24  and  C_25 
ROOT
HETATM    1  C           1     -26.379  -6.873 -16.539  0.00  0.00     0.249 C 
HETATM    2  H           1     -27.688  -6.140 -17.965  0.00  0.00     0.163 HD
HETATM    3  O           1     -26.288  -7.387 -15.450  0.00  0.00    -0.271 OA
HETATM    4  N           1     -27.612  -6.570 -17.052  0.00  0.00    -0.343 N 
ENDROOT
BRANCH   1   5
HETATM    5  C           1     -25.134  -6.565 -17.334  0.00  0.00     0.274 C 
BRANCH   5   6
HETATM    6  C           1     -25.458  -6.606 -18.821  0.00  0.00     0.042 C 
BRANCH   6   7
HETATM    7  C           1     -24.352  -7.350 -19.561  0.00  0.00     0.004 C 
BRANCH   7   8
HETATM    8  C           1     -24.870  -7.809 -20.918  0.00  0.00     0.027 C 
BRANCH   8   9
HETATM    9  C           1     -23.692  -8.159 -21.819  0.00  0.00     0.229 C 
BRANCH   9  10
HETATM   10  N           1     -22.699  -8.977 -21.049  0.00  0.00    -0.079 N 
HETATM   11  H           1     -23.050  -9.957 -20.961  0.00  0.00     0.274 HD
HETATM   12  H           1     -22.572  -8.565 -20.097  0.00  0.00     0.274 HD
HETATM   13  H           1     -21.783  -8.978 -21.553  0.00  0.00     0.274 HD
ENDBRANCH   9  10
ENDBRANCH   8   9
ENDBRANCH   7   8
ENDBRANCH   6   7
ENDBRANCH   5   6
BRANCH   5  14
HETATM   14  N           1     -24.078  -7.584 -17.023  0.00  0.00    -0.067 N 
HETATM   15  H           1     -24.388  -8.171 -16.216  0.00  0.00     0.275 HD
HETATM   16  H           1     -23.186  -7.097 -16.777  0.00  0.00     0.275 HD
HETATM   17  H           1     -23.924  -8.191 -17.859  0.00  0.00     0.275 HD
ENDBRANCH   5  14
ENDBRANCH   1   5
BRANCH   4  18
HETATM   18  C           1     -28.808  -6.866 -16.288  0.00  0.00     0.210 C 
BRANCH  18  19
HETATM   19  C           1     -29.838  -7.498 -17.191  0.00  0.00     0.198 C 
HETATM   20  O           1     -29.523  -8.466 -17.917  0.00  0.00    -0.646 OA
HETATM   21  O           1     -31.006  -7.053 -17.214  0.00  0.00    -0.646 OA
ENDBRANCH  18  19
BRANCH  18  22
HETATM   22  C           1     -29.368  -5.575 -15.704  0.00  0.00     0.217 C 
BRANCH  22  23
HETATM   23  O           1     -28.782  -4.477 -16.350  0.00  0.00    -0.287 OA
BRANCH  23  24
HETATM   24  P           1     -29.707  -3.716 -17.434  0.00  0.00     0.406 P 
HETATM   25  O           1     -31.126  -3.805 -17.022  0.00  0.00    -0.624 OA
HETATM   26  O           1     -29.538  -4.352 -18.758  0.00  0.00    -0.624 OA
BRANCH  24  27
HETATM   27  O           1     -29.270  -2.165 -17.520  0.00  0.00    -0.300 OA
HETATM   28  H           1     -28.905  -1.966 -16.675  0.00  0.00     0.223 HD
ENDBRANCH  24  27
ENDBRANCH  23  24
ENDBRANCH  22  23
ENDBRANCH  18  22
ENDBRANCH   4  18
TORSDOF 13
ENDMDL
MODEL 4
REMARK VINA RESULT:      -6.0     12.729     14.300
REMARK  13 active torsions:
REMARK  status: ('A' for Active; 'I' for Inactive)
REMARK    1  A    between atoms: C_7  and  C_8 
REMARK    2  A    between atoms: C_7  and  C_14 
REMARK    3  A    between atoms: C_8  and  C_9 
REMARK    4  A    between atoms: C_8  and  N_23 
REMARK       I    between atoms: C_9  and  N_26 
REMARK    5  A    between atoms: C_10  and  C_12 
REMARK    6  A    between atoms: C_12  and  C_20 
REMARK    7  A    between atoms: C_12  and  N_26 
REMARK    8  A    between atoms: C_13  and  C_14 
REMARK    9  A    between atoms: C_13  and  C_25 
REMARK   10  A    between atoms: P_18  and  O_19 
REMARK   11  A    between atoms: P_18  and  O_28 
REMARK   12  A    between atoms: O_19  and  C_20 
REMARK   13  A    between atoms: N_24  and  C_25 
ROOT
HETATM    1  C           1     -21.610  -6.707  -5.851  0.00  0.00     0.249 C 
HETATM    2  H           1     -22.440  -4.811  -5.831  0.00  0.00     0.163 HD
HETATM    3  O           1     -20.958  -7.496  -6.492  0.00  0.00    -0.271 OA
HETATM    4  N           1     -21.894  -5.472  -6.369  0.00  0.00    -0.343 N 
ENDROOT
BRANCH   1   5
HETATM    5  C           1     -22.113  -7.084  -4.479  0.00  0.00     0.274 C 
BRANCH   5   6
HETATM    6  C           1     -21.456  -6.192  -3.434  0.00  0.00     0.042 C 
BRANCH   6   7
HETATM    7  C           1     -21.170  -7.007  -2.179  0.00  0.00     0.004 C 
BRANCH   7   8
HETATM    8  C           1     -22.275  -6.770  -1.157  0.00  0.00     0.027 C 
BRANCH   8   9
HETATM    9  C           1     -22.240  -7.873  -0.106  0.00  0.00     0.229 C 
BRANCH   9  10
HETATM   10  N           1     -23.564  -7.939   0.594  0.00  0.00    -0.079 N 
HETATM   11  H           1     -23.537  -7.335   1.447  0.00  0.00     0.274 HD
HETATM   12  H           1     -23.761  -8.927   0.873  0.00  0.00     0.274 HD
HETATM   13  H           1     -24.316  -7.602  -0.050  0.00  0.00     0.274 HD
ENDBRANCH   9  10
ENDBRANCH   8   9
ENDBRANCH   7   8
ENDBRANCH   6   7
ENDBRANCH   5   6
BRANCH   5  14
HETATM   14  N           1     -21.773  -8.517  -4.198  0.00  0.00    -0.067 N 
HETATM   15  H           1     -20.906  -8.562  -3.617  0.00  0.00     0.275 HD
HETATM   16  H           1     -21.613  -9.021  -5.101  0.00  0.00     0.275 HD
HETATM   17  H           1     -22.563  -8.968  -3.684  0.00  0.00     0.275 HD
ENDBRANCH   5  14
ENDBRANCH   1   5
BRANCH   4  18
HETATM   18  C           1     -21.410  -5.110  -7.687  0.00  0.00     0.210 C 
BRANCH  18  19
HETATM   19  C           1     -20.105  -4.364  -7.556  0.00  0.00     0.198 C 
HETATM   20  O           1     -19.691  -3.657  -8.501  0.00  0.00    -0.646 OA
HETATM   21  O           1     -19.437  -4.453  -6.503  0.00  0.00    -0.646 OA
ENDBRANCH  18  19
BRANCH  18  22
HETATM   22  C           1     -22.437  -4.221  -8.376  0.00  0.00     0.217 C 
BRANCH  22  23
HETATM   23  O           1     -22.928  -4.871  -9.517  0.00  0.00    -0.287 OA
BRANCH  23  24
HETATM   24  P           1     -23.213  -3.932 -10.800  0.00  0.00     0.406 P 
HETATM   25  O           1     -22.054  -3.039 -11.027  0.00  0.00    -0.624 OA
HETATM   26  O           1     -24.422  -3.116 -10.554  0.00  0.00    -0.624 OA
BRANCH  24  27
HETATM   27  O           1     -23.442  -4.856 -12.104  0.00  0.00    -0.300 OA
HETATM   28  H           1     -23.869  -4.297 -12.729  0.00  0.00     0.223 HD
ENDBRANCH  24  27
ENDBRANCH  23  24
ENDBRANCH  22  23
ENDBRANCH  18  22
ENDBRANCH   4  18
TORSDOF 13
ENDMDL
MODEL 5
REMARK VINA RESULT:      -5.6     13.194     14.983
REMARK  13 active torsions:
REMARK  status: ('A' for Active; 'I' for Inactive)
REMARK    1  A    between atoms: C_7  and  C_8 
REMARK    2  A    between atoms: C_7  and  C_14 
REMARK    3  A    between atoms: C_8  and  C_9 
REMARK    4  A    between atoms: C_8  and  N_23 
REMARK       I    between atoms: C_9  and  N_26 
REMARK    5  A    between atoms: C_10  and  C_12 
REMARK    6  A    between atoms: C_12  and  C_20 
REMARK    7  A    between atoms: C_12  and  N_26 
REMARK    8  A    between atoms: C_13  and  C_14 
REMARK    9  A    between atoms: C_13  and  C_25 
REMARK   10  A    between atoms: P_18  and  O_19 
REMARK   11  A    between atoms: P_18  and  O_28 
REMARK   12  A    between atoms: O_19  and  C_20 
REMARK   13  A    between atoms: N_24  and  C_25 
ROOT
HETATM    1  C           1     -21.346  -6.052  -5.239  0.00  0.00     0.249 C 
HETATM    2  H           1     -19.845  -6.948  -4.129  0.00  0.00     0.163 HD
HETATM    3  O           1     -22.540  -5.942  -5.382  0.00  0.00    -0.271 OA
HETATM    4  N           1     -20.846  -6.856  -4.249  0.00  0.00    -0.343 N 
ENDROOT
BRANCH   1   5
HETATM    5  C           1     -20.404  -5.306  -6.152  0.00  0.00     0.274 C 
BRANCH   5   6
HETATM    6  C           1     -21.168  -4.213  -6.887  0.00  0.00     0.042 C 
BRANCH   6   7
HETATM    7  C           1     -20.778  -4.224  -8.360  0.00  0.00     0.004 C 
BRANCH   7   8
HETATM    8  C           1     -22.036  -4.191  -9.218  0.00  0.00     0.027 C 
BRANCH   8   9
HETATM    9  C           1     -23.266  -4.191  -8.319  0.00  0.00     0.229 C 
BRANCH   9  10
HETATM   10  N           1     -24.355  -3.385  -8.961  0.00  0.00    -0.079 N 
HETATM   11  H           1     -24.065  -2.382  -9.007  0.00  0.00     0.274 HD
HETATM   12  H           1     -25.230  -3.469  -8.395  0.00  0.00     0.274 HD
HETATM   13  H           1     -24.530  -3.743  -9.927  0.00  0.00     0.274 HD
ENDBRANCH   9  10
ENDBRANCH   8   9
ENDBRANCH   7   8
ENDBRANCH   6   7
ENDBRANCH   5   6
BRANCH   5  14
HETATM   14  N           1     -19.813  -6.259  -7.147  0.00  0.00    -0.067 N 
HETATM   15  H           1     -19.366  -7.057  -6.642  0.00  0.00     0.275 HD
HETATM   16  H           1     -19.092  -5.763  -7.720  0.00  0.00     0.275 HD
HETATM   17  H           1     -20.567  -6.620  -7.774  0.00  0.00     0.275 HD
ENDBRANCH   5  14
ENDBRANCH   1   5
BRANCH   4  18
HETATM   18  C           1     -21.751  -7.573  -3.372  0.00  0.00     0.210 C 
BRANCH  18  19
HETATM   19  C           1     -21.801  -6.885  -2.030  0.00  0.00     0.198 C 
HETATM   20  O           1     -21.478  -7.507  -0.995  0.00  0.00    -0.646 OA
HETATM   21  O           1     -22.165  -5.691  -1.953  0.00  0.00    -0.646 OA
ENDBRANCH  18  19
BRANCH  18  22
HETATM   22  C           1     -21.254  -9.002  -3.192  0.00  0.00     0.217 C 
BRANCH  22  23
HETATM   23  O           1     -21.693  -9.788  -4.267  0.00  0.00    -0.287 OA
BRANCH  23  24
HETATM   24  P           1     -20.540 -10.347  -5.252  0.00  0.00     0.406 P 
HETATM   25  O           1     -21.164 -10.929  -6.462  0.00  0.00    -0.624 OA
HETATM   26  O           1     -19.757 -11.388  -4.552  0.00  0.00    -0.624 OA
BRANCH  24  27
HETATM   27  O           1     -19.565  -9.134  -5.682  0.00  0.00    -0.300 OA
HETATM   28  H           1     -18.770  -9.549  -5.965  0.00  0.00     0.223 HD
ENDBRANCH  24  27
ENDBRANCH  23  24
ENDBRANCH  22  23
ENDBRANCH  18  22
ENDBRANCH   4  18
TORSDOF 13
ENDMDL
MODEL 6
REMARK VINA RESULT:      -5.4     13.358     14.962
REMARK  13 active torsions:
REMARK  status: ('A' for Active; 'I' for Inactive)
REMARK    1  A    between atoms: C_7  and  C_8 
REMARK    2  A    between atoms: C_7  and  C_14 
REMARK    3  A    between atoms: C_8  and  C_9 
REMARK    4  A    between atoms: C_8  and  N_23 
REMARK       I    between atoms: C_9  and  N_26 
REMARK    5  A    between atoms: C_10  and  C_12 
REMARK    6  A    between atoms: C_12  and  C_20 
REMARK    7  A    between atoms: C_12  and  N_26 
REMARK    8  A    between atoms: C_13  and  C_14 
REMARK    9  A    between atoms: C_13  and  C_25 
REMARK   10  A    between atoms: P_18  and  O_19 
REMARK   11  A    between atoms: P_18  and  O_28 
REMARK   12  A    between atoms: O_19  and  C_20 
REMARK   13  A    between atoms: N_24  and  C_25 
ROOT
HETATM    1  C           1     -21.469  -5.436  -5.827  0.00  0.00     0.249 C 
HETATM    2  H           1     -22.532  -7.165  -5.419  0.00  0.00     0.163 HD
HETATM    3  O           1     -20.533  -4.748  -5.497  0.00  0.00    -0.271 OA
HETATM    4  N           1     -21.748  -6.588  -5.141  0.00  0.00    -0.343 N 
ENDROOT
BRANCH   1   5
HETATM    5  C           1     -22.330  -5.027  -6.996  0.00  0.00     0.274 C 
BRANCH   5   6
HETATM    6  C           1     -21.676  -3.862  -7.727  0.00  0.00     0.042 C 
BRANCH   6   7
HETATM    7  C           1     -22.511  -3.495  -8.947  0.00  0.00     0.004 C 
BRANCH   7   8
HETATM    8  C           1     -22.481  -4.644  -9.947  0.00  0.00     0.027 C 
BRANCH   8   9
HETATM    9  C           1     -23.809  -4.705 -10.691  0.00  0.00     0.229 C 
BRANCH   9  10
HETATM   10  N           1     -24.933  -4.463  -9.729  0.00  0.00    -0.079 N 
HETATM   11  H           1     -25.545  -3.699 -10.095  0.00  0.00     0.274 HD
HETATM   12  H           1     -24.544  -4.183  -8.801  0.00  0.00     0.274 HD
HETATM   13  H           1     -25.495  -5.339  -9.621  0.00  0.00     0.274 HD
ENDBRANCH   9  10
ENDBRANCH   8   9
ENDBRANCH   7   8
ENDBRANCH   6   7
ENDBRANCH   5   6
BRANCH   5  14
HETATM   14  N           1     -23.682  -4.610  -6.498  0.00  0.00    -0.067 N 
HETATM   15  H           1     -23.599  -4.258  -5.518  0.00  0.00     0.275 HD
HETATM   16  H           1     -24.330  -5.431  -6.519  0.00  0.00     0.275 HD
HETATM   17  H           1     -24.060  -3.852  -7.111  0.00  0.00     0.275 HD
ENDBRANCH   5  14
ENDBRANCH   1   5
BRANCH   4  18
HETATM   18  C           1     -20.920  -6.982  -4.018  0.00  0.00     0.210 C 
BRANCH  18  19
HETATM   19  C           1     -20.568  -8.444  -4.142  0.00  0.00     0.198 C 
HETATM   20  O           1     -19.374  -8.807  -4.073  0.00  0.00    -0.646 OA
HETATM   21  O           1     -21.470  -9.292  -4.313  0.00  0.00    -0.646 OA
ENDBRANCH  18  19
BRANCH  18  22
HETATM   22  C           1     -21.684  -6.751  -2.720  0.00  0.00     0.217 C 
BRANCH  22  23
HETATM   23  O           1     -21.022  -7.397  -1.667  0.00  0.00    -0.287 OA
BRANCH  23  24
HETATM   24  P           1     -21.967  -8.113  -0.569  0.00  0.00     0.406 P 
HETATM   25  O           1     -22.460  -9.401  -1.106  0.00  0.00    -0.624 OA
HETATM   26  O           1     -23.118  -7.235  -0.263  0.00  0.00    -0.624 OA
BRANCH  24  27
HETATM   27  O           1     -21.119  -8.381   0.778  0.00  0.00    -0.300 OA
HETATM   28  H           1     -21.234  -9.297   0.961  0.00  0.00     0.223 HD
ENDBRANCH  24  27
ENDBRANCH  23  24
ENDBRANCH  22  23
ENDBRANCH  18  22
ENDBRANCH   4  18
TORSDOF 13
ENDMDL
MODEL 7
REMARK VINA RESULT:      -5.4      2.530      5.972
REMARK  13 active torsions:
REMARK  status: ('A' for Active; 'I' for Inactive)
REMARK    1  A    between atoms: C_7  and  C_8 
REMARK    2  A    between atoms: C_7  and  C_14 
REMARK    3  A    between atoms: C_8  and  C_9 
REMARK    4  A    between atoms: C_8  and  N_23 
REMARK       I    between atoms: C_9  and  N_26 
REMARK    5  A    between atoms: C_10  and  C_12 
REMARK    6  A    between atoms: C_12  and  C_20 
REMARK    7  A    between atoms: C_12  and  N_26 
REMARK    8  A    between atoms: C_13  and  C_14 
REMARK    9  A    between atoms: C_13  and  C_25 
REMARK   10  A    between atoms: P_18  and  O_19 
REMARK   11  A    between atoms: P_18  and  O_28 
REMARK   12  A    between atoms: O_19  and  C_20 
REMARK   13  A    between atoms: N_24  and  C_25 
ROOT
HETATM    1  C           1     -27.831  -6.231 -19.233  0.00  0.00     0.249 C 
HETATM    2  H           1     -27.624  -4.599 -17.976  0.00  0.00     0.163 HD
HETATM    3  O           1     -28.616  -6.991 -19.747  0.00  0.00    -0.271 OA
HETATM    4  N           1     -28.282  -5.237 -18.406  0.00  0.00    -0.343 N 
ENDROOT
BRANCH   1   5
HETATM    5  C           1     -26.354  -6.376 -19.503  0.00  0.00     0.274 C 
BRANCH   5   6
HETATM    6  C           1     -26.137  -7.390 -20.618  0.00  0.00     0.042 C 
BRANCH   6   7
HETATM    7  C           1     -24.653  -7.719 -20.723  0.00  0.00     0.004 C 
BRANCH   7   8
HETATM    8  C           1     -24.272  -7.880 -22.189  0.00  0.00     0.027 C 
BRANCH   8   9
HETATM    9  C           1     -22.813  -8.306 -22.291  0.00  0.00     0.229 C 
BRANCH   9  10
HETATM   10  N           1     -22.501  -9.286 -21.200  0.00  0.00    -0.079 N 
HETATM   11  H           1     -22.566 -10.259 -21.577  0.00  0.00     0.274 HD
HETATM   12  H           1     -23.186  -9.170 -20.420  0.00  0.00     0.274 HD
HETATM   13  H           1     -21.533  -9.114 -20.843  0.00  0.00     0.274 HD
ENDBRANCH   9  10
ENDBRANCH   8   9
ENDBRANCH   7   8
ENDBRANCH   6   7
ENDBRANCH   5   6
BRANCH   5  14
HETATM   14  N           1     -25.663  -6.846 -18.258  0.00  0.00    -0.067 N 
HETATM   15  H           1     -25.427  -7.860 -18.352  0.00  0.00     0.275 HD
HETATM   16  H           1     -26.296  -6.711 -17.436  0.00  0.00     0.275 HD
HETATM   17  H           1     -24.787  -6.295 -18.116  0.00  0.00     0.275 HD
ENDBRANCH   5  14
ENDBRANCH   1   5
BRANCH   4  18
HETATM   18  C           1     -29.702  -5.097 -18.148  0.00  0.00     0.210 C 
BRANCH  18  19
HETATM   19  C           1     -29.995  -3.687 -17.701  0.00  0.00     0.198 C 
HETATM   20  O           1     -31.173  -3.269 -17.679  0.00  0.00    -0.646 OA
HETATM   21  O           1     -29.059  -2.934 -17.353  0.00  0.00    -0.646 OA
ENDBRANCH  18  19
BRANCH  18  22
HETATM   22  C           1     -30.115  -6.073 -17.053  0.00  0.00     0.217 C 
BRANCH  22  23
HETATM   23  O           1     -29.041  -6.923 -16.754  0.00  0.00    -0.287 OA
BRANCH  23  24
HETATM   24  P           1     -28.191  -6.553 -15.431  0.00  0.00     0.406 P 
HETATM   25  O           1     -27.581  -7.782 -14.876  0.00  0.00    -0.624 OA
HETATM   26  O           1     -29.089  -5.949 -14.423  0.00  0.00    -0.624 OA
BRANCH  24  27
HETATM   27  O           1     -27.027  -5.503 -15.816  0.00  0.00    -0.300 OA
HETATM   28  H           1     -27.476  -4.694 -15.992  0.00  0.00     0.223 HD
ENDBRANCH  24  27
ENDBRANCH  23  24
ENDBRANCH  22  23
ENDBRANCH  18  22
ENDBRANCH   4  18
TORSDOF 13
ENDMDL
MODEL 8
REMARK VINA RESULT:      -5.2     12.998     14.611
REMARK  13 active torsions:
REMARK  status: ('A' for Active; 'I' for Inactive)
REMARK    1  A    between atoms: C_7  and  C_8 
REMARK    2  A    between atoms: C_7  and  C_14 
REMARK    3  A    between atoms: C_8  and  C_9 
REMARK    4  A    between atoms: C_8  and  N_23 
REMARK       I    between atoms: C_9  and  N_26 
REMARK    5  A    between atoms: C_10  and  C_12 
REMARK    6  A    between atoms: C_12  and  C_20 
REMARK    7  A    between atoms: C_12  and  N_26 
REMARK    8  A    between atoms: C_13  and  C_14 
REMARK    9  A    between atoms: C_13  and  C_25 
REMARK   10  A    between atoms: P_18  and  O_19 
REMARK   11  A    between atoms: P_18  and  O_28 
REMARK   12  A    between atoms: O_19  and  C_20 
REMARK   13  A    between atoms: N_24  and  C_25 
ROOT
HETATM    1  C           1     -20.367  -5.764  -5.856  0.00  0.00     0.249 C 
HETATM    2  H           1     -19.890  -7.511  -6.859  0.00  0.00     0.163 HD
HETATM    3  O           1     -20.617  -5.278  -4.779  0.00  0.00    -0.271 OA
HETATM    4  N           1     -20.100  -7.104  -5.957  0.00  0.00    -0.343 N 
ENDROOT
BRANCH   1   5
HETATM    5  C           1     -20.351  -4.897  -7.090  0.00  0.00     0.274 C 
BRANCH   5   6
HETATM    6  C           1     -21.740  -4.317  -7.323  0.00  0.00     0.042 C 
BRANCH   6   7
HETATM    7  C           1     -22.200  -4.653  -8.736  0.00  0.00     0.004 C 
BRANCH   7   8
HETATM    8  C           1     -23.232  -3.629  -9.191  0.00  0.00     0.027 C 
BRANCH   8   9
HETATM    9  C           1     -24.382  -4.343  -9.889  0.00  0.00     0.229 C 
BRANCH   9  10
HETATM   10  N           1     -25.642  -3.549  -9.717  0.00  0.00    -0.079 N 
HETATM   11  H           1     -26.317  -3.798 -10.477  0.00  0.00     0.274 HD
HETATM   12  H           1     -25.422  -2.529  -9.769  0.00  0.00     0.274 HD
HETATM   13  H           1     -26.068  -3.767  -8.787  0.00  0.00     0.274 HD
ENDBRANCH   9  10
ENDBRANCH   8   9
ENDBRANCH   7   8
ENDBRANCH   6   7
ENDBRANCH   5   6
BRANCH   5  14
HETATM   14  N           1     -19.948  -5.722  -8.275  0.00  0.00    -0.067 N 
HETATM   15  H           1     -18.915  -5.652  -8.414  0.00  0.00     0.275 HD
HETATM   16  H           1     -20.438  -5.368  -9.129  0.00  0.00     0.275 HD
HETATM   17  H           1     -20.212  -6.719  -8.111  0.00  0.00     0.275 HD
ENDBRANCH   5  14
ENDBRANCH   1   5
BRANCH   4  18
HETATM   18  C           1     -20.115  -7.937  -4.771  0.00  0.00     0.210 C 
BRANCH  18  19
HETATM   19  C           1     -19.239  -9.145  -4.993  0.00  0.00     0.198 C 
HETATM   20  O           1     -18.243  -9.338  -4.262  0.00  0.00    -0.646 OA
HETATM   21  O           1     -19.508  -9.952  -5.909  0.00  0.00    -0.646 OA
ENDBRANCH  18  19
BRANCH  18  22
HETATM   22  C           1     -21.543  -8.390  -4.489  0.00  0.00     0.217 C 
BRANCH  22  23
HETATM   23  O           1     -21.611  -8.952  -3.207  0.00  0.00    -0.287 OA
BRANCH  23  24
HETATM   24  P           1     -21.536  -7.912  -1.973  0.00  0.00     0.406 P 
HETATM   25  O           1     -20.140  -7.819  -1.489  0.00  0.00    -0.624 OA
HETATM   26  O           1     -22.406  -8.388  -0.875  0.00  0.00    -0.624 OA
BRANCH  24  27
HETATM   27  O           1     -22.032  -6.457  -2.464  0.00  0.00    -0.300 OA
HETATM   28  H           1     -21.459  -5.846  -2.035  0.00  0.00     0.223 HD
ENDBRANCH  24  27
ENDBRANCH  23  24
ENDBRANCH  22  23
ENDBRANCH  18  22
ENDBRANCH   4  18
TORSDOF 13
ENDMDL
MODEL 9
REMARK VINA RESULT:      -5.0     14.767     16.266
REMARK  13 active torsions:
REMARK  status: ('A' for Active; 'I' for Inactive)
REMARK    1  A    between atoms: C_7  and  C_8 
REMARK    2  A    between atoms: C_7  and  C_14 
REMARK    3  A    between atoms: C_8  and  C_9 
REMARK    4  A    between atoms: C_8  and  N_23 
REMARK       I    between atoms: C_9  and  N_26 
REMARK    5  A    between atoms: C_10  and  C_12 
REMARK    6  A    between atoms: C_12  and  C_20 
REMARK    7  A    between atoms: C_12  and  N_26 
REMARK    8  A    between atoms: C_13  and  C_14 
REMARK    9  A    between atoms: C_13  and  C_25 
REMARK   10  A    between atoms: P_18  and  O_19 
REMARK   11  A    between atoms: P_18  and  O_28 
REMARK   12  A    between atoms: O_19  and  C_20 
REMARK   13  A    between atoms: N_24  and  C_25 
ROOT
HETATM    1  C           1     -21.452  -8.237  -4.852  0.00  0.00     0.249 C 
HETATM    2  H           1     -22.153  -8.280  -2.905  0.00  0.00     0.163 HD
HETATM    3  O           1     -20.891  -8.867  -5.716  0.00  0.00    -0.271 OA
HETATM    4  N           1     -21.682  -8.808  -3.629  0.00  0.00    -0.343 N 
ENDROOT
BRANCH   1   5
HETATM    5  C           1     -21.899  -6.821  -5.120  0.00  0.00     0.274 C 
BRANCH   5   6
HETATM    6  C           1     -21.112  -6.253  -6.293  0.00  0.00     0.042 C 
BRANCH   6   7
HETATM    7  C           1     -20.606  -4.860  -5.937  0.00  0.00     0.004 C 
BRANCH   7   8
HETATM    8  C           1     -20.907  -3.902  -7.083  0.00  0.00     0.027 C 
BRANCH   8   9
HETATM    9  C           1     -21.873  -4.564  -8.058  0.00  0.00     0.229 C 
BRANCH   9  10
HETATM   10  N           1     -23.157  -3.792  -8.092  0.00  0.00    -0.079 N 
HETATM   11  H           1     -23.959  -4.444  -7.930  0.00  0.00     0.274 HD
HETATM   12  H           1     -23.265  -3.335  -9.026  0.00  0.00     0.274 HD
HETATM   13  H           1     -23.145  -3.061  -7.345  0.00  0.00     0.274 HD
ENDBRANCH   9  10
ENDBRANCH   8   9
ENDBRANCH   7   8
ENDBRANCH   6   7
ENDBRANCH   5   6
BRANCH   5  14
HETATM   14  N           1     -21.658  -5.982  -3.902  0.00  0.00    -0.067 N 
HETATM   15  H           1     -20.723  -6.215  -3.498  0.00  0.00     0.275 HD
HETATM   16  H           1     -22.402  -6.176  -3.192  0.00  0.00     0.275 HD
HETATM   17  H           1     -21.684  -4.971  -4.164  0.00  0.00     0.275 HD
ENDBRANCH   5  14
ENDBRANCH   1   5
BRANCH   4  18
HETATM   18  C           1     -21.252 -10.168  -3.371  0.00  0.00     0.210 C 
BRANCH  18  19
HETATM   19  C           1     -22.437 -11.096  -3.468  0.00  0.00     0.198 C 
HETATM   20  O           1     -22.603 -11.796  -4.491  0.00  0.00    -0.646 OA
HETATM   21  O           1     -23.255 -11.166  -2.524  0.00  0.00    -0.646 OA
ENDBRANCH  18  19
BRANCH  18  22
HETATM   22  C           1     -20.653 -10.253  -1.973  0.00  0.00     0.217 C 
BRANCH  22  23
HETATM   23  O           1     -20.944  -9.077  -1.267  0.00  0.00    -0.287 OA
BRANCH  23  24
HETATM   24  P           1     -21.674  -9.270   0.161  0.00  0.00     0.406 P 
HETATM   25  O           1     -21.653  -7.990   0.904  0.00  0.00    -0.624 OA
HETATM   26  O           1     -20.961 -10.304   0.942  0.00  0.00    -0.624 OA
BRANCH  24  27
HETATM   27  O           1     -23.203  -9.729  -0.074  0.00  0.00    -0.300 OA
HETATM   28  H           1     -23.357  -9.603  -0.994  0.00  0.00     0.223 HD
ENDBRANCH  24  27
ENDBRANCH  23  24
ENDBRANCH  22  23
ENDBRANCH  18  22
ENDBRANCH   4  18
TORSDOF 13
ENDMDL
