MODEL 1
REMARK VINA RESULT:      -6.0      0.000      0.000
REMARK  6 active torsions:
REMARK  status: ('A' for Active; 'I' for Inactive)
REMARK    1  A    between atoms: C_1  and  C_11 
REMARK    2  A    between atoms: C_1  and  C_2 
REMARK    3  A    between atoms: C_2  and  C_17 
REMARK    4  A    between atoms: C_2  and  N_7 
REMARK       I    between atoms: N_7  and  C_8 
REMARK    5  A    between atoms: C_8  and  C_10 
REMARK    6  A    between atoms: C_11  and  Se_13 
ROOT
HETATM    1  H           1     -33.973  -1.343 -13.688  0.00  0.00     0.163 HD
HETATM    2  N           1     -34.838  -1.512 -13.191  0.00  0.00    -0.345 N 
HETATM    3  C           1     -35.967  -0.815 -13.528  0.00  0.00     0.251 C 
HETATM    4  O           1     -37.000  -1.016 -12.934  0.00  0.00    -0.271 OA
ENDROOT
BRANCH   2   5
HETATM    5  C           1     -34.881  -2.489 -12.121  0.00  0.00     0.185 C 
BRANCH   5   6
HETATM    6  C           1     -33.977  -3.664 -12.471  0.00  0.00     0.036 C 
BRANCH   6   7
HETATM    7  C           1     -34.698  -4.970 -12.162  0.00  0.00     0.003 C 
BRANCH   7   8
HETATM    8 Se           1     -34.255  -5.545 -10.354  0.00  0.00     0.000 Se
HETATM    9  C           1     -34.797  -7.396 -10.635  0.00  0.00     0.000 C 
ENDBRANCH   7   8
ENDBRANCH   6   7
ENDBRANCH   5   6
BRANCH   5  10
HETATM   10  C           1     -34.403  -1.853 -10.839  0.00  0.00     0.196 C 
HETATM   11  O           1     -35.226  -1.328 -10.057  0.00  0.00    -0.646 OA
HETATM   12  O           1     -33.185  -1.850 -10.559  0.00  0.00    -0.646 OA
ENDBRANCH   5  10
ENDBRANCH   2   5
BRANCH   3  13
HETATM   13  C           1     -35.922   0.203 -14.640  0.00  0.00     0.311 C 
HETATM   14  C           1     -37.233   0.227 -15.407  0.00  0.00     0.047 C 
HETATM   15  C           1     -37.016  -0.704 -16.593  0.00  0.00     0.033 C 
HETATM   16  C           1     -35.589  -1.206 -16.447  0.00  0.00     0.271 C 
HETATM   17  N           1     -34.936  -0.173 -15.649  0.00  0.00     0.097 N 
HETATM   18  H           1     -34.705   0.622 -16.245  0.00  0.00     0.317 HD
ENDBRANCH   3  13
TORSDOF 6
ENDMDL
MODEL 2
REMARK VINA RESULT:      -5.6      1.769      2.352
REMARK  6 active torsions:
REMARK  status: ('A' for Active; 'I' for Inactive)
REMARK    1  A    between atoms: C_1  and  C_11 
REMARK    2  A    between atoms: C_1  and  C_2 
REMARK    3  A    between atoms: C_2  and  C_17 
REMARK    4  A    between atoms: C_2  and  N_7 
REMARK       I    between atoms: N_7  and  C_8 
REMARK    5  A    between atoms: C_8  and  C_10 
REMARK    6  A    between atoms: C_11  and  Se_13 
ROOT
HETATM    1  H           1     -35.077   0.099 -12.256  0.00  0.00     0.163 HD
HETATM    2  N           1     -36.002  -0.311 -12.297  0.00  0.00    -0.345 N 
HETATM    3  C           1     -36.750  -0.200 -13.438  0.00  0.00     0.251 C 
HETATM    4  O           1     -37.853  -0.690 -13.487  0.00  0.00    -0.271 OA
ENDROOT
BRANCH   2   5
HETATM    5  C           1     -36.535  -1.014 -11.147  0.00  0.00     0.185 C 
BRANCH   5   6
HETATM    6  C           1     -35.513  -2.030 -10.655  0.00  0.00     0.036 C 
BRANCH   6   7
HETATM    7  C           1     -34.241  -1.916 -11.486  0.00  0.00     0.003 C 
BRANCH   7   8
HETATM    8 Se           1     -33.835  -3.641 -12.295  0.00  0.00     0.000 Se
HETATM    9  C           1     -33.983  -4.641 -10.628  0.00  0.00     0.000 C 
ENDBRANCH   7   8
ENDBRANCH   6   7
ENDBRANCH   5   6
BRANCH   5  10
HETATM   10  C           1     -36.828  -0.024 -10.045  0.00  0.00     0.196 C 
HETATM   11  O           1     -36.204  -0.090  -8.963  0.00  0.00    -0.646 OA
HETATM   12  O           1     -37.694   0.860 -10.214  0.00  0.00    -0.646 OA
ENDBRANCH   5  10
ENDBRANCH   2   5
BRANCH   3  13
HETATM   13  C           1     -36.196   0.532 -14.635  0.00  0.00     0.311 C 
HETATM   14  C           1     -37.110   0.376 -15.838  0.00  0.00     0.047 C 
HETATM   15  C           1     -36.545  -0.805 -16.616  0.00  0.00     0.033 C 
HETATM   16  C           1     -35.330  -1.258 -15.823  0.00  0.00     0.271 C 
HETATM   17  N           1     -34.939  -0.067 -15.075  0.00  0.00     0.097 N 
HETATM   18  H           1     -34.429   0.568 -15.689  0.00  0.00     0.317 HD
ENDBRANCH   3  13
TORSDOF 6
ENDMDL
MODEL 3
REMARK VINA RESULT:      -5.6      2.480      5.361
REMARK  6 active torsions:
REMARK  status: ('A' for Active; 'I' for Inactive)
REMARK    1  A    between atoms: C_1  and  C_11 
REMARK    2  A    between atoms: C_1  and  C_2 
REMARK    3  A    between atoms: C_2  and  C_17 
REMARK    4  A    between atoms: C_2  and  N_7 
REMARK       I    between atoms: N_7  and  C_8 
REMARK    5  A    between atoms: C_8  and  C_10 
REMARK    6  A    between atoms: C_11  and  Se_13 
ROOT
HETATM    1  H           1     -35.329  -2.265 -13.033  0.00  0.00     0.163 HD
HETATM    2  N           1     -35.001  -1.701 -12.260  0.00  0.00    -0.345 N 
HETATM    3  C           1     -33.946  -2.128 -11.500  0.00  0.00     0.251 C 
HETATM    4  O           1     -33.554  -1.454 -10.577  0.00  0.00    -0.271 OA
ENDROOT
BRANCH   2   5
HETATM    5  C           1     -35.650  -0.440 -11.957  0.00  0.00     0.185 C 
BRANCH   5   6
HETATM    6  C           1     -36.298   0.114 -13.219  0.00  0.00     0.036 C 
BRANCH   6   7
HETATM    7  C           1     -35.235   0.309 -14.292  0.00  0.00     0.003 C 
BRANCH   7   8
HETATM    8 Se           1     -35.804  -0.565 -15.938  0.00  0.00     0.000 Se
HETATM    9  C           1     -37.692  -0.142 -15.702  0.00  0.00     0.000 C 
ENDBRANCH   7   8
ENDBRANCH   6   7
ENDBRANCH   5   6
BRANCH   5  10
HETATM   10  C           1     -36.709  -0.661 -10.904  0.00  0.00     0.196 C 
HETATM   11  O           1     -36.480  -0.356  -9.714  0.00  0.00    -0.646 OA
HETATM   12  O           1     -37.815  -1.148 -11.224  0.00  0.00    -0.646 OA
ENDBRANCH   5  10
ENDBRANCH   2   5
BRANCH   3  13
HETATM   13  C           1     -33.271  -3.440 -11.815  0.00  0.00     0.311 C 
HETATM   14  C           1     -33.974  -4.149 -12.961  0.00  0.00     0.047 C 
HETATM   15  C           1     -34.956  -5.103 -12.294  0.00  0.00     0.033 C 
HETATM   16  C           1     -34.759  -4.898 -10.802  0.00  0.00     0.271 C 
HETATM   17  N           1     -33.401  -4.372 -10.699  0.00  0.00     0.097 N 
HETATM   18  H           1     -32.733  -5.138 -10.786  0.00  0.00     0.317 HD
ENDBRANCH   3  13
TORSDOF 6
ENDMDL
MODEL 4
REMARK VINA RESULT:      -5.4      2.831      5.314
REMARK  6 active torsions:
REMARK  status: ('A' for Active; 'I' for Inactive)
REMARK    1  A    between atoms: C_1  and  C_11 
REMARK    2  A    between atoms: C_1  and  C_2 
REMARK    3  A    between atoms: C_2  and  C_17 
REMARK    4  A    between atoms: C_2  and  N_7 
REMARK       I    between atoms: N_7  and  C_8 
REMARK    5  A    between atoms: C_8  and  C_10 
REMARK    6  A    between atoms: C_11  and  Se_13 
ROOT
HETATM    1  H           1     -37.160  -2.420 -11.033  0.00  0.00     0.163 HD
HETATM    2  N           1     -36.412  -1.739 -11.057  0.00  0.00    -0.345 N 
HETATM    3  C           1     -35.109  -2.152 -10.976  0.00  0.00     0.251 C 
HETATM    4  O           1     -34.216  -1.339 -11.005  0.00  0.00    -0.271 OA
ENDROOT
BRANCH   2   5
HETATM    5  C           1     -36.719  -0.328 -11.177  0.00  0.00     0.185 C 
BRANCH   5   6
HETATM    6  C           1     -37.916  -0.146 -12.101  0.00  0.00     0.036 C 
BRANCH   6   7
HETATM    7  C           1     -37.488  -0.393 -13.542  0.00  0.00     0.003 C 
BRANCH   7   8
HETATM    8 Se           1     -35.738   0.408 -13.846  0.00  0.00     0.000 Se
HETATM    9  C           1     -35.533  -0.327 -15.640  0.00  0.00     0.000 C 
ENDBRANCH   7   8
ENDBRANCH   6   7
ENDBRANCH   5   6
BRANCH   5  10
HETATM   10  C           1     -37.048   0.232  -9.814  0.00  0.00     0.196 C 
HETATM   11  O           1     -36.866  -0.465  -8.792  0.00  0.00    -0.646 OA
HETATM   12  O           1     -37.502   1.391  -9.708  0.00  0.00    -0.646 OA
ENDBRANCH   5  10
ENDBRANCH   2   5
BRANCH   3  13
HETATM   13  C           1     -34.789  -3.621 -10.850  0.00  0.00     0.311 C 
HETATM   14  C           1     -33.288  -3.846 -10.798  0.00  0.00     0.047 C 
HETATM   15  C           1     -32.880  -4.139 -12.236  0.00  0.00     0.033 C 
HETATM   16  C           1     -34.171  -4.075 -13.036  0.00  0.00     0.271 C 
HETATM   17  N           1     -35.208  -4.348 -12.046  0.00  0.00     0.097 N 
HETATM   18  H           1     -35.249  -5.351 -11.864  0.00  0.00     0.317 HD
ENDBRANCH   3  13
TORSDOF 6
ENDMDL
MODEL 5
REMARK VINA RESULT:      -5.2     11.271     12.309
REMARK  6 active torsions:
REMARK  status: ('A' for Active; 'I' for Inactive)
REMARK    1  A    between atoms: C_1  and  C_11 
REMARK    2  A    between atoms: C_1  and  C_2 
REMARK    3  A    between atoms: C_2  and  C_17 
REMARK    4  A    between atoms: C_2  and  N_7 
REMARK       I    between atoms: N_7  and  C_8 
REMARK    5  A    between atoms: C_8  and  C_10 
REMARK    6  A    between atoms: C_11  and  Se_13 
ROOT
HETATM    1  H           1     -26.174  -5.223 -18.161  0.00  0.00     0.163 HD
HETATM    2  N           1     -26.515  -6.053 -18.630  0.00  0.00    -0.345 N 
HETATM    3  C           1     -27.860  -6.227 -18.820  0.00  0.00     0.251 C 
HETATM    4  O           1     -28.267  -7.217 -19.379  0.00  0.00    -0.271 OA
ENDROOT
BRANCH   2   5
HETATM    5  C           1     -25.580  -7.057 -19.098  0.00  0.00     0.185 C 
BRANCH   5   6
HETATM    6  C           1     -25.168  -6.738 -20.529  0.00  0.00     0.036 C 
BRANCH   6   7
HETATM    7  C           1     -25.092  -8.028 -21.336  0.00  0.00     0.003 C 
BRANCH   7   8
HETATM    8 Se           1     -23.689  -7.872 -22.680  0.00  0.00     0.000 Se
HETATM    9  C           1     -22.311  -8.691 -21.571  0.00  0.00     0.000 C 
ENDBRANCH   7   8
ENDBRANCH   6   7
ENDBRANCH   5   6
BRANCH   5  10
HETATM   10  C           1     -24.358  -7.057 -18.212  0.00  0.00     0.196 C 
HETATM   11  O           1     -23.240  -6.763 -18.690  0.00  0.00    -0.646 OA
HETATM   12  O           1     -24.464  -7.351 -17.003  0.00  0.00    -0.646 OA
ENDBRANCH   5  10
ENDBRANCH   2   5
BRANCH   3  13
HETATM   13  C           1     -28.832  -5.183 -18.331  0.00  0.00     0.311 C 
HETATM   14  C           1     -28.242  -4.391 -17.177  0.00  0.00     0.047 C 
HETATM   15  C           1     -28.747  -5.085 -15.919  0.00  0.00     0.033 C 
HETATM   16  C           1     -29.606  -6.235 -16.418  0.00  0.00     0.271 C 
HETATM   17  N           1     -30.018  -5.808 -17.752  0.00  0.00     0.097 N 
HETATM   18  H           1     -30.781  -5.135 -17.673  0.00  0.00     0.317 HD
ENDBRANCH   3  13
TORSDOF 6
ENDMDL
MODEL 6
REMARK VINA RESULT:      -5.1      9.751     10.796
REMARK  6 active torsions:
REMARK  status: ('A' for Active; 'I' for Inactive)
REMARK    1  A    between atoms: C_1  and  C_11 
REMARK    2  A    between atoms: C_1  and  C_2 
REMARK    3  A    between atoms: C_2  and  C_17 
REMARK    4  A    between atoms: C_2  and  N_7 
REMARK       I    between atoms: N_7  and  C_8 
REMARK    5  A    between atoms: C_8  and  C_10 
REMARK    6  A    between atoms: C_11  and  Se_13 
ROOT
HETATM    1  H           1     -26.299  -4.873 -17.143  0.00  0.00     0.163 HD
HETATM    2  N           1     -26.651  -5.806 -16.973  0.00  0.00    -0.345 N 
HETATM    3  C           1     -27.914  -5.982 -16.476  0.00  0.00     0.251 C 
HETATM    4  O           1     -28.333  -7.096 -16.273  0.00  0.00    -0.271 OA
ENDROOT
BRANCH   2   5
HETATM    5  C           1     -25.816  -6.958 -17.256  0.00  0.00     0.185 C 
BRANCH   5   6
HETATM    6  C           1     -24.969  -6.680 -18.490  0.00  0.00     0.036 C 
BRANCH   6   7
HETATM    7  C           1     -25.874  -6.532 -19.706  0.00  0.00     0.003 C 
BRANCH   7   8
HETATM    8 Se           1     -25.403  -7.876 -21.035  0.00  0.00     0.000 Se
HETATM    9  C           1     -27.214  -8.573 -21.212  0.00  0.00     0.000 C 
ENDBRANCH   7   8
ENDBRANCH   6   7
ENDBRANCH   5   6
BRANCH   5  10
HETATM   10  C           1     -24.913  -7.225 -16.076  0.00  0.00     0.196 C 
HETATM   11  O           1     -24.075  -8.152 -16.128  0.00  0.00    -0.646 OA
HETATM   12  O           1     -25.002  -6.519 -15.049  0.00  0.00    -0.646 OA
ENDBRANCH   5  10
ENDBRANCH   2   5
BRANCH   3  13
HETATM   13  C           1     -28.781  -4.783 -16.181  0.00  0.00     0.311 C 
HETATM   14  C           1     -30.246  -5.179 -16.112  0.00  0.00     0.047 C 
HETATM   15  C           1     -30.795  -4.915 -17.508  0.00  0.00     0.033 C 
HETATM   16  C           1     -29.618  -4.374 -18.302  0.00  0.00     0.271 C 
HETATM   17  N           1     -28.732  -3.823 -17.281  0.00  0.00     0.097 N 
HETATM   18  H           1     -29.083  -2.913 -16.983  0.00  0.00     0.317 HD
ENDBRANCH   3  13
TORSDOF 6
ENDMDL
MODEL 7
REMARK VINA RESULT:      -5.0     25.399     26.438
REMARK  6 active torsions:
REMARK  status: ('A' for Active; 'I' for Inactive)
REMARK    1  A    between atoms: C_1  and  C_11 
REMARK    2  A    between atoms: C_1  and  C_2 
REMARK    3  A    between atoms: C_2  and  C_17 
REMARK    4  A    between atoms: C_2  and  N_7 
REMARK       I    between atoms: N_7  and  C_8 
REMARK    5  A    between atoms: C_8  and  C_10 
REMARK    6  A    between atoms: C_11  and  Se_13 
ROOT
HETATM    1  H           1     -11.767   6.857 -18.959  0.00  0.00     0.163 HD
HETATM    2  N           1     -12.110   7.323 -19.790  0.00  0.00    -0.345 N 
HETATM    3  C           1     -12.795   6.615 -20.740  0.00  0.00     0.251 C 
HETATM    4  O           1     -13.204   7.172 -21.731  0.00  0.00    -0.271 OA
ENDROOT
BRANCH   2   5
HETATM    5  C           1     -11.875   8.742 -19.973  0.00  0.00     0.185 C 
BRANCH   5   6
HETATM    6  C           1     -12.871   9.534 -19.137  0.00  0.00     0.036 C 
BRANCH   6   7
HETATM    7  C           1     -13.248  10.814 -19.872  0.00  0.00     0.003 C 
BRANCH   7   8
HETATM    8 Se           1     -14.862  11.567 -19.081  0.00  0.00     0.000 Se
HETATM    9  C           1     -14.712  10.561 -17.418  0.00  0.00     0.000 C 
ENDBRANCH   7   8
ENDBRANCH   6   7
ENDBRANCH   5   6
BRANCH   5  10
HETATM   10  C           1     -10.470   9.079 -19.534  0.00  0.00     0.196 C 
HETATM   11  O           1      -9.686   9.645 -20.327  0.00  0.00    -0.646 OA
HETATM   12  O           1     -10.092   8.793 -18.378  0.00  0.00    -0.646 OA
ENDBRANCH   5  10
ENDBRANCH   2   5
BRANCH   3  13
HETATM   13  C           1     -13.039   5.138 -20.549  0.00  0.00     0.311 C 
HETATM   14  C           1     -12.071   4.556 -19.533  0.00  0.00     0.047 C 
HETATM   15  C           1     -10.916   4.001 -20.357  0.00  0.00     0.033 C 
HETATM   16  C           1     -11.286   4.287 -21.802  0.00  0.00     0.271 C 
HETATM   17  N           1     -12.742   4.400 -21.774  0.00  0.00     0.097 N 
HETATM   18  H           1     -13.154   3.468 -21.744  0.00  0.00     0.317 HD
ENDBRANCH   3  13
TORSDOF 6
ENDMDL
MODEL 8
REMARK VINA RESULT:      -5.0     15.800     17.564
REMARK  6 active torsions:
REMARK  status: ('A' for Active; 'I' for Inactive)
REMARK    1  A    between atoms: C_1  and  C_11 
REMARK    2  A    between atoms: C_1  and  C_2 
REMARK    3  A    between atoms: C_2  and  C_17 
REMARK    4  A    between atoms: C_2  and  N_7 
REMARK       I    between atoms: N_7  and  C_8 
REMARK    5  A    between atoms: C_8  and  C_10 
REMARK    6  A    between atoms: C_11  and  Se_13 
ROOT
HETATM    1  H           1     -20.227  -5.978  -3.866  0.00  0.00     0.163 HD
HETATM    2  N           1     -20.683  -6.825  -4.182  0.00  0.00    -0.345 N 
HETATM    3  C           1     -20.704  -7.134  -5.516  0.00  0.00     0.251 C 
HETATM    4  O           1     -21.248  -8.144  -5.893  0.00  0.00    -0.271 OA
ENDROOT
BRANCH   2   5
HETATM    5  C           1     -21.315  -7.709  -3.223  0.00  0.00     0.185 C 
BRANCH   5   6
HETATM    6  C           1     -20.264  -8.622  -2.606  0.00  0.00     0.036 C 
BRANCH   6   7
HETATM    7  C           1     -20.500 -10.054  -3.068  0.00  0.00     0.003 C 
BRANCH   7   8
HETATM    8 Se           1     -21.869 -10.880  -1.954  0.00  0.00     0.000 Se
HETATM    9  C           1     -20.892 -10.632  -0.285  0.00  0.00     0.000 C 
ENDBRANCH   7   8
ENDBRANCH   6   7
ENDBRANCH   5   6
BRANCH   5  10
HETATM   10  C           1     -21.967  -6.888  -2.137  0.00  0.00     0.196 C 
HETATM   11  O           1     -22.251  -5.688  -2.345  0.00  0.00    -0.646 OA
HETATM   12  O           1     -22.223  -7.408  -1.030  0.00  0.00    -0.646 OA
ENDBRANCH   5  10
ENDBRANCH   2   5
BRANCH   3  13
HETATM   13  C           1     -20.047  -6.212  -6.514  0.00  0.00     0.311 C 
HETATM   14  C           1     -19.902  -4.812  -5.944  0.00  0.00     0.047 C 
HETATM   15  C           1     -21.129  -4.054  -6.434  0.00  0.00     0.033 C 
HETATM   16  C           1     -21.910  -5.058  -7.265  0.00  0.00     0.271 C 
HETATM   17  N           1     -20.899  -6.024  -7.685  0.00  0.00     0.097 N 
HETATM   18  H           1     -20.364  -5.639  -8.464  0.00  0.00     0.317 HD
ENDBRANCH   3  13
TORSDOF 6
ENDMDL
MODEL 9
REMARK VINA RESULT:      -5.0     15.599     16.843
REMARK  6 active torsions:
REMARK  status: ('A' for Active; 'I' for Inactive)
REMARK    1  A    between atoms: C_1  and  C_11 
REMARK    2  A    between atoms: C_1  and  C_2 
REMARK    3  A    between atoms: C_2  and  C_17 
REMARK    4  A    between atoms: C_2  and  N_7 
REMARK       I    between atoms: N_7  and  C_8 
REMARK    5  A    between atoms: C_8  and  C_10 
REMARK    6  A    between atoms: C_11  and  Se_13 
ROOT
HETATM    1  H           1     -19.702  -6.027  -4.579  0.00  0.00     0.163 HD
HETATM    2  N           1     -20.691  -6.183  -4.733  0.00  0.00    -0.345 N 
HETATM    3  C           1     -21.382  -5.384  -5.602  0.00  0.00     0.251 C 
HETATM    4  O           1     -22.561  -5.571  -5.786  0.00  0.00    -0.271 OA
ENDROOT
BRANCH   2   5
HETATM    5  C           1     -21.373  -7.253  -4.031  0.00  0.00     0.185 C 
BRANCH   5   6
HETATM    6  C           1     -20.519  -8.513  -4.074  0.00  0.00     0.036 C 
BRANCH   6   7
HETATM    7  C           1     -21.036  -9.440  -5.168  0.00  0.00     0.003 C 
BRANCH   7   8
HETATM    8 Se           1     -21.256 -11.237  -4.448  0.00  0.00     0.000 Se
HETATM    9  C           1     -22.201 -10.654  -2.845  0.00  0.00     0.000 C 
ENDBRANCH   7   8
ENDBRANCH   6   7
ENDBRANCH   5   6
BRANCH   5  10
HETATM   10  C           1     -21.598  -6.848  -2.595  0.00  0.00     0.196 C 
HETATM   11  O           1     -20.966  -7.418  -1.678  0.00  0.00    -0.646 OA
HETATM   12  O           1     -22.416  -5.943  -2.321  0.00  0.00    -0.646 OA
ENDBRANCH   5  10
ENDBRANCH   2   5
BRANCH   3  13
HETATM   13  C           1     -20.672  -4.270  -6.331  0.00  0.00     0.311 C 
HETATM   14  C           1     -21.552  -3.691  -7.425  0.00  0.00     0.047 C 
HETATM   15  C           1     -21.152  -4.434  -8.693  0.00  0.00     0.033 C 
HETATM   16  C           1     -20.057  -5.395  -8.261  0.00  0.00     0.271 C 
HETATM   17  N           1     -19.511  -4.781  -7.055  0.00  0.00     0.097 N 
HETATM   18  H           1     -18.883  -4.020  -7.315  0.00  0.00     0.317 HD
ENDBRANCH   3  13
TORSDOF 6
ENDMDL
