MODEL 1
REMARK VINA RESULT:      -8.5      0.000      0.000
REMARK  10 active torsions:
REMARK  status: ('A' for Active; 'I' for Inactive)
REMARK    1  A    between atoms: C_2  and  C_27 
REMARK    2  A    between atoms: C_2  and  C_21 
REMARK    3  A    between atoms: C_6  and  C_7 
REMARK    4  A    between atoms: C_7  and  C_8 
REMARK    5  A    between atoms: C_8  and  C_9 
REMARK    6  A    between atoms: C_8  and  N_12 
REMARK       I    between atoms: C_9  and  N_13 
REMARK    7  A    between atoms: N_13  and  C_20 
REMARK       I    between atoms: N_14  and  C_29 
REMARK    8  A    between atoms: C_20  and  C_21 
REMARK    9  A    between atoms: C_20  and  C_30 
REMARK       I    between atoms: N_22  and  C_29 
REMARK   10  A    between atoms: N_22  and  C_27 
ROOT
HETATM    1  H           1     -32.285  -3.669 -14.150  0.00  0.00     0.163 HD
HETATM    2  C           1     -33.773  -4.457 -15.353  0.00  0.00     0.249 C 
HETATM    3  O           1     -34.923  -4.829 -15.392  0.00  0.00    -0.271 OA
HETATM    4  N           1     -33.248  -3.980 -14.182  0.00  0.00    -0.345 N 
ENDROOT
BRANCH   4   5
HETATM    5  C           1     -34.069  -3.923 -12.989  0.00  0.00     0.185 C 
BRANCH   5   6
HETATM    6  C           1     -33.177  -3.955 -11.756  0.00  0.00     0.038 C 
BRANCH   6   7
HETATM    7  C           1     -33.943  -4.565 -10.589  0.00  0.00     0.023 C 
BRANCH   7   8
HETATM    8  C           1     -34.727  -5.778 -11.075  0.00  0.00     0.138 C 
BRANCH   8   9
HETATM    9  N           1     -33.878  -6.976 -10.991  0.00  0.00    -0.227 N 
HETATM   10  H           1     -33.005  -7.042 -11.571  0.00  0.00     0.177 HD
HETATM   11  C           1     -34.199  -7.926 -10.219  0.00  0.00     0.665 C 
HETATM   12  N           1     -33.448  -8.985 -10.145  0.00  0.00    -0.235 N 
HETATM   13  N           1     -35.251  -7.845  -9.520  0.00  0.00    -0.235 N 
HETATM   14  H           1     -32.580  -9.051 -10.722  0.00  0.00     0.174 HD
HETATM   15  H           1     -33.713  -9.770  -9.507  0.00  0.00     0.174 HD
HETATM   16  H           1     -35.518  -8.634  -8.879  0.00  0.00     0.174 HD
HETATM   17  H           1     -35.857  -6.991  -9.580  0.00  0.00     0.174 HD
ENDBRANCH   8   9
ENDBRANCH   7   8
ENDBRANCH   6   7
ENDBRANCH   5   6
BRANCH   5  18
HETATM   18  C           1     -34.872  -2.645 -12.994  0.00  0.00     0.196 C 
HETATM   19  O           1     -34.723  -1.816 -13.919  0.00  0.00    -0.646 OA
HETATM   20  O           1     -35.687  -2.415 -12.075  0.00  0.00    -0.646 OA
ENDBRANCH   5  18
ENDBRANCH   4   5
BRANCH   2  21
HETATM   21  C           1     -32.920  -4.517 -16.595  0.00  0.00     0.278 C 
BRANCH  21  22
HETATM   22  C           1     -31.449  -4.497 -16.204  0.00  0.00     0.081 C 
BRANCH  22  23
HETATM   23  C           1     -30.679  -5.409 -17.110  0.00  0.00    -0.056 A 
HETATM   24  C           1     -29.496  -4.967 -17.702  0.00  0.00     0.007 A 
HETATM   25  C           1     -28.779  -5.815 -18.546  0.00  0.00     0.001 A 
HETATM   26  C           1     -29.245  -7.106 -18.796  0.00  0.00     0.000 A 
HETATM   27  C           1     -30.428  -7.548 -18.203  0.00  0.00     0.001 A 
HETATM   28  C           1     -31.145  -6.700 -17.360  0.00  0.00     0.007 A 
ENDBRANCH  22  23
ENDBRANCH  21  22
BRANCH  21  29
HETATM   29  N           1     -33.222  -3.332 -17.465  0.00  0.00    -0.066 N 
HETATM   30  H           1     -33.155  -3.611 -18.470  0.00  0.00     0.275 HD
HETATM   31  H           1     -34.187  -2.987 -17.263  0.00  0.00     0.275 HD
HETATM   32  H           1     -32.532  -2.572 -17.268  0.00  0.00     0.275 HD
ENDBRANCH  21  29
ENDBRANCH   2  21
TORSDOF 10
ENDMDL
MODEL 2
REMARK VINA RESULT:      -7.6     13.899     14.879
REMARK  10 active torsions:
REMARK  status: ('A' for Active; 'I' for Inactive)
REMARK    1  A    between atoms: C_2  and  C_27 
REMARK    2  A    between atoms: C_2  and  C_21 
REMARK    3  A    between atoms: C_6  and  C_7 
REMARK    4  A    between atoms: C_7  and  C_8 
REMARK    5  A    between atoms: C_8  and  C_9 
REMARK    6  A    between atoms: C_8  and  N_12 
REMARK       I    between atoms: C_9  and  N_13 
REMARK    7  A    between atoms: N_13  and  C_20 
REMARK       I    between atoms: N_14  and  C_29 
REMARK    8  A    between atoms: C_20  and  C_21 
REMARK    9  A    between atoms: C_20  and  C_30 
REMARK       I    between atoms: N_22  and  C_29 
REMARK   10  A    between atoms: N_22  and  C_27 
ROOT
HETATM    1  H           1     -22.342  -6.609  -4.638  0.00  0.00     0.163 HD
HETATM    2  C           1     -21.134  -6.398  -6.304  0.00  0.00     0.249 C 
HETATM    3  O           1     -20.094  -6.731  -6.823  0.00  0.00    -0.271 OA
HETATM    4  N           1     -21.472  -6.888  -5.072  0.00  0.00    -0.345 N 
ENDROOT
BRANCH   4   5
HETATM    5  C           1     -20.583  -7.807  -4.388  0.00  0.00     0.185 C 
BRANCH   5   6
HETATM    6  C           1     -20.545  -7.469  -2.904  0.00  0.00     0.038 C 
BRANCH   6   7
HETATM    7  C           1     -21.620  -6.437  -2.590  0.00  0.00     0.023 C 
BRANCH   7   8
HETATM    8  C           1     -22.315  -6.808  -1.286  0.00  0.00     0.138 C 
BRANCH   8   9
HETATM    9  N           1     -22.169  -8.252  -1.047  0.00  0.00    -0.227 N 
HETATM   10  H           1     -21.555  -8.828  -1.674  0.00  0.00     0.177 HD
HETATM   11  C           1     -22.784  -8.799  -0.086  0.00  0.00     0.665 C 
HETATM   12  N           1     -22.656 -10.076   0.124  0.00  0.00    -0.235 N 
HETATM   13  N           1     -23.525  -8.104   0.669  0.00  0.00    -0.235 N 
HETATM   14  H           1     -22.044 -10.649  -0.499  0.00  0.00     0.174 HD
HETATM   15  H           1     -23.164 -10.529   0.918  0.00  0.00     0.174 HD
HETATM   16  H           1     -24.036  -8.559   1.467  0.00  0.00     0.174 HD
HETATM   17  H           1     -23.629  -7.074   0.499  0.00  0.00     0.174 HD
ENDBRANCH   8   9
ENDBRANCH   7   8
ENDBRANCH   6   7
ENDBRANCH   5   6
BRANCH   5  18
HETATM   18  C           1     -21.085  -9.219  -4.568  0.00  0.00     0.196 C 
HETATM   19  O           1     -20.945  -9.797  -5.668  0.00  0.00    -0.646 OA
HETATM   20  O           1     -21.640  -9.811  -3.618  0.00  0.00    -0.646 OA
ENDBRANCH   5  18
ENDBRANCH   4   5
BRANCH   2  21
HETATM   21  C           1     -22.058  -5.442  -7.017  0.00  0.00     0.278 C 
BRANCH  21  22
HETATM   22  C           1     -21.269  -4.233  -7.497  0.00  0.00     0.081 C 
BRANCH  22  23
HETATM   23  C           1     -21.362  -4.134  -8.988  0.00  0.00    -0.056 A 
HETATM   24  C           1     -20.204  -4.180  -9.764  0.00  0.00     0.007 A 
HETATM   25  C           1     -20.291  -4.087 -11.153  0.00  0.00     0.001 A 
HETATM   26  C           1     -21.536  -3.950 -11.766  0.00  0.00     0.000 A 
HETATM   27  C           1     -22.695  -3.903 -10.990  0.00  0.00     0.001 A 
HETATM   28  C           1     -22.608  -3.996  -9.601  0.00  0.00     0.007 A 
ENDBRANCH  22  23
ENDBRANCH  21  22
BRANCH  21  29
HETATM   29  N           1     -23.136  -4.995  -6.074  0.00  0.00    -0.066 N 
HETATM   30  H           1     -23.346  -3.985  -6.239  0.00  0.00     0.275 HD
HETATM   31  H           1     -23.999  -5.561  -6.236  0.00  0.00     0.275 HD
HETATM   32  H           1     -22.812  -5.126  -5.089  0.00  0.00     0.275 HD
ENDBRANCH  21  29
ENDBRANCH   2  21
TORSDOF 10
ENDMDL
MODEL 3
REMARK VINA RESULT:      -7.5     14.073     15.063
REMARK  10 active torsions:
REMARK  status: ('A' for Active; 'I' for Inactive)
REMARK    1  A    between atoms: C_2  and  C_27 
REMARK    2  A    between atoms: C_2  and  C_21 
REMARK    3  A    between atoms: C_6  and  C_7 
REMARK    4  A    between atoms: C_7  and  C_8 
REMARK    5  A    between atoms: C_8  and  C_9 
REMARK    6  A    between atoms: C_8  and  N_12 
REMARK       I    between atoms: C_9  and  N_13 
REMARK    7  A    between atoms: N_13  and  C_20 
REMARK       I    between atoms: N_14  and  C_29 
REMARK    8  A    between atoms: C_20  and  C_21 
REMARK    9  A    between atoms: C_20  and  C_30 
REMARK       I    between atoms: N_22  and  C_29 
REMARK   10  A    between atoms: N_22  and  C_27 
ROOT
HETATM    1  H           1     -22.136  -7.529  -5.761  0.00  0.00     0.163 HD
HETATM    2  C           1     -21.384  -5.601  -5.804  0.00  0.00     0.249 C 
HETATM    3  O           1     -20.593  -4.835  -5.306  0.00  0.00    -0.271 OA
HETATM    4  N           1     -21.473  -6.887  -5.344  0.00  0.00    -0.345 N 
ENDROOT
BRANCH   4   5
HETATM    5  C           1     -20.618  -7.331  -4.261  0.00  0.00     0.185 C 
BRANCH   5   6
HETATM    6  C           1     -21.475  -7.741  -3.071  0.00  0.00     0.038 C 
BRANCH   6   7
HETATM    7  C           1     -21.894  -6.500  -2.293  0.00  0.00     0.023 C 
BRANCH   7   8
HETATM    8  C           1     -22.335  -6.904  -0.892  0.00  0.00     0.138 C 
BRANCH   8   9
HETATM    9  N           1     -21.499  -8.017  -0.417  0.00  0.00    -0.227 N 
HETATM   10  H           1     -20.455  -7.970  -0.521  0.00  0.00     0.177 HD
HETATM   11  C           1     -22.038  -9.031   0.116  0.00  0.00     0.665 C 
HETATM   12  N           1     -21.298 -10.014   0.535  0.00  0.00    -0.235 N 
HETATM   13  N           1     -23.296  -9.086   0.240  0.00  0.00    -0.235 N 
HETATM   14  H           1     -20.259  -9.968   0.432  0.00  0.00     0.174 HD
HETATM   15  H           1     -21.742 -10.852   0.975  0.00  0.00     0.174 HD
HETATM   16  H           1     -23.743  -9.928   0.683  0.00  0.00     0.174 HD
HETATM   17  H           1     -23.893  -8.293  -0.098  0.00  0.00     0.174 HD
ENDBRANCH   8   9
ENDBRANCH   7   8
ENDBRANCH   6   7
ENDBRANCH   5   6
BRANCH   5  18
HETATM   18  C           1     -19.798  -8.512  -4.719  0.00  0.00     0.196 C 
HETATM   19  O           1     -19.629  -9.489  -3.957  0.00  0.00    -0.646 OA
HETATM   20  O           1     -19.290  -8.515  -5.861  0.00  0.00    -0.646 OA
ENDBRANCH   5  18
ENDBRANCH   4   5
BRANCH   2  21
HETATM   21  C           1     -22.273  -5.139  -6.932  0.00  0.00     0.278 C 
BRANCH  21  22
HETATM   22  C           1     -21.692  -3.876  -7.553  0.00  0.00     0.081 C 
BRANCH  22  23
HETATM   23  C           1     -21.660  -4.021  -9.043  0.00  0.00    -0.056 A 
HETATM   24  C           1     -20.444  -3.950  -9.724  0.00  0.00     0.007 A 
HETATM   25  C           1     -20.414  -4.084 -11.112  0.00  0.00     0.001 A 
HETATM   26  C           1     -21.598  -4.292 -11.818  0.00  0.00     0.000 A 
HETATM   27  C           1     -22.814  -4.363 -11.137  0.00  0.00     0.001 A 
HETATM   28  C           1     -22.845  -4.228  -9.749  0.00  0.00     0.007 A 
ENDBRANCH  22  23
ENDBRANCH  21  22
BRANCH  21  29
HETATM   29  N           1     -23.645  -4.848  -6.398  0.00  0.00    -0.066 N 
HETATM   30  H           1     -23.663  -5.026  -5.369  0.00  0.00     0.275 HD
HETATM   31  H           1     -23.887  -3.849  -6.583  0.00  0.00     0.275 HD
HETATM   32  H           1     -24.340  -5.469  -6.871  0.00  0.00     0.275 HD
ENDBRANCH  21  29
ENDBRANCH   2  21
TORSDOF 10
ENDMDL
MODEL 4
REMARK VINA RESULT:      -7.5     14.012     16.202
REMARK  10 active torsions:
REMARK  status: ('A' for Active; 'I' for Inactive)
REMARK    1  A    between atoms: C_2  and  C_27 
REMARK    2  A    between atoms: C_2  and  C_21 
REMARK    3  A    between atoms: C_6  and  C_7 
REMARK    4  A    between atoms: C_7  and  C_8 
REMARK    5  A    between atoms: C_8  and  C_9 
REMARK    6  A    between atoms: C_8  and  N_12 
REMARK       I    between atoms: C_9  and  N_13 
REMARK    7  A    between atoms: N_13  and  C_20 
REMARK       I    between atoms: N_14  and  C_29 
REMARK    8  A    between atoms: C_20  and  C_21 
REMARK    9  A    between atoms: C_20  and  C_30 
REMARK       I    between atoms: N_22  and  C_29 
REMARK   10  A    between atoms: N_22  and  C_27 
ROOT
HETATM    1  H           1     -22.368  -6.467  -4.944  0.00  0.00     0.163 HD
HETATM    2  C           1     -20.875  -7.848  -5.324  0.00  0.00     0.249 C 
HETATM    3  O           1     -19.910  -8.102  -6.007  0.00  0.00    -0.271 OA
HETATM    4  N           1     -21.560  -6.679  -5.516  0.00  0.00    -0.345 N 
ENDROOT
BRANCH   4   5
HETATM    5  C           1     -21.129  -5.745  -6.537  0.00  0.00     0.185 C 
BRANCH   5   6
HETATM    6  C           1     -22.277  -4.808  -6.887  0.00  0.00     0.038 C 
BRANCH   6   7
HETATM    7  C           1     -21.754  -3.656  -7.735  0.00  0.00     0.023 C 
BRANCH   7   8
HETATM    8  C           1     -22.409  -3.699  -9.110  0.00  0.00     0.138 C 
BRANCH   8   9
HETATM    9  N           1     -23.825  -3.324  -8.990  0.00  0.00    -0.227 N 
HETATM   10  H           1     -24.143  -2.726  -8.187  0.00  0.00     0.177 HD
HETATM   11  C           1     -24.660  -3.722  -9.853  0.00  0.00     0.665 C 
HETATM   12  N           1     -25.913  -3.390  -9.746  0.00  0.00    -0.235 N 
HETATM   13  N           1     -24.276  -4.443 -10.820  0.00  0.00    -0.235 N 
HETATM   14  H           1     -26.230  -2.794  -8.948  0.00  0.00     0.174 HD
HETATM   15  H           1     -26.603  -3.718 -10.460  0.00  0.00     0.174 HD
HETATM   16  H           1     -24.970  -4.773 -11.537  0.00  0.00     0.174 HD
HETATM   17  H           1     -23.266  -4.711 -10.906  0.00  0.00     0.174 HD
ENDBRANCH   8   9
ENDBRANCH   7   8
ENDBRANCH   6   7
ENDBRANCH   5   6
BRANCH   5  18
HETATM   18  C           1     -19.964  -4.939  -6.020  0.00  0.00     0.196 C 
HETATM   19  O           1     -20.002  -4.451  -4.869  0.00  0.00    -0.646 OA
HETATM   20  O           1     -18.958  -4.759  -6.740  0.00  0.00    -0.646 OA
ENDBRANCH   5  18
ENDBRANCH   4   5
BRANCH   2  21
HETATM   21  C           1     -21.322  -8.821  -4.261  0.00  0.00     0.278 C 
BRANCH  21  22
HETATM   22  C           1     -20.435  -8.676  -3.032  0.00  0.00     0.081 C 
BRANCH  22  23
HETATM   23  C           1     -21.291  -8.501  -1.816  0.00  0.00    -0.056 A 
HETATM   24  C           1     -21.603  -9.602  -1.020  0.00  0.00     0.007 A 
HETATM   25  C           1     -22.401  -9.440   0.113  0.00  0.00     0.001 A 
HETATM   26  C           1     -22.884  -8.176   0.450  0.00  0.00     0.000 A 
HETATM   27  C           1     -22.571  -7.074  -0.347  0.00  0.00     0.001 A 
HETATM   28  C           1     -21.774  -7.237  -1.480  0.00  0.00     0.007 A 
ENDBRANCH  22  23
ENDBRANCH  21  22
BRANCH  21  29
HETATM   29  N           1     -21.218 -10.221  -4.791  0.00  0.00    -0.066 N 
HETATM   30  H           1     -22.176 -10.598  -4.969  0.00  0.00     0.275 HD
HETATM   31  H           1     -20.674 -10.217  -5.683  0.00  0.00     0.275 HD
HETATM   32  H           1     -20.732 -10.823  -4.088  0.00  0.00     0.275 HD
ENDBRANCH  21  29
ENDBRANCH   2  21
TORSDOF 10
ENDMDL
MODEL 5
REMARK VINA RESULT:      -7.5     13.767     16.183
REMARK  10 active torsions:
REMARK  status: ('A' for Active; 'I' for Inactive)
REMARK    1  A    between atoms: C_2  and  C_27 
REMARK    2  A    between atoms: C_2  and  C_21 
REMARK    3  A    between atoms: C_6  and  C_7 
REMARK    4  A    between atoms: C_7  and  C_8 
REMARK    5  A    between atoms: C_8  and  C_9 
REMARK    6  A    between atoms: C_8  and  N_12 
REMARK       I    between atoms: C_9  and  N_13 
REMARK    7  A    between atoms: N_13  and  C_20 
REMARK       I    between atoms: N_14  and  C_29 
REMARK    8  A    between atoms: C_20  and  C_21 
REMARK    9  A    between atoms: C_20  and  C_30 
REMARK       I    between atoms: N_22  and  C_29 
REMARK   10  A    between atoms: N_22  and  C_27 
ROOT
HETATM    1  H           1     -21.704  -7.408  -6.391  0.00  0.00     0.163 HD
HETATM    2  C           1     -21.176  -6.572  -4.574  0.00  0.00     0.249 C 
HETATM    3  O           1     -20.919  -5.543  -3.994  0.00  0.00    -0.271 OA
HETATM    4  N           1     -21.489  -6.547  -5.906  0.00  0.00    -0.345 N 
ENDROOT
BRANCH   4   5
HETATM    5  C           1     -21.513  -5.286  -6.621  0.00  0.00     0.185 C 
BRANCH   5   6
HETATM    6  C           1     -20.821  -5.452  -7.967  0.00  0.00     0.038 C 
BRANCH   6   7
HETATM    7  C           1     -20.130  -4.149  -8.349  0.00  0.00     0.023 C 
BRANCH   7   8
HETATM    8  C           1     -20.314  -3.894  -9.839  0.00  0.00     0.138 C 
BRANCH   8   9
HETATM    9  N           1     -21.568  -4.515 -10.292  0.00  0.00    -0.227 N 
HETATM   10  H           1     -22.145  -5.080  -9.621  0.00  0.00     0.177 HD
HETATM   11  C           1     -21.950  -4.368 -11.489  0.00  0.00     0.665 C 
HETATM   12  N           1     -23.059  -4.918 -11.889  0.00  0.00    -0.235 N 
HETATM   13  N           1     -21.254  -3.687 -12.297  0.00  0.00    -0.235 N 
HETATM   14  H           1     -23.634  -5.480 -11.221  0.00  0.00     0.174 HD
HETATM   15  H           1     -23.375  -4.797 -12.878  0.00  0.00     0.174 HD
HETATM   16  H           1     -21.572  -3.565 -13.291  0.00  0.00     0.174 HD
HETATM   17  H           1     -20.359  -3.244 -11.975  0.00  0.00     0.174 HD
ENDBRANCH   8   9
ENDBRANCH   7   8
ENDBRANCH   6   7
ENDBRANCH   5   6
BRANCH   5  18
HETATM   18  C           1     -22.944  -4.861  -6.842  0.00  0.00     0.196 C 
HETATM   19  O           1     -23.252  -4.205  -7.862  0.00  0.00    -0.646 OA
HETATM   20  O           1     -23.823  -5.166  -6.008  0.00  0.00    -0.646 OA
ENDBRANCH   5  18
ENDBRANCH   4   5
BRANCH   2  21
HETATM   21  C           1     -21.151  -7.883  -3.828  0.00  0.00     0.278 C 
BRANCH  21  22
HETATM   22  C           1     -20.686  -7.647  -2.398  0.00  0.00     0.081 C 
BRANCH  22  23
HETATM   23  C           1     -21.674  -8.247  -1.445  0.00  0.00    -0.056 A 
HETATM   24  C           1     -22.020  -9.593  -1.557  0.00  0.00     0.007 A 
HETATM   25  C           1     -22.941 -10.153  -0.671  0.00  0.00     0.001 A 
HETATM   26  C           1     -23.513  -9.365   0.328  0.00  0.00     0.000 A 
HETATM   27  C           1     -23.166  -8.018   0.440  0.00  0.00     0.001 A 
HETATM   28  C           1     -22.247  -7.459  -0.447  0.00  0.00     0.007 A 
ENDBRANCH  22  23
ENDBRANCH  21  22
BRANCH  21  29
HETATM   29  N           1     -20.207  -8.828  -4.512  0.00  0.00    -0.066 N 
HETATM   30  H           1     -20.635  -9.780  -4.553  0.00  0.00     0.275 HD
HETATM   31  H           1     -20.017  -8.489  -5.482  0.00  0.00     0.275 HD
HETATM   32  H           1     -19.312  -8.872  -3.975  0.00  0.00     0.275 HD
ENDBRANCH  21  29
ENDBRANCH   2  21
TORSDOF 10
ENDMDL
MODEL 6
REMARK VINA RESULT:      -7.3     14.020     15.195
REMARK  10 active torsions:
REMARK  status: ('A' for Active; 'I' for Inactive)
REMARK    1  A    between atoms: C_2  and  C_27 
REMARK    2  A    between atoms: C_2  and  C_21 
REMARK    3  A    between atoms: C_6  and  C_7 
REMARK    4  A    between atoms: C_7  and  C_8 
REMARK    5  A    between atoms: C_8  and  C_9 
REMARK    6  A    between atoms: C_8  and  N_12 
REMARK       I    between atoms: C_9  and  N_13 
REMARK    7  A    between atoms: N_13  and  C_20 
REMARK       I    between atoms: N_14  and  C_29 
REMARK    8  A    between atoms: C_20  and  C_21 
REMARK    9  A    between atoms: C_20  and  C_30 
REMARK       I    between atoms: N_22  and  C_29 
REMARK   10  A    between atoms: N_22  and  C_27 
ROOT
HETATM    1  H           1     -19.953  -6.736  -4.480  0.00  0.00     0.163 HD
HETATM    2  C           1     -21.720  -6.005  -5.271  0.00  0.00     0.249 C 
HETATM    3  O           1     -22.926  -6.089  -5.247  0.00  0.00    -0.271 OA
HETATM    4  N           1     -20.962  -6.806  -4.460  0.00  0.00    -0.345 N 
ENDROOT
BRANCH   4   5
HETATM    5  C           1     -21.606  -7.754  -3.572  0.00  0.00     0.185 C 
BRANCH   5   6
HETATM    6  C           1     -20.927  -9.111  -3.699  0.00  0.00     0.038 C 
BRANCH   6   7
HETATM    7  C           1     -21.986 -10.201  -3.810  0.00  0.00     0.023 C 
BRANCH   7   8
HETATM    8  C           1     -21.885 -11.131  -2.608  0.00  0.00     0.138 C 
BRANCH   8   9
HETATM    9  N           1     -23.129 -11.057  -1.827  0.00  0.00    -0.227 N 
HETATM   10  H           1     -24.038 -11.361  -2.256  0.00  0.00     0.177 HD
HETATM   11  C           1     -23.104 -10.627  -0.637  0.00  0.00     0.665 C 
HETATM   12  N           1     -24.205 -10.561   0.054  0.00  0.00    -0.235 N 
HETATM   13  N           1     -22.009 -10.260  -0.119  0.00  0.00    -0.235 N 
HETATM   14  H           1     -25.109 -10.865  -0.374  0.00  0.00     0.174 HD
HETATM   15  H           1     -24.184 -10.206   1.036  0.00  0.00     0.174 HD
HETATM   16  H           1     -21.989  -9.902   0.869  0.00  0.00     0.174 HD
HETATM   17  H           1     -21.122 -10.312  -0.676  0.00  0.00     0.174 HD
ENDBRANCH   8   9
ENDBRANCH   7   8
ENDBRANCH   6   7
ENDBRANCH   5   6
BRANCH   5  18
HETATM   18  C           1     -21.489  -7.267  -2.148  0.00  0.00     0.196 C 
HETATM   19  O           1     -22.190  -6.308  -1.756  0.00  0.00    -0.646 OA
HETATM   20  O           1     -20.694  -7.823  -1.360  0.00  0.00    -0.646 OA
ENDBRANCH   5  18
ENDBRANCH   4   5
BRANCH   2  21
HETATM   21  C           1     -21.052  -5.017  -6.195  0.00  0.00     0.278 C 
BRANCH  21  22
HETATM   22  C           1     -20.620  -5.726  -7.471  0.00  0.00     0.081 C 
BRANCH  22  23
HETATM   23  C           1     -21.047  -4.920  -8.659  0.00  0.00    -0.056 A 
HETATM   24  C           1     -22.341  -4.404  -8.722  0.00  0.00     0.007 A 
HETATM   25  C           1     -22.739  -3.654  -9.829  0.00  0.00     0.001 A 
HETATM   26  C           1     -21.843  -3.420 -10.872  0.00  0.00     0.000 A 
HETATM   27  C           1     -20.548  -3.937 -10.809  0.00  0.00     0.001 A 
HETATM   28  C           1     -20.150  -4.687  -9.702  0.00  0.00     0.007 A 
ENDBRANCH  22  23
ENDBRANCH  21  22
BRANCH  21  29
HETATM   29  N           1     -19.849  -4.433  -5.515  0.00  0.00    -0.066 N 
HETATM   30  H           1     -20.152  -3.892  -4.674  0.00  0.00     0.275 HD
HETATM   31  H           1     -19.207  -5.203  -5.220  0.00  0.00     0.275 HD
HETATM   32  H           1     -19.350  -3.797  -6.176  0.00  0.00     0.275 HD
ENDBRANCH  21  29
ENDBRANCH   2  21
TORSDOF 10
ENDMDL
MODEL 7
REMARK VINA RESULT:      -7.0     14.637     15.873
REMARK  10 active torsions:
REMARK  status: ('A' for Active; 'I' for Inactive)
REMARK    1  A    between atoms: C_2  and  C_27 
REMARK    2  A    between atoms: C_2  and  C_21 
REMARK    3  A    between atoms: C_6  and  C_7 
REMARK    4  A    between atoms: C_7  and  C_8 
REMARK    5  A    between atoms: C_8  and  C_9 
REMARK    6  A    between atoms: C_8  and  N_12 
REMARK       I    between atoms: C_9  and  N_13 
REMARK    7  A    between atoms: N_13  and  C_20 
REMARK       I    between atoms: N_14  and  C_29 
REMARK    8  A    between atoms: C_20  and  C_21 
REMARK    9  A    between atoms: C_20  and  C_30 
REMARK       I    between atoms: N_22  and  C_29 
REMARK   10  A    between atoms: N_22  and  C_27 
ROOT
HETATM    1  H           1     -21.676  -8.302  -4.129  0.00  0.00     0.163 HD
HETATM    2  C           1     -20.650  -7.322  -5.635  0.00  0.00     0.249 C 
HETATM    3  O           1     -19.709  -7.377  -6.391  0.00  0.00    -0.271 OA
HETATM    4  N           1     -20.888  -8.349  -4.762  0.00  0.00    -0.345 N 
ENDROOT
BRANCH   4   5
HETATM    5  C           1     -20.011  -9.503  -4.745  0.00  0.00     0.185 C 
BRANCH   5   6
HETATM    6  C           1     -19.549  -9.769  -3.319  0.00  0.00     0.038 C 
BRANCH   6   7
HETATM    7  C           1     -20.300  -8.853  -2.361  0.00  0.00     0.023 C 
BRANCH   7   8
HETATM    8  C           1     -20.995  -9.691  -1.296  0.00  0.00     0.138 C 
BRANCH   8   9
HETATM    9  N           1     -22.244  -9.029  -0.890  0.00  0.00    -0.227 N 
HETATM   10  H           1     -23.054  -8.982  -1.557  0.00  0.00     0.177 HD
HETATM   11  C           1     -22.342  -8.516   0.263  0.00  0.00     0.665 C 
HETATM   12  N           1     -23.447  -7.930   0.621  0.00  0.00    -0.235 N 
HETATM   13  N           1     -21.366  -8.573   1.066  0.00  0.00    -0.235 N 
HETATM   14  H           1     -24.253  -7.884  -0.042  0.00  0.00     0.174 HD
HETATM   15  H           1     -23.528  -7.506   1.573  0.00  0.00     0.174 HD
HETATM   16  H           1     -21.447  -8.147   2.023  0.00  0.00     0.174 HD
HETATM   17  H           1     -20.475  -9.045   0.777  0.00  0.00     0.174 HD
ENDBRANCH   8   9
ENDBRANCH   7   8
ENDBRANCH   6   7
ENDBRANCH   5   6
BRANCH   5  18
HETATM   18  C           1     -20.756 -10.708  -5.263  0.00  0.00     0.196 C 
HETATM   19  O           1     -21.673 -11.217  -4.582  0.00  0.00    -0.646 OA
HETATM   20  O           1     -20.459 -11.197  -6.375  0.00  0.00    -0.646 OA
ENDBRANCH   5  18
ENDBRANCH   4   5
BRANCH   2  21
HETATM   21  C           1     -21.563  -6.120  -5.655  0.00  0.00     0.278 C 
BRANCH  21  22
HETATM   22  C           1     -20.768  -4.883  -6.047  0.00  0.00     0.081 C 
BRANCH  22  23
HETATM   23  C           1     -21.119  -4.486  -7.448  0.00  0.00    -0.056 A 
HETATM   24  C           1     -20.133  -4.459  -8.433  0.00  0.00     0.007 A 
HETATM   25  C           1     -20.459  -4.088  -9.737  0.00  0.00     0.001 A 
HETATM   26  C           1     -21.773  -3.746 -10.056  0.00  0.00     0.000 A 
HETATM   27  C           1     -22.760  -3.773  -9.070  0.00  0.00     0.001 A 
HETATM   28  C           1     -22.433  -4.143  -7.766  0.00  0.00     0.007 A 
ENDBRANCH  22  23
ENDBRANCH  21  22
BRANCH  21  29
HETATM   29  N           1     -22.156  -5.923  -4.291  0.00  0.00    -0.066 N 
HETATM   30  H           1     -21.941  -4.957  -3.954  0.00  0.00     0.275 HD
HETATM   31  H           1     -23.192  -6.052  -4.339  0.00  0.00     0.275 HD
HETATM   32  H           1     -21.747  -6.621  -3.630  0.00  0.00     0.275 HD
ENDBRANCH  21  29
ENDBRANCH   2  21
TORSDOF 10
ENDMDL
MODEL 8
REMARK VINA RESULT:      -6.9      4.080      8.194
REMARK  10 active torsions:
REMARK  status: ('A' for Active; 'I' for Inactive)
REMARK    1  A    between atoms: C_2  and  C_27 
REMARK    2  A    between atoms: C_2  and  C_21 
REMARK    3  A    between atoms: C_6  and  C_7 
REMARK    4  A    between atoms: C_7  and  C_8 
REMARK    5  A    between atoms: C_8  and  C_9 
REMARK    6  A    between atoms: C_8  and  N_12 
REMARK       I    between atoms: C_9  and  N_13 
REMARK    7  A    between atoms: N_13  and  C_20 
REMARK       I    between atoms: N_14  and  C_29 
REMARK    8  A    between atoms: C_20  and  C_21 
REMARK    9  A    between atoms: C_20  and  C_30 
REMARK       I    between atoms: N_22  and  C_29 
REMARK   10  A    between atoms: N_22  and  C_27 
ROOT
HETATM    1  H           1     -30.606  -3.962 -15.645  0.00  0.00     0.163 HD
HETATM    2  C           1     -32.300  -4.888 -16.389  0.00  0.00     0.249 C 
HETATM    3  O           1     -32.723  -5.850 -16.986  0.00  0.00    -0.271 OA
HETATM    4  N           1     -30.959  -4.769 -16.144  0.00  0.00    -0.345 N 
ENDROOT
BRANCH   4   5
HETATM    5  C           1     -30.045  -5.797 -16.599  0.00  0.00     0.185 C 
BRANCH   5   6
HETATM    6  C           1     -29.580  -5.475 -18.013  0.00  0.00     0.038 C 
BRANCH   6   7
HETATM    7  C           1     -28.751  -6.633 -18.553  0.00  0.00     0.023 C 
BRANCH   7   8
HETATM    8  C           1     -27.484  -6.092 -19.204  0.00  0.00     0.138 C 
BRANCH   8   9
HETATM    9  N           1     -26.307  -6.661 -18.533  0.00  0.00    -0.227 N 
HETATM   10  H           1     -26.334  -6.858 -17.502  0.00  0.00     0.177 HD
HETATM   11  C           1     -25.259  -6.912 -19.198  0.00  0.00     0.665 C 
HETATM   12  N           1     -24.218  -7.415 -18.604  0.00  0.00    -0.235 N 
HETATM   13  N           1     -25.227  -6.674 -20.440  0.00  0.00    -0.235 N 
HETATM   14  H           1     -24.245  -7.612 -17.578  0.00  0.00     0.174 HD
HETATM   15  H           1     -23.353  -7.623 -19.153  0.00  0.00     0.174 HD
HETATM   16  H           1     -24.357  -6.883 -20.992  0.00  0.00     0.174 HD
HETATM   17  H           1     -26.067  -6.268 -20.920  0.00  0.00     0.174 HD
ENDBRANCH   8   9
ENDBRANCH   7   8
ENDBRANCH   6   7
ENDBRANCH   5   6
BRANCH   5  18
HETATM   18  C           1     -28.851  -5.851 -15.679  0.00  0.00     0.196 C 
HETATM   19  O           1     -28.123  -4.843 -15.539  0.00  0.00    -0.646 OA
HETATM   20  O           1     -28.589  -6.901 -15.054  0.00  0.00    -0.646 OA
ENDBRANCH   5  18
ENDBRANCH   4   5
BRANCH   2  21
HETATM   21  C           1     -33.253  -3.818 -15.916  0.00  0.00     0.278 C 
BRANCH  21  22
HETATM   22  C           1     -34.223  -4.412 -14.904  0.00  0.00     0.081 C 
BRANCH  22  23
HETATM   23  C           1     -34.004  -3.775 -13.567  0.00  0.00    -0.056 A 
HETATM   24  C           1     -34.717  -2.630 -13.215  0.00  0.00     0.007 A 
HETATM   25  C           1     -34.512  -2.035 -11.970  0.00  0.00     0.001 A 
HETATM   26  C           1     -33.595  -2.589 -11.076  0.00  0.00     0.000 A 
HETATM   27  C           1     -32.882  -3.736 -11.428  0.00  0.00     0.001 A 
HETATM   28  C           1     -33.087  -4.329 -12.673  0.00  0.00     0.007 A 
ENDBRANCH  22  23
ENDBRANCH  21  22
BRANCH  21  29
HETATM   29  N           1     -34.019  -3.279 -17.087  0.00  0.00    -0.066 N 
HETATM   30  H           1     -35.044  -3.337 -16.890  0.00  0.00     0.275 HD
HETATM   31  H           1     -33.753  -2.281 -17.249  0.00  0.00     0.275 HD
HETATM   32  H           1     -33.796  -3.843 -17.938  0.00  0.00     0.275 HD
ENDBRANCH  21  29
ENDBRANCH   2  21
TORSDOF 10
ENDMDL
MODEL 9
REMARK VINA RESULT:      -6.8     14.507     16.792
REMARK  10 active torsions:
REMARK  status: ('A' for Active; 'I' for Inactive)
REMARK    1  A    between atoms: C_2  and  C_27 
REMARK    2  A    between atoms: C_2  and  C_21 
REMARK    3  A    between atoms: C_6  and  C_7 
REMARK    4  A    between atoms: C_7  and  C_8 
REMARK    5  A    between atoms: C_8  and  C_9 
REMARK    6  A    between atoms: C_8  and  N_12 
REMARK       I    between atoms: C_9  and  N_13 
REMARK    7  A    between atoms: N_13  and  C_20 
REMARK       I    between atoms: N_14  and  C_29 
REMARK    8  A    between atoms: C_20  and  C_21 
REMARK    9  A    between atoms: C_20  and  C_30 
REMARK       I    between atoms: N_22  and  C_29 
REMARK   10  A    between atoms: N_22  and  C_27 
ROOT
HETATM    1  H           1     -21.658  -8.755  -5.707  0.00  0.00     0.163 HD
HETATM    2  C           1     -20.399  -9.153  -4.113  0.00  0.00     0.249 C 
HETATM    3  O           1     -19.673  -8.666  -3.278  0.00  0.00    -0.271 OA
HETATM    4  N           1     -21.050  -8.347  -5.008  0.00  0.00    -0.345 N 
ENDROOT
BRANCH   4   5
HETATM    5  C           1     -20.869  -6.909  -4.954  0.00  0.00     0.185 C 
BRANCH   5   6
HETATM    6  C           1     -20.587  -6.380  -6.353  0.00  0.00     0.038 C 
BRANCH   6   7
HETATM    7  C           1     -20.073  -4.948  -6.262  0.00  0.00     0.023 C 
BRANCH   7   8
HETATM    8  C           1     -20.564  -4.155  -7.467  0.00  0.00     0.138 C 
BRANCH   8   9
HETATM    9  N           1     -22.012  -3.932  -7.349  0.00  0.00    -0.227 N 
HETATM   10  H           1     -22.418  -3.581  -6.446  0.00  0.00     0.177 HD
HETATM   11  C           1     -22.771  -4.162  -8.336  0.00  0.00     0.665 C 
HETATM   12  N           1     -24.052  -3.965  -8.231  0.00  0.00    -0.235 N 
HETATM   13  N           1     -22.282  -4.585  -9.424  0.00  0.00    -0.235 N 
HETATM   14  H           1     -24.455  -3.615  -7.332  0.00  0.00     0.174 HD
HETATM   15  H           1     -24.678  -4.156  -9.046  0.00  0.00     0.174 HD
HETATM   16  H           1     -22.911  -4.777 -10.243  0.00  0.00     0.174 HD
HETATM   17  H           1     -21.248  -4.745  -9.508  0.00  0.00     0.174 HD
ENDBRANCH   8   9
ENDBRANCH   7   8
ENDBRANCH   6   7
ENDBRANCH   5   6
BRANCH   5  18
HETATM   18  C           1     -22.123  -6.265  -4.417  0.00  0.00     0.196 C 
HETATM   19  O           1     -22.238  -6.045  -3.191  0.00  0.00    -0.646 OA
HETATM   20  O           1     -23.047  -5.949  -5.197  0.00  0.00    -0.646 OA
ENDBRANCH   5  18
ENDBRANCH   4   5
BRANCH   2  21
HETATM   21  C           1     -20.588 -10.649  -4.167  0.00  0.00     0.278 C 
BRANCH  21  22
HETATM   22  C           1     -20.329 -11.245  -2.791  0.00  0.00     0.081 C 
BRANCH  22  23
HETATM   23  C           1     -21.546 -11.072  -1.935  0.00  0.00    -0.056 A 
HETATM   24  C           1     -22.742 -11.695  -2.290  0.00  0.00     0.007 A 
HETATM   25  C           1     -23.876 -11.533  -1.494  0.00  0.00     0.001 A 
HETATM   26  C           1     -23.812 -10.751  -0.341  0.00  0.00     0.000 A 
HETATM   27  C           1     -22.615 -10.128   0.015  0.00  0.00     0.001 A 
HETATM   28  C           1     -21.482 -10.289  -0.782  0.00  0.00     0.007 A 
ENDBRANCH  22  23
ENDBRANCH  21  22
BRANCH  21  29
HETATM   29  N           1     -19.624 -11.237  -5.156  0.00  0.00    -0.066 N 
HETATM   30  H           1     -20.137 -11.877  -5.803  0.00  0.00     0.275 HD
HETATM   31  H           1     -19.178 -10.469  -5.707  0.00  0.00     0.275 HD
HETATM   32  H           1     -18.888 -11.774  -4.646  0.00  0.00     0.275 HD
ENDBRANCH  21  29
ENDBRANCH   2  21
TORSDOF 10
ENDMDL
