MODEL 1
REMARK VINA RESULT:      -6.7      0.000      0.000
REMARK  17 active torsions:
REMARK  status: ('A' for Active; 'I' for Inactive)
REMARK    1  A    between atoms: C_2  and  C_12 
REMARK    2  A    between atoms: C_2  and  C_3 
REMARK    3  A    between atoms: C_2  and  N_7 
REMARK    4  A    between atoms: C_6  and  N_7 
REMARK    5  A    between atoms: C_6  and  C_22 
REMARK    6  A    between atoms: N_9  and  C_10 
REMARK    7  A    between atoms: C_10  and  C_11 
REMARK    8  A    between atoms: C_11  and  C_12 
REMARK    9  A    between atoms: C_13  and  C_30 
REMARK   10  A    between atoms: C_13  and  C_20 
REMARK       I    between atoms: N_16  and  C_17 
REMARK       I    between atoms: C_17  and  N_18 
REMARK   11  A    between atoms: N_18  and  C_19 
REMARK   12  A    between atoms: C_19  and  C_20 
REMARK   13  A    between atoms: C_22  and  C_23 
REMARK   14  A    between atoms: C_23  and  C_24 
REMARK   15  A    between atoms: C_23  and  N_27 
REMARK       I    between atoms: N_27  and  C_28 
REMARK   16  A    between atoms: C_28  and  C_30 
REMARK   17  A    between atoms: C_30  and  N_36 
ROOT
HETATM    1  H           1     -34.511  -1.542 -17.196  0.00  0.00     0.163 HD
HETATM    2  N           1     -34.752  -1.955 -16.304  0.00  0.00    -0.345 N 
HETATM    3  C           1     -34.238  -3.174 -15.952  0.00  0.00     0.249 C 
HETATM    4  O           1     -34.526  -3.667 -14.888  0.00  0.00    -0.271 OA
ENDROOT
BRANCH   2   5
HETATM    5  C           1     -35.642  -1.256 -15.398  0.00  0.00     0.187 C 
BRANCH   5   6
HETATM    6  C           1     -34.835  -0.290 -14.540  0.00  0.00     0.066 C 
BRANCH   6   7
HETATM    7  C           1     -35.457  -0.201 -13.153  0.00  0.00     0.273 C 
BRANCH   7   8
HETATM    8  N           1     -34.453  -0.466 -12.158  0.00  0.00     0.098 N 
HETATM    9  H           1     -34.535   0.216 -11.403  0.00  0.00     0.317 HD
BRANCH   8  10
HETATM   10  C           1     -34.687  -1.787 -11.641  0.00  0.00     0.320 C 
BRANCH  10  11
HETATM   11  C           1     -33.429  -2.288 -10.944  0.00  0.00     0.048 C 
BRANCH  11  12
HETATM   12  C           1     -32.932  -3.550 -11.636  0.00  0.00     0.030 C 
BRANCH  12  13
HETATM   13  C           1     -33.764  -4.741 -11.180  0.00  0.00     0.230 C 
BRANCH  13  14
HETATM   14  N           1     -34.508  -5.310 -12.352  0.00  0.00    -0.079 N 
HETATM   15  H           1     -34.242  -4.792 -13.219  0.00  0.00     0.274 HD
HETATM   16  H           1     -34.263  -6.321 -12.461  0.00  0.00     0.274 HD
HETATM   17  H           1     -35.536  -5.216 -12.190  0.00  0.00     0.274 HD
ENDBRANCH  13  14
ENDBRANCH  12  13
ENDBRANCH  11  12
ENDBRANCH  10  11
BRANCH  10  18
HETATM   18  C           1     -35.827  -1.745 -10.654  0.00  0.00     0.207 C 
HETATM   19  O           1     -35.886  -0.829  -9.805  0.00  0.00    -0.646 OA
HETATM   20  O           1     -36.712  -2.626 -10.684  0.00  0.00    -0.646 OA
ENDBRANCH  10  18
ENDBRANCH   8  10
ENDBRANCH   7   8
ENDBRANCH   6   7
ENDBRANCH   5   6
BRANCH   5  21
HETATM   21  C           1     -36.667  -0.485 -16.194  0.00  0.00     0.196 C 
HETATM   22  O           1     -37.617  -1.089 -16.740  0.00  0.00    -0.646 OA
HETATM   23  O           1     -36.567   0.755 -16.308  0.00  0.00    -0.646 OA
ENDBRANCH   5  21
ENDBRANCH   2   5
BRANCH   3  24
HETATM   24  C           1     -33.312  -3.902 -16.895  0.00  0.00     0.274 C 
BRANCH  24  25
HETATM   25  C           1     -32.441  -4.872 -16.106  0.00  0.00     0.044 C 
BRANCH  25  26
HETATM   26  C           1     -31.250  -5.292 -16.957  0.00  0.00     0.023 C 
BRANCH  26  27
HETATM   27  C           1     -30.021  -5.450 -16.071  0.00  0.00     0.138 C 
BRANCH  27  28
HETATM   28  N           1     -28.808  -5.373 -16.897  0.00  0.00    -0.227 N 
HETATM   29  H           1     -28.583  -4.490 -17.420  0.00  0.00     0.177 HD
HETATM   30  C           1     -28.033  -6.371 -16.978  0.00  0.00     0.665 C 
HETATM   31  N           1     -26.988  -6.305 -17.690  0.00  0.00    -0.235 N 
HETATM   32  N           1     -28.311  -7.463 -16.331  0.00  0.00    -0.235 N 
HETATM   33  H           1     -26.346  -7.132 -17.757  0.00  0.00     0.174 HD
HETATM   34  H           1     -26.764  -5.422 -18.213  0.00  0.00     0.174 HD
HETATM   35  H           1     -29.173  -7.518 -15.743  0.00  0.00     0.174 HD
HETATM   36  H           1     -27.671  -8.287 -16.398  0.00  0.00     0.174 HD
ENDBRANCH  27  28
ENDBRANCH  26  27
ENDBRANCH  25  26
ENDBRANCH  24  25
BRANCH  24  37
HETATM   37  N           1     -32.437  -2.908 -17.602  0.00  0.00    -0.067 N 
HETATM   38  H           1     -32.978  -2.456 -18.374  0.00  0.00     0.275 HD
HETATM   39  H           1     -32.122  -2.178 -16.924  0.00  0.00     0.275 HD
HETATM   40  H           1     -31.606  -3.398 -18.001  0.00  0.00     0.275 HD
ENDBRANCH  24  37
ENDBRANCH   3  24
TORSDOF 17
ENDMDL
MODEL 2
REMARK VINA RESULT:      -6.6      2.174      3.346
REMARK  17 active torsions:
REMARK  status: ('A' for Active; 'I' for Inactive)
REMARK    1  A    between atoms: C_2  and  C_12 
REMARK    2  A    between atoms: C_2  and  C_3 
REMARK    3  A    between atoms: C_2  and  N_7 
REMARK    4  A    between atoms: C_6  and  N_7 
REMARK    5  A    between atoms: C_6  and  C_22 
REMARK    6  A    between atoms: N_9  and  C_10 
REMARK    7  A    between atoms: C_10  and  C_11 
REMARK    8  A    between atoms: C_11  and  C_12 
REMARK    9  A    between atoms: C_13  and  C_30 
REMARK   10  A    between atoms: C_13  and  C_20 
REMARK       I    between atoms: N_16  and  C_17 
REMARK       I    between atoms: C_17  and  N_18 
REMARK   11  A    between atoms: N_18  and  C_19 
REMARK   12  A    between atoms: C_19  and  C_20 
REMARK   13  A    between atoms: C_22  and  C_23 
REMARK   14  A    between atoms: C_23  and  C_24 
REMARK   15  A    between atoms: C_23  and  N_27 
REMARK       I    between atoms: N_27  and  C_28 
REMARK   16  A    between atoms: C_28  and  C_30 
REMARK   17  A    between atoms: C_30  and  N_36 
ROOT
HETATM    1  H           1     -31.811  -3.849 -15.289  0.00  0.00     0.163 HD
HETATM    2  N           1     -32.229  -4.499 -15.943  0.00  0.00    -0.345 N 
HETATM    3  C           1     -31.447  -5.421 -16.586  0.00  0.00     0.249 C 
HETATM    4  O           1     -31.945  -6.196 -17.366  0.00  0.00    -0.271 OA
ENDROOT
BRANCH   2   5
HETATM    5  C           1     -33.655  -4.453 -16.200  0.00  0.00     0.187 C 
BRANCH   5   6
HETATM    6  C           1     -34.411  -4.705 -14.902  0.00  0.00     0.066 C 
BRANCH   6   7
HETATM    7  C           1     -33.612  -4.149 -13.731  0.00  0.00     0.273 C 
BRANCH   7   8
HETATM    8  N           1     -34.328  -3.053 -13.138  0.00  0.00     0.098 N 
HETATM    9  H           1     -35.112  -2.795 -13.739  0.00  0.00     0.317 HD
BRANCH   8  10
HETATM   10  C           1     -34.826  -3.494 -11.863  0.00  0.00     0.320 C 
BRANCH  10  11
HETATM   11  C           1     -33.688  -4.111 -11.061  0.00  0.00     0.048 C 
BRANCH  11  12
HETATM   12  C           1     -34.227  -5.251 -10.208  0.00  0.00     0.030 C 
BRANCH  12  13
HETATM   13  C           1     -34.603  -6.424 -11.105  0.00  0.00     0.230 C 
BRANCH  13  14
HETATM   14  N           1     -34.005  -7.685 -10.557  0.00  0.00    -0.079 N 
HETATM   15  H           1     -33.247  -8.018 -11.194  0.00  0.00     0.274 HD
HETATM   16  H           1     -33.606  -7.497  -9.608  0.00  0.00     0.274 HD
HETATM   17  H           1     -34.746  -8.418 -10.484  0.00  0.00     0.274 HD
ENDBRANCH  13  14
ENDBRANCH  12  13
ENDBRANCH  11  12
ENDBRANCH  10  11
BRANCH  10  18
HETATM   18  C           1     -35.391  -2.315 -11.109  0.00  0.00     0.207 C 
HETATM   19  O           1     -34.697  -1.287 -10.944  0.00  0.00    -0.646 OA
HETATM   20  O           1     -36.551  -2.365 -10.650  0.00  0.00    -0.646 OA
ENDBRANCH  10  18
ENDBRANCH   8  10
ENDBRANCH   7   8
ENDBRANCH   6   7
ENDBRANCH   5   6
BRANCH   5  21
HETATM   21  C           1     -34.026  -3.095 -16.742  0.00  0.00     0.196 C 
HETATM   22  O           1     -33.325  -2.566 -17.633  0.00  0.00    -0.646 OA
HETATM   23  O           1     -35.031  -2.498 -16.301  0.00  0.00    -0.646 OA
ENDBRANCH   5  21
ENDBRANCH   2   5
BRANCH   3  24
HETATM   24  C           1     -29.963  -5.469 -16.319  0.00  0.00     0.274 C 
BRANCH  24  25
HETATM   25  C           1     -29.338  -6.604 -17.120  0.00  0.00     0.044 C 
BRANCH  25  26
HETATM   26  C           1     -28.151  -6.071 -17.914  0.00  0.00     0.023 C 
BRANCH  26  27
HETATM   27  C           1     -26.966  -5.864 -16.980  0.00  0.00     0.138 C 
BRANCH  27  28
HETATM   28  N           1     -25.890  -6.800 -17.340  0.00  0.00    -0.227 N 
HETATM   29  H           1     -25.881  -7.250 -18.288  0.00  0.00     0.177 HD
HETATM   30  C           1     -24.975  -7.062 -16.505  0.00  0.00     0.665 C 
HETATM   31  N           1     -24.049  -7.868 -16.814  0.00  0.00    -0.235 N 
HETATM   32  N           1     -24.987  -6.504 -15.331  0.00  0.00    -0.235 N 
HETATM   33  H           1     -23.290  -8.085 -16.122  0.00  0.00     0.174 HD
HETATM   34  H           1     -24.040  -8.319 -17.763  0.00  0.00     0.174 HD
HETATM   35  H           1     -25.751  -5.838 -15.076  0.00  0.00     0.174 HD
HETATM   36  H           1     -24.231  -6.720 -14.642  0.00  0.00     0.174 HD
ENDBRANCH  27  28
ENDBRANCH  26  27
ENDBRANCH  25  26
ENDBRANCH  24  25
BRANCH  24  37
HETATM   37  N           1     -29.726  -5.701 -14.855  0.00  0.00    -0.067 N 
HETATM   38  H           1     -28.750  -6.044 -14.711  0.00  0.00     0.275 HD
HETATM   39  H           1     -29.861  -4.805 -14.335  0.00  0.00     0.275 HD
HETATM   40  H           1     -30.402  -6.415 -14.503  0.00  0.00     0.275 HD
ENDBRANCH  24  37
ENDBRANCH   3  24
TORSDOF 17
ENDMDL
MODEL 3
REMARK VINA RESULT:      -6.5     13.373     15.987
REMARK  17 active torsions:
REMARK  status: ('A' for Active; 'I' for Inactive)
REMARK    1  A    between atoms: C_2  and  C_12 
REMARK    2  A    between atoms: C_2  and  C_3 
REMARK    3  A    between atoms: C_2  and  N_7 
REMARK    4  A    between atoms: C_6  and  N_7 
REMARK    5  A    between atoms: C_6  and  C_22 
REMARK    6  A    between atoms: N_9  and  C_10 
REMARK    7  A    between atoms: C_10  and  C_11 
REMARK    8  A    between atoms: C_11  and  C_12 
REMARK    9  A    between atoms: C_13  and  C_30 
REMARK   10  A    between atoms: C_13  and  C_20 
REMARK       I    between atoms: N_16  and  C_17 
REMARK       I    between atoms: C_17  and  N_18 
REMARK   11  A    between atoms: N_18  and  C_19 
REMARK   12  A    between atoms: C_19  and  C_20 
REMARK   13  A    between atoms: C_22  and  C_23 
REMARK   14  A    between atoms: C_23  and  C_24 
REMARK   15  A    between atoms: C_23  and  N_27 
REMARK       I    between atoms: N_27  and  C_28 
REMARK   16  A    between atoms: C_28  and  C_30 
REMARK   17  A    between atoms: C_30  and  N_36 
ROOT
HETATM    1  H           1     -20.569  -4.767  -4.449  0.00  0.00     0.163 HD
HETATM    2  N           1     -21.031  -5.537  -4.916  0.00  0.00    -0.345 N 
HETATM    3  C           1     -21.495  -6.599  -4.187  0.00  0.00     0.249 C 
HETATM    4  O           1     -22.047  -7.518  -4.743  0.00  0.00    -0.271 OA
ENDROOT
BRANCH   2   5
HETATM    5  C           1     -21.201  -5.516  -6.355  0.00  0.00     0.187 C 
BRANCH   5   6
HETATM    6  C           1     -21.802  -4.181  -6.775  0.00  0.00     0.066 C 
BRANCH   6   7
HETATM    7  C           1     -23.156  -4.417  -7.431  0.00  0.00     0.273 C 
BRANCH   7   8
HETATM    8  N           1     -22.978  -4.606  -8.845  0.00  0.00     0.098 N 
HETATM    9  H           1     -23.604  -5.342  -9.171  0.00  0.00     0.317 HD
BRANCH   8  10
HETATM   10  C           1     -23.311  -3.368  -9.497  0.00  0.00     0.320 C 
BRANCH  10  11
HETATM   11  C           1     -22.167  -2.955 -10.414  0.00  0.00     0.048 C 
BRANCH  11  12
HETATM   12  C           1     -21.015  -3.939 -10.263  0.00  0.00     0.030 C 
BRANCH  12  13
HETATM   13  C           1     -20.684  -4.548 -11.620  0.00  0.00     0.230 C 
BRANCH  13  14
HETATM   14  N           1     -21.588  -3.963 -12.664  0.00  0.00    -0.079 N 
HETATM   15  H           1     -21.560  -4.559 -13.523  0.00  0.00     0.274 HD
HETATM   16  H           1     -22.567  -3.927 -12.297  0.00  0.00     0.274 HD
HETATM   17  H           1     -21.269  -2.997 -12.900  0.00  0.00     0.274 HD
ENDBRANCH  13  14
ENDBRANCH  12  13
ENDBRANCH  11  12
ENDBRANCH  10  11
BRANCH  10  18
HETATM   18  C           1     -24.568  -3.553 -10.312  0.00  0.00     0.207 C 
HETATM   19  O           1     -25.676  -3.222  -9.836  0.00  0.00    -0.646 OA
HETATM   20  O           1     -24.502  -4.037 -11.462  0.00  0.00    -0.646 OA
ENDBRANCH  10  18
ENDBRANCH   8  10
ENDBRANCH   7   8
ENDBRANCH   6   7
ENDBRANCH   5   6
BRANCH   5  21
HETATM   21  C           1     -19.860  -5.696  -7.023  0.00  0.00     0.196 C 
HETATM   22  O           1     -19.362  -6.839  -7.126  0.00  0.00    -0.646 OA
HETATM   23  O           1     -19.247  -4.705  -7.474  0.00  0.00    -0.646 OA
ENDBRANCH   5  21
ENDBRANCH   2   5
BRANCH   3  24
HETATM   24  C           1     -21.318  -6.621  -2.689  0.00  0.00     0.274 C 
BRANCH  24  25
HETATM   25  C           1     -21.286  -8.064  -2.201  0.00  0.00     0.044 C 
BRANCH  25  26
HETATM   26  C           1     -19.855  -8.584  -2.249  0.00  0.00     0.023 C 
BRANCH  26  27
HETATM   27  C           1     -19.798  -9.843  -3.104  0.00  0.00     0.138 C 
BRANCH  27  28
HETATM   28  N           1     -19.565  -9.472  -4.507  0.00  0.00    -0.227 N 
HETATM   29  H           1     -20.342  -9.055  -5.076  0.00  0.00     0.177 HD
HETATM   30  C           1     -18.426  -9.656  -5.029  0.00  0.00     0.665 C 
HETATM   31  N           1     -18.225  -9.337  -6.237  0.00  0.00    -0.235 N 
HETATM   32  N           1     -17.464 -10.173  -4.324  0.00  0.00    -0.235 N 
HETATM   33  H           1     -17.281  -9.489  -6.671  0.00  0.00     0.174 HD
HETATM   34  H           1     -19.003  -8.920  -6.807  0.00  0.00     0.174 HD
HETATM   35  H           1     -17.630 -10.436  -3.326  0.00  0.00     0.174 HD
HETATM   36  H           1     -16.524 -10.324  -4.755  0.00  0.00     0.174 HD
ENDBRANCH  27  28
ENDBRANCH  26  27
ENDBRANCH  25  26
ENDBRANCH  24  25
BRANCH  24  37
HETATM   37  N           1     -22.462  -5.900  -2.040  0.00  0.00    -0.067 N 
HETATM   38  H           1     -22.493  -6.138  -1.023  0.00  0.00     0.275 HD
HETATM   39  H           1     -22.332  -4.868  -2.152  0.00  0.00     0.275 HD
HETATM   40  H           1     -23.358  -6.190  -2.492  0.00  0.00     0.275 HD
ENDBRANCH  24  37
ENDBRANCH   3  24
TORSDOF 17
ENDMDL
MODEL 4
REMARK VINA RESULT:      -6.5      5.034     10.866
REMARK  17 active torsions:
REMARK  status: ('A' for Active; 'I' for Inactive)
REMARK    1  A    between atoms: C_2  and  C_12 
REMARK    2  A    between atoms: C_2  and  C_3 
REMARK    3  A    between atoms: C_2  and  N_7 
REMARK    4  A    between atoms: C_6  and  N_7 
REMARK    5  A    between atoms: C_6  and  C_22 
REMARK    6  A    between atoms: N_9  and  C_10 
REMARK    7  A    between atoms: C_10  and  C_11 
REMARK    8  A    between atoms: C_11  and  C_12 
REMARK    9  A    between atoms: C_13  and  C_30 
REMARK   10  A    between atoms: C_13  and  C_20 
REMARK       I    between atoms: N_16  and  C_17 
REMARK       I    between atoms: C_17  and  N_18 
REMARK   11  A    between atoms: N_18  and  C_19 
REMARK   12  A    between atoms: C_19  and  C_20 
REMARK   13  A    between atoms: C_22  and  C_23 
REMARK   14  A    between atoms: C_23  and  C_24 
REMARK   15  A    between atoms: C_23  and  N_27 
REMARK       I    between atoms: N_27  and  C_28 
REMARK   16  A    between atoms: C_28  and  C_30 
REMARK   17  A    between atoms: C_30  and  N_36 
ROOT
HETATM    1  H           1     -28.093  -4.722 -15.856  0.00  0.00     0.163 HD
HETATM    2  N           1     -28.360  -5.406 -16.552  0.00  0.00    -0.345 N 
HETATM    3  C           1     -29.557  -5.286 -17.207  0.00  0.00     0.249 C 
HETATM    4  O           1     -29.876  -6.102 -18.037  0.00  0.00    -0.271 OA
ENDROOT
BRANCH   2   5
HETATM    5  C           1     -27.477  -6.515 -16.856  0.00  0.00     0.187 C 
BRANCH   5   6
HETATM    6  C           1     -26.209  -5.987 -17.515  0.00  0.00     0.066 C 
BRANCH   6   7
HETATM    7  C           1     -25.970  -6.728 -18.824  0.00  0.00     0.273 C 
BRANCH   7   8
HETATM    8  N           1     -27.164  -6.689 -19.623  0.00  0.00     0.098 N 
HETATM    9  H           1     -27.379  -5.722 -19.866  0.00  0.00     0.317 HD
BRANCH   8  10
HETATM   10  C           1     -26.912  -7.441 -20.823  0.00  0.00     0.320 C 
BRANCH  10  11
HETATM   11  C           1     -25.475  -7.945 -20.813  0.00  0.00     0.048 C 
BRANCH  11  12
HETATM   12  C           1     -24.731  -7.381 -22.016  0.00  0.00     0.030 C 
BRANCH  12  13
HETATM   13  C           1     -23.528  -8.262 -22.329  0.00  0.00     0.230 C 
BRANCH  13  14
HETATM   14  N           1     -22.982  -8.833 -21.054  0.00  0.00    -0.079 N 
HETATM   15  H           1     -23.058  -9.875 -21.078  0.00  0.00     0.274 HD
HETATM   16  H           1     -21.977  -8.560 -20.953  0.00  0.00     0.274 HD
HETATM   17  H           1     -23.527  -8.462 -20.244  0.00  0.00     0.274 HD
ENDBRANCH  13  14
ENDBRANCH  12  13
ENDBRANCH  11  12
ENDBRANCH  10  11
BRANCH  10  18
HETATM   18  C           1     -27.857  -8.615 -20.888  0.00  0.00     0.207 C 
HETATM   19  O           1     -27.647  -9.543 -21.700  0.00  0.00    -0.646 OA
HETATM   20  O           1     -28.849  -8.662 -20.130  0.00  0.00    -0.646 OA
ENDBRANCH  10  18
ENDBRANCH   8  10
ENDBRANCH   7   8
ENDBRANCH   6   7
ENDBRANCH   5   6
BRANCH   5  21
HETATM   21  C           1     -27.117  -7.237 -15.581  0.00  0.00     0.196 C 
HETATM   22  O           1     -25.917  -7.367 -15.254  0.00  0.00    -0.646 OA
HETATM   23  O           1     -28.018  -7.706 -14.852  0.00  0.00    -0.646 OA
ENDBRANCH   5  21
ENDBRANCH   2   5
BRANCH   3  24
HETATM   24  C           1     -30.476  -4.132 -16.890  0.00  0.00     0.274 C 
BRANCH  24  25
HETATM   25  C           1     -31.913  -4.631 -16.819  0.00  0.00     0.044 C 
BRANCH  25  26
HETATM   26  C           1     -32.839  -3.608 -17.465  0.00  0.00     0.023 C 
BRANCH  26  27
HETATM   27  C           1     -33.873  -3.142 -16.448  0.00  0.00     0.138 C 
BRANCH  27  28
HETATM   28  N           1     -34.876  -2.302 -17.119  0.00  0.00    -0.227 N 
HETATM   29  H           1     -35.127  -2.484 -18.121  0.00  0.00     0.177 HD
HETATM   30  C           1     -35.437  -1.360 -16.485  0.00  0.00     0.665 C 
HETATM   31  N           1     -36.300  -0.636 -17.062  0.00  0.00    -0.235 N 
HETATM   32  N           1     -35.125  -1.136 -15.244  0.00  0.00    -0.235 N 
HETATM   33  H           1     -36.765   0.145 -16.538  0.00  0.00     0.174 HD
HETATM   34  H           1     -36.551  -0.818 -18.066  0.00  0.00     0.174 HD
HETATM   35  H           1     -34.412  -1.734 -14.767  0.00  0.00     0.174 HD
HETATM   36  H           1     -35.589  -0.358 -14.721  0.00  0.00     0.174 HD
ENDBRANCH  27  28
ENDBRANCH  26  27
ENDBRANCH  25  26
ENDBRANCH  24  25
BRANCH  24  37
HETATM   37  N           1     -30.361  -3.092 -17.966  0.00  0.00    -0.067 N 
HETATM   38  H           1     -29.387  -2.712 -17.980  0.00  0.00     0.275 HD
HETATM   39  H           1     -30.580  -3.524 -18.892  0.00  0.00     0.275 HD
HETATM   40  H           1     -31.034  -2.317 -17.773  0.00  0.00     0.275 HD
ENDBRANCH  24  37
ENDBRANCH   3  24
TORSDOF 17
ENDMDL
MODEL 5
REMARK VINA RESULT:      -6.3     14.815     17.236
REMARK  17 active torsions:
REMARK  status: ('A' for Active; 'I' for Inactive)
REMARK    1  A    between atoms: C_2  and  C_12 
REMARK    2  A    between atoms: C_2  and  C_3 
REMARK    3  A    between atoms: C_2  and  N_7 
REMARK    4  A    between atoms: C_6  and  N_7 
REMARK    5  A    between atoms: C_6  and  C_22 
REMARK    6  A    between atoms: N_9  and  C_10 
REMARK    7  A    between atoms: C_10  and  C_11 
REMARK    8  A    between atoms: C_11  and  C_12 
REMARK    9  A    between atoms: C_13  and  C_30 
REMARK   10  A    between atoms: C_13  and  C_20 
REMARK       I    between atoms: N_16  and  C_17 
REMARK       I    between atoms: C_17  and  N_18 
REMARK   11  A    between atoms: N_18  and  C_19 
REMARK   12  A    between atoms: C_19  and  C_20 
REMARK   13  A    between atoms: C_22  and  C_23 
REMARK   14  A    between atoms: C_23  and  C_24 
REMARK   15  A    between atoms: C_23  and  N_27 
REMARK       I    between atoms: N_27  and  C_28 
REMARK   16  A    between atoms: C_28  and  C_30 
REMARK   17  A    between atoms: C_30  and  N_36 
ROOT
HETATM    1  H           1     -22.534  -8.721  -4.876  0.00  0.00     0.163 HD
HETATM    2  N           1     -21.536  -8.854  -4.966  0.00  0.00    -0.345 N 
HETATM    3  C           1     -20.752  -7.847  -5.465  0.00  0.00     0.249 C 
HETATM    4  O           1     -19.560  -8.005  -5.572  0.00  0.00    -0.271 OA
ENDROOT
BRANCH   2   5
HETATM    5  C           1     -20.932 -10.110  -4.568  0.00  0.00     0.187 C 
BRANCH   5   6
HETATM    6  C           1     -21.650 -10.649  -3.337  0.00  0.00     0.066 C 
BRANCH   6   7
HETATM    7  C           1     -20.656 -10.800  -2.193  0.00  0.00     0.273 C 
BRANCH   7   8
HETATM    8  N           1     -20.597  -9.574  -1.444  0.00  0.00     0.098 N 
HETATM    9  H           1     -20.029  -8.894  -1.951  0.00  0.00     0.317 HD
BRANCH   8  10
HETATM   10  C           1     -21.939  -9.077  -1.312  0.00  0.00     0.320 C 
BRANCH  10  11
HETATM   11  C           1     -22.491  -9.464   0.054  0.00  0.00     0.048 C 
BRANCH  11  12
HETATM   12  C           1     -23.743 -10.312  -0.126  0.00  0.00     0.030 C 
BRANCH  12  13
HETATM   13  C           1     -23.405 -11.777   0.117  0.00  0.00     0.230 C 
BRANCH  13  14
HETATM   14  N           1     -23.836 -12.593  -1.065  0.00  0.00    -0.079 N 
HETATM   15  H           1     -23.003 -13.058  -1.491  0.00  0.00     0.274 HD
HETATM   16  H           1     -24.520 -13.321  -0.754  0.00  0.00     0.274 HD
HETATM   17  H           1     -24.287 -11.970  -1.772  0.00  0.00     0.274 HD
ENDBRANCH  13  14
ENDBRANCH  12  13
ENDBRANCH  11  12
ENDBRANCH  10  11
BRANCH  10  18
HETATM   18  C           1     -21.933  -7.574  -1.445  0.00  0.00     0.207 C 
HETATM   19  O           1     -21.133  -7.019  -2.230  0.00  0.00    -0.646 OA
HETATM   20  O           1     -22.727  -6.884  -0.771  0.00  0.00    -0.646 OA
ENDBRANCH  10  18
ENDBRANCH   8  10
ENDBRANCH   7   8
ENDBRANCH   6   7
ENDBRANCH   5   6
BRANCH   5  21
HETATM   21  C           1     -21.050 -11.106  -5.696  0.00  0.00     0.196 C 
HETATM   22  O           1     -20.172 -11.149  -6.585  0.00  0.00    -0.646 OA
HETATM   23  O           1     -22.026 -11.886  -5.742  0.00  0.00    -0.646 OA
ENDBRANCH   5  21
ENDBRANCH   2   5
BRANCH   3  24
HETATM   24  C           1     -21.381  -6.539  -5.879  0.00  0.00     0.274 C 
BRANCH  24  25
HETATM   25  C           1     -20.292  -5.492  -6.078  0.00  0.00     0.044 C 
BRANCH  25  26
HETATM   26  C           1     -20.907  -4.224  -6.656  0.00  0.00     0.023 C 
BRANCH  26  27
HETATM   27  C           1     -21.591  -4.547  -7.979  0.00  0.00     0.138 C 
BRANCH  27  28
HETATM   28  N           1     -22.936  -3.956  -7.991  0.00  0.00    -0.227 N 
HETATM   29  H           1     -23.386  -3.653  -7.092  0.00  0.00     0.177 HD
HETATM   30  C           1     -23.553  -3.811  -9.088  0.00  0.00     0.665 C 
HETATM   31  N           1     -24.712  -3.303  -9.099  0.00  0.00    -0.235 N 
HETATM   32  N           1     -22.996  -4.185 -10.201  0.00  0.00    -0.235 N 
HETATM   33  H           1     -25.224  -3.183 -10.008  0.00  0.00     0.174 HD
HETATM   34  H           1     -25.163  -3.001  -8.199  0.00  0.00     0.174 HD
HETATM   35  H           1     -22.039  -4.605 -10.191  0.00  0.00     0.174 HD
HETATM   36  H           1     -23.506  -4.066 -11.106  0.00  0.00     0.174 HD
ENDBRANCH  27  28
ENDBRANCH  26  27
ENDBRANCH  25  26
ENDBRANCH  24  25
BRANCH  24  37
HETATM   37  N           1     -22.327  -6.078  -4.810  0.00  0.00    -0.067 N 
HETATM   38  H           1     -22.910  -6.885  -4.489  0.00  0.00     0.275 HD
HETATM   39  H           1     -21.782  -5.700  -4.003  0.00  0.00     0.275 HD
HETATM   40  H           1     -22.948  -5.332  -5.194  0.00  0.00     0.275 HD
ENDBRANCH  24  37
ENDBRANCH   3  24
TORSDOF 17
ENDMDL
MODEL 6
REMARK VINA RESULT:      -6.2     13.876     16.569
REMARK  17 active torsions:
REMARK  status: ('A' for Active; 'I' for Inactive)
REMARK    1  A    between atoms: C_2  and  C_12 
REMARK    2  A    between atoms: C_2  and  C_3 
REMARK    3  A    between atoms: C_2  and  N_7 
REMARK    4  A    between atoms: C_6  and  N_7 
REMARK    5  A    between atoms: C_6  and  C_22 
REMARK    6  A    between atoms: N_9  and  C_10 
REMARK    7  A    between atoms: C_10  and  C_11 
REMARK    8  A    between atoms: C_11  and  C_12 
REMARK    9  A    between atoms: C_13  and  C_30 
REMARK   10  A    between atoms: C_13  and  C_20 
REMARK       I    between atoms: N_16  and  C_17 
REMARK       I    between atoms: C_17  and  N_18 
REMARK   11  A    between atoms: N_18  and  C_19 
REMARK   12  A    between atoms: C_19  and  C_20 
REMARK   13  A    between atoms: C_22  and  C_23 
REMARK   14  A    between atoms: C_23  and  C_24 
REMARK   15  A    between atoms: C_23  and  N_27 
REMARK       I    between atoms: N_27  and  C_28 
REMARK   16  A    between atoms: C_28  and  C_30 
REMARK   17  A    between atoms: C_30  and  N_36 
ROOT
HETATM    1  H           1     -20.737  -4.751  -4.395  0.00  0.00     0.163 HD
HETATM    2  N           1     -21.094  -5.580  -4.852  0.00  0.00    -0.345 N 
HETATM    3  C           1     -21.461  -6.668  -4.105  0.00  0.00     0.249 C 
HETATM    4  O           1     -21.887  -7.658  -4.650  0.00  0.00    -0.271 OA
ENDROOT
BRANCH   2   5
HETATM    5  C           1     -21.217  -5.618  -6.295  0.00  0.00     0.187 C 
BRANCH   5   6
HETATM    6  C           1     -21.770  -4.288  -6.791  0.00  0.00     0.066 C 
BRANCH   6   7
HETATM    7  C           1     -23.277  -4.403  -6.983  0.00  0.00     0.273 C 
BRANCH   7   8
HETATM    8  N           1     -23.555  -4.946  -8.285  0.00  0.00     0.098 N 
HETATM    9  H           1     -24.558  -5.113  -8.376  0.00  0.00     0.317 HD
BRANCH   8  10
HETATM   10  C           1     -23.138  -3.977  -9.261  0.00  0.00     0.320 C 
BRANCH  10  11
HETATM   11  C           1     -22.149  -4.622 -10.224  0.00  0.00     0.048 C 
BRANCH  11  12
HETATM   12  C           1     -20.860  -3.812 -10.245  0.00  0.00     0.030 C 
BRANCH  12  13
HETATM   13  C           1     -20.744  -3.074 -11.572  0.00  0.00     0.230 C 
BRANCH  13  14
HETATM   14  N           1     -21.574  -3.773 -12.608  0.00  0.00    -0.079 N 
HETATM   15  H           1     -22.541  -3.377 -12.605  0.00  0.00     0.274 HD
HETATM   16  H           1     -21.143  -3.635 -13.551  0.00  0.00     0.274 HD
HETATM   17  H           1     -21.614  -4.794 -12.390  0.00  0.00     0.274 HD
ENDBRANCH  13  14
ENDBRANCH  12  13
ENDBRANCH  11  12
ENDBRANCH  10  11
BRANCH  10  18
HETATM   18  C           1     -24.341  -3.488 -10.028  0.00  0.00     0.207 C 
HETATM   19  O           1     -25.205  -2.787  -9.456  0.00  0.00    -0.646 OA
HETATM   20  O           1     -24.476  -3.782 -11.235  0.00  0.00    -0.646 OA
ENDBRANCH  10  18
ENDBRANCH   8  10
ENDBRANCH   7   8
ENDBRANCH   6   7
ENDBRANCH   5   6
BRANCH   5  21
HETATM   21  C           1     -19.859  -5.859  -6.910  0.00  0.00     0.196 C 
HETATM   22  O           1     -19.364  -7.007  -6.900  0.00  0.00    -0.646 OA
HETATM   23  O           1     -19.230  -4.911  -7.428  0.00  0.00    -0.646 OA
ENDBRANCH   5  21
ENDBRANCH   2   5
BRANCH   3  24
HETATM   24  C           1     -21.333  -6.629  -2.603  0.00  0.00     0.274 C 
BRANCH  24  25
HETATM   25  C           1     -21.590  -8.019  -2.034  0.00  0.00     0.044 C 
BRANCH  25  26
HETATM   26  C           1     -22.245  -7.894  -0.664  0.00  0.00     0.023 C 
BRANCH  26  27
HETATM   27  C           1     -22.732  -9.262  -0.205  0.00  0.00     0.138 C 
BRANCH  27  28
HETATM   28  N           1     -21.607 -10.016   0.367  0.00  0.00    -0.227 N 
HETATM   29  H           1     -21.030  -9.595   1.137  0.00  0.00     0.177 HD
HETATM   30  C           1     -21.335 -11.174  -0.068  0.00  0.00     0.665 C 
HETATM   31  N           1     -20.367 -11.823   0.424  0.00  0.00    -0.235 N 
HETATM   32  N           1     -22.051 -11.694  -1.020  0.00  0.00    -0.235 N 
HETATM   33  H           1     -20.141 -12.783   0.064  0.00  0.00     0.174 HD
HETATM   34  H           1     -19.788 -11.402   1.194  0.00  0.00     0.174 HD
HETATM   35  H           1     -22.850 -11.158  -1.426  0.00  0.00     0.174 HD
HETATM   36  H           1     -21.826 -12.650  -1.379  0.00  0.00     0.174 HD
ENDBRANCH  27  28
ENDBRANCH  26  27
ENDBRANCH  25  26
ENDBRANCH  24  25
BRANCH  24  37
HETATM   37  N           1     -22.338  -5.666  -2.041  0.00  0.00    -0.067 N 
HETATM   38  H           1     -23.299  -6.061  -2.154  0.00  0.00     0.275 HD
HETATM   39  H           1     -22.142  -5.512  -1.026  0.00  0.00     0.275 HD
HETATM   40  H           1     -22.273  -4.758  -2.552  0.00  0.00     0.275 HD
ENDBRANCH  24  37
ENDBRANCH   3  24
TORSDOF 17
ENDMDL
MODEL 7
REMARK VINA RESULT:      -6.2      2.246      4.262
REMARK  17 active torsions:
REMARK  status: ('A' for Active; 'I' for Inactive)
REMARK    1  A    between atoms: C_2  and  C_12 
REMARK    2  A    between atoms: C_2  and  C_3 
REMARK    3  A    between atoms: C_2  and  N_7 
REMARK    4  A    between atoms: C_6  and  N_7 
REMARK    5  A    between atoms: C_6  and  C_22 
REMARK    6  A    between atoms: N_9  and  C_10 
REMARK    7  A    between atoms: C_10  and  C_11 
REMARK    8  A    between atoms: C_11  and  C_12 
REMARK    9  A    between atoms: C_13  and  C_30 
REMARK   10  A    between atoms: C_13  and  C_20 
REMARK       I    between atoms: N_16  and  C_17 
REMARK       I    between atoms: C_17  and  N_18 
REMARK   11  A    between atoms: N_18  and  C_19 
REMARK   12  A    between atoms: C_19  and  C_20 
REMARK   13  A    between atoms: C_22  and  C_23 
REMARK   14  A    between atoms: C_23  and  C_24 
REMARK   15  A    between atoms: C_23  and  N_27 
REMARK       I    between atoms: N_27  and  C_28 
REMARK   16  A    between atoms: C_28  and  C_30 
REMARK   17  A    between atoms: C_30  and  N_36 
ROOT
HETATM    1  H           1     -32.575  -5.529 -16.389  0.00  0.00     0.163 HD
HETATM    2  N           1     -32.417  -4.540 -16.528  0.00  0.00    -0.345 N 
HETATM    3  C           1     -31.306  -4.112 -17.206  0.00  0.00     0.249 C 
HETATM    4  O           1     -31.117  -2.932 -17.372  0.00  0.00    -0.271 OA
ENDROOT
BRANCH   2   5
HETATM    5  C           1     -33.366  -3.573 -16.011  0.00  0.00     0.187 C 
BRANCH   5   6
HETATM    6  C           1     -34.128  -2.942 -17.169  0.00  0.00     0.066 C 
BRANCH   6   7
HETATM    7  C           1     -35.280  -2.107 -16.625  0.00  0.00     0.273 C 
BRANCH   7   8
HETATM    8  N           1     -34.758  -0.932 -15.981  0.00  0.00     0.098 N 
HETATM    9  H           1     -34.542  -0.226 -16.685  0.00  0.00     0.317 HD
BRANCH   8  10
HETATM   10  C           1     -35.774  -0.432 -15.095  0.00  0.00     0.320 C 
BRANCH  10  11
HETATM   11  C           1     -35.115   0.265 -13.912  0.00  0.00     0.048 C 
BRANCH  11  12
HETATM   12  C           1     -35.968   0.067 -12.666  0.00  0.00     0.030 C 
BRANCH  12  13
HETATM   13  C           1     -35.673  -1.298 -12.059  0.00  0.00     0.230 C 
BRANCH  13  14
HETATM   14  N           1     -34.323  -1.273 -11.404  0.00  0.00    -0.079 N 
HETATM   15  H           1     -34.216  -0.387 -10.860  0.00  0.00     0.274 HD
HETATM   16  H           1     -34.234  -2.091 -10.759  0.00  0.00     0.274 HD
HETATM   17  H           1     -33.580  -1.324 -12.137  0.00  0.00     0.274 HD
ENDBRANCH  13  14
ENDBRANCH  12  13
ENDBRANCH  11  12
ENDBRANCH  10  11
BRANCH  10  18
HETATM   18  C           1     -36.648   0.550 -15.835  0.00  0.00     0.207 C 
HETATM   19  O           1     -37.821   0.240 -16.136  0.00  0.00    -0.646 OA
HETATM   20  O           1     -36.199   1.673 -16.149  0.00  0.00    -0.646 OA
ENDBRANCH  10  18
ENDBRANCH   8  10
ENDBRANCH   7   8
ENDBRANCH   6   7
ENDBRANCH   5   6
BRANCH   5  21
HETATM   21  C           1     -34.338  -4.266 -15.087  0.00  0.00     0.196 C 
HETATM   22  O           1     -35.067  -5.184 -15.522  0.00  0.00    -0.646 OA
HETATM   23  O           1     -34.414  -3.922 -13.888  0.00  0.00    -0.646 OA
ENDBRANCH   5  21
ENDBRANCH   2   5
BRANCH   3  24
HETATM   24  C           1     -30.319  -5.118 -17.744  0.00  0.00     0.274 C 
BRANCH  24  25
HETATM   25  C           1     -29.465  -5.654 -16.602  0.00  0.00     0.044 C 
BRANCH  25  26
HETATM   26  C           1     -28.326  -6.491 -17.169  0.00  0.00     0.023 C 
BRANCH  26  27
HETATM   27  C           1     -26.992  -5.868 -16.780  0.00  0.00     0.138 C 
BRANCH  27  28
HETATM   28  N           1     -25.894  -6.692 -17.304  0.00  0.00    -0.227 N 
HETATM   29  H           1     -25.892  -6.986 -18.312  0.00  0.00     0.177 HD
HETATM   30  C           1     -24.949  -7.047 -16.540  0.00  0.00     0.665 C 
HETATM   31  N           1     -24.003  -7.757 -16.990  0.00  0.00    -0.235 N 
HETATM   32  N           1     -24.951  -6.682 -15.292  0.00  0.00    -0.235 N 
HETATM   33  H           1     -23.220  -8.052 -16.357  0.00  0.00     0.174 HD
HETATM   34  H           1     -24.002  -8.052 -17.999  0.00  0.00     0.174 HD
HETATM   35  H           1     -25.732  -6.096 -14.920  0.00  0.00     0.174 HD
HETATM   36  H           1     -24.170  -6.975 -14.661  0.00  0.00     0.174 HD
ENDBRANCH  27  28
ENDBRANCH  26  27
ENDBRANCH  25  26
ENDBRANCH  24  25
BRANCH  24  37
HETATM   37  N           1     -29.435  -4.456 -18.760  0.00  0.00    -0.067 N 
HETATM   38  H           1     -28.853  -5.180 -19.240  0.00  0.00     0.275 HD
HETATM   39  H           1     -30.027  -3.961 -19.465  0.00  0.00     0.275 HD
HETATM   40  H           1     -28.811  -3.768 -18.283  0.00  0.00     0.275 HD
ENDBRANCH  24  37
ENDBRANCH   3  24
TORSDOF 17
ENDMDL
MODEL 8
REMARK VINA RESULT:      -6.1      3.008      7.737
REMARK  17 active torsions:
REMARK  status: ('A' for Active; 'I' for Inactive)
REMARK    1  A    between atoms: C_2  and  C_12 
REMARK    2  A    between atoms: C_2  and  C_3 
REMARK    3  A    between atoms: C_2  and  N_7 
REMARK    4  A    between atoms: C_6  and  N_7 
REMARK    5  A    between atoms: C_6  and  C_22 
REMARK    6  A    between atoms: N_9  and  C_10 
REMARK    7  A    between atoms: C_10  and  C_11 
REMARK    8  A    between atoms: C_11  and  C_12 
REMARK    9  A    between atoms: C_13  and  C_30 
REMARK   10  A    between atoms: C_13  and  C_20 
REMARK       I    between atoms: N_16  and  C_17 
REMARK       I    between atoms: C_17  and  N_18 
REMARK   11  A    between atoms: N_18  and  C_19 
REMARK   12  A    between atoms: C_19  and  C_20 
REMARK   13  A    between atoms: C_22  and  C_23 
REMARK   14  A    between atoms: C_23  and  C_24 
REMARK   15  A    between atoms: C_23  and  N_27 
REMARK       I    between atoms: N_27  and  C_28 
REMARK   16  A    between atoms: C_28  and  C_30 
REMARK   17  A    between atoms: C_30  and  N_36 
ROOT
HETATM    1  H           1     -32.624  -5.014 -14.212  0.00  0.00     0.163 HD
HETATM    2  N           1     -33.411  -4.420 -14.438  0.00  0.00    -0.345 N 
HETATM    3  C           1     -33.908  -3.557 -13.498  0.00  0.00     0.249 C 
HETATM    4  O           1     -34.848  -2.847 -13.767  0.00  0.00    -0.271 OA
ENDROOT
BRANCH   2   5
HETATM    5  C           1     -34.013  -4.482 -15.755  0.00  0.00     0.187 C 
BRANCH   5   6
HETATM    6  C           1     -32.927  -4.348 -16.815  0.00  0.00     0.066 C 
BRANCH   6   7
HETATM    7  C           1     -31.574  -4.685 -16.203  0.00  0.00     0.273 C 
BRANCH   7   8
HETATM    8  N           1     -31.126  -5.957 -16.701  0.00  0.00     0.098 N 
HETATM    9  H           1     -31.867  -6.384 -17.259  0.00  0.00     0.317 HD
BRANCH   8  10
HETATM   10  C           1     -29.975  -5.721 -17.530  0.00  0.00     0.320 C 
BRANCH  10  11
HETATM   11  C           1     -28.777  -5.387 -16.651  0.00  0.00     0.048 C 
BRANCH  11  12
HETATM   12  C           1     -28.411  -6.601 -15.808  0.00  0.00     0.030 C 
BRANCH  12  13
HETATM   13  C           1     -26.896  -6.748 -15.759  0.00  0.00     0.230 C 
BRANCH  13  14
HETATM   14  N           1     -26.331  -6.578 -17.138  0.00  0.00    -0.079 N 
HETATM   15  H           1     -26.949  -7.060 -17.830  0.00  0.00     0.274 HD
HETATM   16  H           1     -26.278  -5.559 -17.369  0.00  0.00     0.274 HD
HETATM   17  H           1     -25.374  -6.994 -17.176  0.00  0.00     0.274 HD
ENDBRANCH  13  14
ENDBRANCH  12  13
ENDBRANCH  11  12
ENDBRANCH  10  11
BRANCH  10  18
HETATM   18  C           1     -29.676  -6.960 -18.339  0.00  0.00     0.207 C 
HETATM   19  O           1     -30.486  -7.913 -18.345  0.00  0.00    -0.646 OA
HETATM   20  O           1     -28.620  -7.034 -19.001  0.00  0.00    -0.646 OA
ENDBRANCH  10  18
ENDBRANCH   8  10
ENDBRANCH   7   8
ENDBRANCH   6   7
ENDBRANCH   5   6
BRANCH   5  21
HETATM   21  C           1     -34.720  -5.805 -15.924  0.00  0.00     0.196 C 
HETATM   22  O           1     -35.799  -6.016 -15.329  0.00  0.00    -0.646 OA
HETATM   23  O           1     -34.227  -6.689 -16.657  0.00  0.00    -0.646 OA
ENDBRANCH   5  21
ENDBRANCH   2   5
BRANCH   3  24
HETATM   24  C           1     -33.282  -3.492 -12.127  0.00  0.00     0.274 C 
BRANCH  24  25
HETATM   25  C           1     -33.196  -4.896 -11.541  0.00  0.00     0.044 C 
BRANCH  25  26
HETATM   26  C           1     -34.069  -4.980 -10.295  0.00  0.00     0.023 C 
BRANCH  26  27
HETATM   27  C           1     -35.015  -6.167 -10.415  0.00  0.00     0.138 C 
BRANCH  27  28
HETATM   28  N           1     -34.267  -7.345 -10.879  0.00  0.00    -0.227 N 
HETATM   29  H           1     -33.914  -7.388 -11.866  0.00  0.00     0.177 HD
HETATM   30  C           1     -34.048  -8.307 -10.085  0.00  0.00     0.665 C 
HETATM   31  N           1     -33.404  -9.321 -10.484  0.00  0.00    -0.235 N 
HETATM   32  N           1     -34.485  -8.253  -8.862  0.00  0.00    -0.235 N 
HETATM   33  H           1     -33.222 -10.119  -9.826  0.00  0.00     0.174 HD
HETATM   34  H           1     -33.052  -9.365 -11.473  0.00  0.00     0.174 HD
HETATM   35  H           1     -35.016  -7.415  -8.533  0.00  0.00     0.174 HD
HETATM   36  H           1     -34.303  -9.048  -8.207  0.00  0.00     0.174 HD
ENDBRANCH  27  28
ENDBRANCH  26  27
ENDBRANCH  25  26
ENDBRANCH  24  25
BRANCH  24  37
HETATM   37  N           1     -34.123  -2.629 -11.234  0.00  0.00    -0.067 N 
HETATM   38  H           1     -34.712  -1.993 -11.818  0.00  0.00     0.275 HD
HETATM   39  H           1     -34.740  -3.234 -10.646  0.00  0.00     0.275 HD
HETATM   40  H           1     -33.502  -2.058 -10.617  0.00  0.00     0.275 HD
ENDBRANCH  24  37
ENDBRANCH   3  24
TORSDOF 17
ENDMDL
MODEL 9
REMARK VINA RESULT:      -6.1     14.993     17.393
REMARK  17 active torsions:
REMARK  status: ('A' for Active; 'I' for Inactive)
REMARK    1  A    between atoms: C_2  and  C_12 
REMARK    2  A    between atoms: C_2  and  C_3 
REMARK    3  A    between atoms: C_2  and  N_7 
REMARK    4  A    between atoms: C_6  and  N_7 
REMARK    5  A    between atoms: C_6  and  C_22 
REMARK    6  A    between atoms: N_9  and  C_10 
REMARK    7  A    between atoms: C_10  and  C_11 
REMARK    8  A    between atoms: C_11  and  C_12 
REMARK    9  A    between atoms: C_13  and  C_30 
REMARK   10  A    between atoms: C_13  and  C_20 
REMARK       I    between atoms: N_16  and  C_17 
REMARK       I    between atoms: C_17  and  N_18 
REMARK   11  A    between atoms: N_18  and  C_19 
REMARK   12  A    between atoms: C_19  and  C_20 
REMARK   13  A    between atoms: C_22  and  C_23 
REMARK   14  A    between atoms: C_23  and  C_24 
REMARK   15  A    between atoms: C_23  and  N_27 
REMARK       I    between atoms: N_27  and  C_28 
REMARK   16  A    between atoms: C_28  and  C_30 
REMARK   17  A    between atoms: C_30  and  N_36 
ROOT
HETATM    1  H           1     -19.675  -7.193  -6.351  0.00  0.00     0.163 HD
HETATM    2  N           1     -20.102  -7.143  -5.436  0.00  0.00    -0.345 N 
HETATM    3  C           1     -20.711  -5.986  -5.028  0.00  0.00     0.249 C 
HETATM    4  O           1     -21.222  -5.925  -3.935  0.00  0.00    -0.271 OA
ENDROOT
BRANCH   2   5
HETATM    5  C           1     -20.070  -8.293  -4.555  0.00  0.00     0.187 C 
BRANCH   5   6
HETATM    6  C           1     -21.302  -9.155  -4.805  0.00  0.00     0.066 C 
BRANCH   6   7
HETATM    7  C           1     -21.816  -9.703  -3.479  0.00  0.00     0.273 C 
BRANCH   7   8
HETATM    8  N           1     -21.527  -8.765  -2.428  0.00  0.00     0.098 N 
HETATM    9  H           1     -21.894  -7.847  -2.682  0.00  0.00     0.317 HD
BRANCH   8  10
HETATM   10  C           1     -22.181  -9.231  -1.235  0.00  0.00     0.320 C 
BRANCH  10  11
HETATM   11  C           1     -22.820 -10.587  -1.504  0.00  0.00     0.048 C 
BRANCH  11  12
HETATM   12  C           1     -23.838 -10.893  -0.414  0.00  0.00     0.030 C 
BRANCH  12  13
HETATM   13  C           1     -23.489 -12.219   0.250  0.00  0.00     0.230 C 
BRANCH  13  14
HETATM   14  N           1     -22.276 -12.805  -0.409  0.00  0.00    -0.079 N 
HETATM   15  H           1     -21.621 -13.164   0.322  0.00  0.00     0.274 HD
HETATM   16  H           1     -22.565 -13.591  -1.035  0.00  0.00     0.274 HD
HETATM   17  H           1     -21.797 -12.068  -0.974  0.00  0.00     0.274 HD
ENDBRANCH  13  14
ENDBRANCH  12  13
ENDBRANCH  11  12
ENDBRANCH  10  11
BRANCH  10  18
HETATM   18  C           1     -21.167  -9.363  -0.126  0.00  0.00     0.207 C 
HETATM   19  O           1     -20.377 -10.332  -0.113  0.00  0.00    -0.646 OA
HETATM   20  O           1     -21.116  -8.504   0.780  0.00  0.00    -0.646 OA
ENDBRANCH  10  18
ENDBRANCH   8  10
ENDBRANCH   7   8
ENDBRANCH   6   7
ENDBRANCH   5   6
BRANCH   5  21
HETATM   21  C           1     -18.826  -9.103  -4.829  0.00  0.00     0.196 C 
HETATM   22  O           1     -18.045  -9.383  -3.893  0.00  0.00    -0.646 OA
HETATM   23  O           1     -18.576  -9.492  -5.990  0.00  0.00    -0.646 OA
ENDBRANCH   5  21
ENDBRANCH   2   5
BRANCH   3  24
HETATM   24  C           1     -20.744  -4.788  -5.944  0.00  0.00     0.274 C 
BRANCH  24  25
HETATM   25  C           1     -22.010  -4.830  -6.791  0.00  0.00     0.044 C 
BRANCH  25  26
HETATM   26  C           1     -21.634  -5.039  -8.253  0.00  0.00     0.023 C 
BRANCH  26  27
HETATM   27  C           1     -22.085  -3.837  -9.072  0.00  0.00     0.138 C 
BRANCH  27  28
HETATM   28  N           1     -23.517  -3.598  -8.845  0.00  0.00    -0.227 N 
HETATM   29  H           1     -23.847  -3.223  -7.922  0.00  0.00     0.177 HD
HETATM   30  C           1     -24.353  -3.844  -9.764  0.00  0.00     0.665 C 
HETATM   31  N           1     -25.586  -3.639  -9.569  0.00  0.00    -0.235 N 
HETATM   32  N           1     -23.943  -4.308 -10.907  0.00  0.00    -0.235 N 
HETATM   33  H           1     -26.280  -3.842 -10.330  0.00  0.00     0.174 HD
HETATM   34  H           1     -25.917  -3.264  -8.645  0.00  0.00     0.174 HD
HETATM   35  H           1     -22.925  -4.477 -11.069  0.00  0.00     0.174 HD
HETATM   36  H           1     -24.634  -4.510 -11.666  0.00  0.00     0.174 HD
ENDBRANCH  27  28
ENDBRANCH  26  27
ENDBRANCH  25  26
ENDBRANCH  24  25
BRANCH  24  37
HETATM   37  N           1     -19.541  -4.812  -6.841  0.00  0.00    -0.067 N 
HETATM   38  H           1     -18.753  -5.294  -6.353  0.00  0.00     0.275 HD
HETATM   39  H           1     -19.774  -5.326  -7.720  0.00  0.00     0.275 HD
HETATM   40  H           1     -19.261  -3.833  -7.072  0.00  0.00     0.275 HD
ENDBRANCH  24  37
ENDBRANCH   3  24
TORSDOF 17
ENDMDL
