MODEL 1
REMARK VINA RESULT:      -7.2      0.000      0.000
REMARK  15 active torsions:
REMARK  status: ('A' for Active; 'I' for Inactive)
REMARK    1  A    between atoms: N_6  and  C_20 
REMARK    2  A    between atoms: N_6  and  C_7 
REMARK    3  A    between atoms: C_7  and  C_8 
REMARK    4  A    between atoms: C_8  and  C_38 
REMARK    5  A    between atoms: N_9  and  C_38 
REMARK       I    between atoms: N_9  and  C_28 
REMARK    6  A    between atoms: C_18  and  C_19 
REMARK    7  A    between atoms: C_19  and  C_20 
REMARK    8  A    between atoms: C_20  and  C_22 
REMARK    9  A    between atoms: C_28  and  C_29 
REMARK   10  A    between atoms: C_29  and  C_30 
REMARK   11  A    between atoms: C_29  and  N_37 
REMARK   12  A    between atoms: C_30  and  C_31 
REMARK   13  A    between atoms: C_31  and  C_32 
REMARK   14  A    between atoms: C_32  and  N_33 
REMARK       I    between atoms: N_33  and  C_34 
REMARK       I    between atoms: C_34  and  N_35 
REMARK   15  A    between atoms: C_38  and  C_39 
ROOT
HETATM    1  N           1     -31.773  -4.673 -15.822  0.00  0.00    -0.345 N 
HETATM    2  O           1     -31.072  -5.990 -17.483  0.00  0.00    -0.271 OA
HETATM    3  H           1     -31.555  -4.191 -14.959  0.00  0.00     0.163 HD
HETATM    4  C           1     -30.811  -5.416 -16.454  0.00  0.00     0.249 C 
ENDROOT
BRANCH   1   5
HETATM    5  C           1     -33.104  -4.577 -16.390  0.00  0.00     0.187 C 
BRANCH   5   6
HETATM    6  C           1     -34.135  -4.579 -15.268  0.00  0.00     0.066 C 
BRANCH   6   7
HETATM    7  C           1     -33.453  -4.228 -13.952  0.00  0.00     0.273 C 
BRANCH   7   8
HETATM    8  N           1     -34.450  -3.960 -12.950  0.00  0.00     0.098 N 
HETATM    9  H           1     -34.397  -4.670 -12.220  0.00  0.00     0.317 HD
BRANCH   8  10
HETATM   10  C           1     -34.166  -2.668 -12.386  0.00  0.00     0.325 C 
BRANCH  10  11
HETATM   11  C           1     -35.440  -1.833 -12.367  0.00  0.00     0.105 C 
BRANCH  11  12
HETATM   12  C           1     -35.319  -0.713 -13.354  0.00  0.00     0.028 A 
HETATM   13  N           1     -35.232  -0.877 -14.711  0.00  0.00    -0.355 N 
HETATM   14  C           1     -35.141   0.337 -15.203  0.00  0.00     0.180 A 
ATOM     15  HN          1     -35.236  -1.756 -15.230  1.00  0.00     0.166 HD
HETATM   16  N           1     -35.167   1.280 -14.213  0.00  0.00    -0.360 N 
HETATM   17  C           1     -35.281   0.621 -13.021  0.00  0.00     0.114 A 
HETATM   18  H           1     -35.110   2.320 -14.345  0.00  0.00     0.166 HD
ENDBRANCH  11  12
ENDBRANCH  10  11
BRANCH  10  19
HETATM   19  C           1     -33.654  -2.837 -10.977  0.00  0.00     0.207 C 
HETATM   20  O           1     -33.340  -1.834 -10.302  0.00  0.00    -0.646 OA
HETATM   21  O           1     -33.543  -3.981 -10.486  0.00  0.00    -0.646 OA
ENDBRANCH  10  19
ENDBRANCH   8  10
ENDBRANCH   7   8
ENDBRANCH   6   7
ENDBRANCH   5   6
BRANCH   5  22
HETATM   22  C           1     -33.222  -3.296 -17.179  0.00  0.00     0.196 C 
HETATM   23  O           1     -34.252  -2.596 -17.083  0.00  0.00    -0.646 OA
HETATM   24  O           1     -32.288  -2.935 -17.928  0.00  0.00    -0.646 OA
ENDBRANCH   5  22
ENDBRANCH   1   5
BRANCH   4  25
HETATM   25  C           1     -29.427  -5.516 -15.862  0.00  0.00     0.274 C 
BRANCH  25  26
HETATM   26  C           1     -28.641  -6.599 -16.589  0.00  0.00     0.044 C 
BRANCH  26  27
HETATM   27  C           1     -27.638  -7.229 -15.631  0.00  0.00     0.023 C 
BRANCH  27  28
HETATM   28  C           1     -26.278  -6.569 -15.813  0.00  0.00     0.138 C 
BRANCH  28  29
HETATM   29  N           1     -25.830  -6.744 -17.202  0.00  0.00    -0.227 N 
HETATM   30  H           1     -26.447  -6.441 -17.996  0.00  0.00     0.177 HD
HETATM   31  C           1     -24.698  -7.261 -17.442  0.00  0.00     0.665 C 
HETATM   32  N           1     -24.312  -7.412 -18.638  0.00  0.00    -0.235 N 
HETATM   33  N           1     -23.935  -7.636 -16.460  0.00  0.00    -0.235 N 
HETATM   34  H           1     -23.374  -7.841 -18.836  0.00  0.00     0.174 HD
HETATM   35  H           1     -24.930  -7.109 -19.431  0.00  0.00     0.174 HD
HETATM   36  H           1     -23.001  -8.063 -16.657  0.00  0.00     0.174 HD
HETATM   37  H           1     -24.254  -7.512 -15.472  0.00  0.00     0.174 HD
ENDBRANCH  28  29
ENDBRANCH  27  28
ENDBRANCH  26  27
ENDBRANCH  25  26
BRANCH  25  38
HETATM   38  N           1     -29.529  -5.865 -14.407  0.00  0.00    -0.067 N 
HETATM   39  H           1     -28.698  -5.488 -13.899  0.00  0.00     0.275 HD
HETATM   40  H           1     -29.561  -6.904 -14.301  0.00  0.00     0.275 HD
HETATM   41  H           1     -30.400  -5.448 -14.007  0.00  0.00     0.275 HD
ENDBRANCH  25  38
ENDBRANCH   4  25
TORSDOF 15
ENDMDL
MODEL 2
REMARK VINA RESULT:      -6.9      2.010      3.654
REMARK  15 active torsions:
REMARK  status: ('A' for Active; 'I' for Inactive)
REMARK    1  A    between atoms: N_6  and  C_20 
REMARK    2  A    between atoms: N_6  and  C_7 
REMARK    3  A    between atoms: C_7  and  C_8 
REMARK    4  A    between atoms: C_8  and  C_38 
REMARK    5  A    between atoms: N_9  and  C_38 
REMARK       I    between atoms: N_9  and  C_28 
REMARK    6  A    between atoms: C_18  and  C_19 
REMARK    7  A    between atoms: C_19  and  C_20 
REMARK    8  A    between atoms: C_20  and  C_22 
REMARK    9  A    between atoms: C_28  and  C_29 
REMARK   10  A    between atoms: C_29  and  C_30 
REMARK   11  A    between atoms: C_29  and  N_37 
REMARK   12  A    between atoms: C_30  and  C_31 
REMARK   13  A    between atoms: C_31  and  C_32 
REMARK   14  A    between atoms: C_32  and  N_33 
REMARK       I    between atoms: N_33  and  C_34 
REMARK       I    between atoms: C_34  and  N_35 
REMARK   15  A    between atoms: C_38  and  C_39 
ROOT
HETATM    1  N           1     -32.286  -4.482 -15.834  0.00  0.00    -0.345 N 
HETATM    2  O           1     -31.946  -6.090 -17.346  0.00  0.00    -0.271 OA
HETATM    3  H           1     -31.891  -3.862 -15.137  0.00  0.00     0.163 HD
HETATM    4  C           1     -31.475  -5.352 -16.514  0.00  0.00     0.249 C 
ENDROOT
BRANCH   1   5
HETATM    5  C           1     -33.708  -4.449 -16.112  0.00  0.00     0.187 C 
BRANCH   5   6
HETATM    6  C           1     -34.482  -4.703 -14.824  0.00  0.00     0.066 C 
BRANCH   6   7
HETATM    7  C           1     -33.662  -4.219 -13.635  0.00  0.00     0.273 C 
BRANCH   7   8
HETATM    8  N           1     -34.354  -3.141 -12.982  0.00  0.00     0.098 N 
HETATM    9  H           1     -35.150  -2.853 -13.552  0.00  0.00     0.317 HD
BRANCH   8  10
HETATM   10  C           1     -34.823  -3.627 -11.713  0.00  0.00     0.325 C 
BRANCH  10  11
HETATM   11  C           1     -33.677  -4.307 -10.975  0.00  0.00     0.105 C 
BRANCH  11  12
HETATM   12  C           1     -34.084  -5.695 -10.588  0.00  0.00     0.028 A 
HETATM   13  N           1     -33.472  -6.838 -11.030  0.00  0.00    -0.355 N 
HETATM   14  C           1     -34.126  -7.824 -10.461  0.00  0.00     0.180 A 
ATOM     15  HN          1     -32.677  -6.908 -11.666  1.00  0.00     0.166 HD
HETATM   16  N           1     -35.137  -7.361  -9.667  0.00  0.00    -0.360 N 
HETATM   17  C           1     -35.122  -5.996  -9.738  0.00  0.00     0.114 A 
HETATM   18  H           1     -35.803  -7.947  -9.105  0.00  0.00     0.166 HD
ENDBRANCH  11  12
ENDBRANCH  10  11
BRANCH  10  19
HETATM   19  C           1     -35.337  -2.471 -10.889  0.00  0.00     0.207 C 
HETATM   20  O           1     -36.565  -2.262 -10.805  0.00  0.00    -0.646 OA
HETATM   21  O           1     -34.532  -1.724 -10.293  0.00  0.00    -0.646 OA
ENDBRANCH  10  19
ENDBRANCH   8  10
ENDBRANCH   7   8
ENDBRANCH   6   7
ENDBRANCH   5   6
BRANCH   5  22
HETATM   22  C           1     -34.081  -3.094 -16.663  0.00  0.00     0.196 C 
HETATM   23  O           1     -33.427  -2.603 -17.608  0.00  0.00    -0.646 OA
HETATM   24  O           1     -35.043  -2.463 -16.175  0.00  0.00    -0.646 OA
ENDBRANCH   5  22
ENDBRANCH   1   5
BRANCH   4  25
HETATM   25  C           1     -29.995  -5.386 -16.224  0.00  0.00     0.274 C 
BRANCH  25  26
HETATM   26  C           1     -29.347  -6.510 -17.022  0.00  0.00     0.044 C 
BRANCH  26  27
HETATM   27  C           1     -28.023  -6.894 -16.376  0.00  0.00     0.023 C 
BRANCH  27  28
HETATM   28  C           1     -26.917  -5.990 -16.907  0.00  0.00     0.138 C 
BRANCH  28  29
HETATM   29  N           1     -25.768  -6.810 -17.315  0.00  0.00    -0.227 N 
HETATM   30  H           1     -25.732  -7.220 -18.281  0.00  0.00     0.177 HD
HETATM   31  C           1     -24.819  -7.021 -16.503  0.00  0.00     0.665 C 
HETATM   32  N           1     -23.829  -7.727 -16.855  0.00  0.00    -0.235 N 
HETATM   33  N           1     -24.864  -6.513 -15.307  0.00  0.00    -0.235 N 
HETATM   34  H           1     -23.043  -7.901 -16.180  0.00  0.00     0.174 HD
HETATM   35  H           1     -23.794  -8.136 -17.821  0.00  0.00     0.174 HD
HETATM   36  H           1     -24.082  -6.687 -14.636  0.00  0.00     0.174 HD
HETATM   37  H           1     -25.682  -5.931 -15.016  0.00  0.00     0.174 HD
ENDBRANCH  28  29
ENDBRANCH  27  28
ENDBRANCH  26  27
ENDBRANCH  25  26
BRANCH  25  38
HETATM   38  N           1     -29.778  -5.625 -14.759  0.00  0.00    -0.067 N 
HETATM   39  H           1     -29.186  -6.477 -14.630  0.00  0.00     0.275 HD
HETATM   40  H           1     -30.701  -5.767 -14.290  0.00  0.00     0.275 HD
HETATM   41  H           1     -29.297  -4.799 -14.338  0.00  0.00     0.275 HD
ENDBRANCH  25  38
ENDBRANCH   4  25
TORSDOF 15
ENDMDL
MODEL 3
REMARK VINA RESULT:      -6.9     13.600     16.632
REMARK  15 active torsions:
REMARK  status: ('A' for Active; 'I' for Inactive)
REMARK    1  A    between atoms: N_6  and  C_20 
REMARK    2  A    between atoms: N_6  and  C_7 
REMARK    3  A    between atoms: C_7  and  C_8 
REMARK    4  A    between atoms: C_8  and  C_38 
REMARK    5  A    between atoms: N_9  and  C_38 
REMARK       I    between atoms: N_9  and  C_28 
REMARK    6  A    between atoms: C_18  and  C_19 
REMARK    7  A    between atoms: C_19  and  C_20 
REMARK    8  A    between atoms: C_20  and  C_22 
REMARK    9  A    between atoms: C_28  and  C_29 
REMARK   10  A    between atoms: C_29  and  C_30 
REMARK   11  A    between atoms: C_29  and  N_37 
REMARK   12  A    between atoms: C_30  and  C_31 
REMARK   13  A    between atoms: C_31  and  C_32 
REMARK   14  A    between atoms: C_32  and  N_33 
REMARK       I    between atoms: N_33  and  C_34 
REMARK       I    between atoms: C_34  and  N_35 
REMARK   15  A    between atoms: C_38  and  C_39 
ROOT
HETATM    1  N           1     -21.020  -8.233  -5.076  0.00  0.00    -0.345 N 
HETATM    2  O           1     -19.455  -7.223  -6.308  0.00  0.00    -0.271 OA
HETATM    3  H           1     -21.962  -8.218  -4.706  0.00  0.00     0.163 HD
HETATM    4  C           1     -20.579  -7.205  -5.866  0.00  0.00     0.249 C 
ENDROOT
BRANCH   1   5
HETATM    5  C           1     -20.138  -9.342  -4.770  0.00  0.00     0.187 C 
BRANCH   5   6
HETATM    6  C           1     -20.507  -9.923  -3.411  0.00  0.00     0.066 C 
BRANCH   6   7
HETATM    7  C           1     -19.451  -9.527  -2.387  0.00  0.00     0.273 C 
BRANCH   7   8
HETATM    8  N           1     -19.825  -8.284  -1.767  0.00  0.00     0.098 N 
HETATM    9  H           1     -19.664  -7.518  -2.421  0.00  0.00     0.317 HD
BRANCH   8  10
HETATM   10  C           1     -21.225  -8.358  -1.447  0.00  0.00     0.325 C 
BRANCH  10  11
HETATM   11  C           1     -21.391  -8.778   0.008  0.00  0.00     0.105 C 
BRANCH  11  12
HETATM   12  C           1     -22.173 -10.053   0.074  0.00  0.00     0.028 A 
HETATM   13  N           1     -23.512 -10.160  -0.197  0.00  0.00    -0.355 N 
HETATM   14  C           1     -23.800 -11.430  -0.024  0.00  0.00     0.180 A 
ATOM     15  HN          1     -24.149  -9.413  -0.473  1.00  0.00     0.166 HD
HETATM   16  N           1     -22.697 -12.146   0.348  0.00  0.00    -0.360 N 
HETATM   17  C           1     -21.645 -11.276   0.415  0.00  0.00     0.114 A 
HETATM   18  H           1     -22.664 -13.177   0.545  0.00  0.00     0.166 HD
ENDBRANCH  11  12
ENDBRANCH  10  11
BRANCH  10  19
HETATM   19  C           1     -21.860  -7.005  -1.657  0.00  0.00     0.207 C 
HETATM   20  O           1     -22.774  -6.620  -0.898  0.00  0.00    -0.646 OA
HETATM   21  O           1     -21.471  -6.272  -2.591  0.00  0.00    -0.646 OA
ENDBRANCH  10  19
ENDBRANCH   8  10
ENDBRANCH   7   8
ENDBRANCH   6   7
ENDBRANCH   5   6
BRANCH   5  22
HETATM   22  C           1     -20.286 -10.408  -5.829  0.00  0.00     0.196 C 
HETATM   23  O           1     -21.421 -10.724  -6.243  0.00  0.00    -0.646 OA
HETATM   24  O           1     -19.272 -10.973  -6.293  0.00  0.00    -0.646 OA
ENDBRANCH   5  22
ENDBRANCH   1   5
BRANCH   4  25
HETATM   25  C           1     -21.497  -6.051  -6.183  0.00  0.00     0.274 C 
BRANCH  25  26
HETATM   26  C           1     -20.740  -4.739  -6.018  0.00  0.00     0.044 C 
BRANCH  26  27
HETATM   27  C           1     -20.606  -4.056  -7.373  0.00  0.00     0.023 C 
BRANCH  27  28
HETATM   28  C           1     -21.664  -4.601  -8.323  0.00  0.00     0.138 C 
BRANCH  28  29
HETATM   29  N           1     -22.842  -3.721  -8.303  0.00  0.00    -0.227 N 
HETATM   30  H           1     -22.911  -2.953  -7.590  0.00  0.00     0.177 HD
HETATM   31  C           1     -23.772  -3.889  -9.145  0.00  0.00     0.665 C 
HETATM   32  N           1     -24.786  -3.131  -9.128  0.00  0.00    -0.235 N 
HETATM   33  N           1     -23.686  -4.839 -10.027  0.00  0.00    -0.235 N 
HETATM   34  H           1     -25.557  -3.270  -9.826  0.00  0.00     0.174 HD
HETATM   35  H           1     -24.855  -2.363  -8.415  0.00  0.00     0.174 HD
HETATM   36  H           1     -24.454  -4.978 -10.722  0.00  0.00     0.174 HD
HETATM   37  H           1     -22.849  -5.465 -10.041  0.00  0.00     0.174 HD
ENDBRANCH  28  29
ENDBRANCH  27  28
ENDBRANCH  26  27
ENDBRANCH  25  26
BRANCH  25  38
HETATM   38  N           1     -22.669  -6.072  -5.247  0.00  0.00    -0.067 N 
HETATM   39  H           1     -23.264  -5.230  -5.417  0.00  0.00     0.275 HD
HETATM   40  H           1     -22.325  -6.063  -4.261  0.00  0.00     0.275 HD
HETATM   41  H           1     -23.232  -6.936  -5.412  0.00  0.00     0.275 HD
ENDBRANCH  25  38
ENDBRANCH   4  25
TORSDOF 15
ENDMDL
MODEL 4
REMARK VINA RESULT:      -6.5     12.944     17.362
REMARK  15 active torsions:
REMARK  status: ('A' for Active; 'I' for Inactive)
REMARK    1  A    between atoms: N_6  and  C_20 
REMARK    2  A    between atoms: N_6  and  C_7 
REMARK    3  A    between atoms: C_7  and  C_8 
REMARK    4  A    between atoms: C_8  and  C_38 
REMARK    5  A    between atoms: N_9  and  C_38 
REMARK       I    between atoms: N_9  and  C_28 
REMARK    6  A    between atoms: C_18  and  C_19 
REMARK    7  A    between atoms: C_19  and  C_20 
REMARK    8  A    between atoms: C_20  and  C_22 
REMARK    9  A    between atoms: C_28  and  C_29 
REMARK   10  A    between atoms: C_29  and  C_30 
REMARK   11  A    between atoms: C_29  and  N_37 
REMARK   12  A    between atoms: C_30  and  C_31 
REMARK   13  A    between atoms: C_31  and  C_32 
REMARK   14  A    between atoms: C_32  and  N_33 
REMARK       I    between atoms: N_33  and  C_34 
REMARK       I    between atoms: C_34  and  N_35 
REMARK   15  A    between atoms: C_38  and  C_39 
ROOT
HETATM    1  N           1     -20.869  -6.293  -4.787  0.00  0.00    -0.345 N 
HETATM    2  O           1     -22.564  -5.395  -5.931  0.00  0.00    -0.271 OA
HETATM    3  H           1     -19.873  -6.315  -4.605  0.00  0.00     0.163 HD
HETATM    4  C           1     -21.376  -5.422  -5.715  0.00  0.00     0.249 C 
ENDROOT
BRANCH   1   5
HETATM    5  C           1     -21.758  -7.181  -4.065  0.00  0.00     0.187 C 
BRANCH   5   6
HETATM    6  C           1     -21.270  -8.617  -4.213  0.00  0.00     0.066 C 
BRANCH   6   7
HETATM    7  C           1     -19.806  -8.614  -4.635  0.00  0.00     0.273 C 
BRANCH   7   8
HETATM    8  N           1     -18.982  -8.985  -3.516  0.00  0.00     0.098 N 
HETATM    9  H           1     -19.570  -9.367  -2.774  0.00  0.00     0.317 HD
BRANCH   8  10
HETATM   10  C           1     -18.060  -9.992  -3.966  0.00  0.00     0.325 C 
BRANCH  10  11
HETATM   11  C           1     -17.600  -9.662  -5.380  0.00  0.00     0.105 C 
BRANCH  11  12
HETATM   12  C           1     -16.935 -10.861  -5.982  0.00  0.00     0.028 A 
HETATM   13  N           1     -15.580 -11.021  -6.103  0.00  0.00    -0.355 N 
HETATM   14  C           1     -15.418 -12.192  -6.675  0.00  0.00     0.180 A 
ATOM     15  HN          1     -14.851 -10.369  -5.812  1.00  0.00     0.166 HD
HETATM   16  N           1     -16.619 -12.794  -6.928  0.00  0.00    -0.360 N 
HETATM   17  C           1     -17.602 -11.952  -6.488  0.00  0.00     0.114 A 
HETATM   18  H           1     -16.759 -13.733  -7.377  0.00  0.00     0.166 HD
ENDBRANCH  11  12
ENDBRANCH  10  11
BRANCH  10  19
HETATM   19  C           1     -16.866 -10.029  -3.043  0.00  0.00     0.207 C 
HETATM   20  O           1     -16.867 -10.789  -2.052  0.00  0.00    -0.646 OA
HETATM   21  O           1     -15.879  -9.299  -3.272  0.00  0.00    -0.646 OA
ENDBRANCH  10  19
ENDBRANCH   8  10
ENDBRANCH   7   8
ENDBRANCH   6   7
ENDBRANCH   5   6
BRANCH   5  22
HETATM   22  C           1     -21.769  -6.802  -2.604  0.00  0.00     0.196 C 
HETATM   23  O           1     -20.975  -7.350  -1.810  0.00  0.00    -0.646 OA
HETATM   24  O           1     -22.572  -5.939  -2.188  0.00  0.00    -0.646 OA
ENDBRANCH   5  22
ENDBRANCH   1   5
BRANCH   4  25
HETATM   25  C           1     -20.450  -4.498  -6.467  0.00  0.00     0.274 C 
BRANCH  25  26
HETATM   26  C           1     -21.214  -3.826  -7.600  0.00  0.00     0.044 C 
BRANCH  26  27
HETATM   27  C           1     -20.525  -4.125  -8.925  0.00  0.00     0.023 C 
BRANCH  27  28
HETATM   28  C           1     -21.559  -4.141 -10.043  0.00  0.00     0.138 C 
BRANCH  28  29
HETATM   29  N           1     -22.902  -3.960  -9.472  0.00  0.00    -0.227 N 
HETATM   30  H           1     -23.017  -3.497  -8.537  0.00  0.00     0.177 HD
HETATM   31  C           1     -23.920  -4.363 -10.109  0.00  0.00     0.665 C 
HETATM   32  N           1     -25.076  -4.208  -9.618  0.00  0.00    -0.235 N 
HETATM   33  N           1     -23.776  -4.937 -11.267  0.00  0.00    -0.235 N 
HETATM   34  H           1     -25.919  -4.542 -10.146  0.00  0.00     0.174 HD
HETATM   35  H           1     -25.191  -3.744  -8.683  0.00  0.00     0.174 HD
HETATM   36  H           1     -24.616  -5.270 -11.792  0.00  0.00     0.174 HD
HETATM   37  H           1     -22.822  -5.066 -11.672  0.00  0.00     0.174 HD
ENDBRANCH  28  29
ENDBRANCH  27  28
ENDBRANCH  26  27
ENDBRANCH  25  26
BRANCH  25  38
HETATM   38  N           1     -19.308  -5.288  -7.035  0.00  0.00    -0.067 N 
HETATM   39  H           1     -19.521  -5.543  -8.026  0.00  0.00     0.275 HD
HETATM   40  H           1     -19.173  -6.157  -6.472  0.00  0.00     0.275 HD
HETATM   41  H           1     -18.436  -4.714  -7.002  0.00  0.00     0.275 HD
ENDBRANCH  25  38
ENDBRANCH   4  25
TORSDOF 15
ENDMDL
MODEL 5
REMARK VINA RESULT:      -6.4     13.216     17.348
REMARK  15 active torsions:
REMARK  status: ('A' for Active; 'I' for Inactive)
REMARK    1  A    between atoms: N_6  and  C_20 
REMARK    2  A    between atoms: N_6  and  C_7 
REMARK    3  A    between atoms: C_7  and  C_8 
REMARK    4  A    between atoms: C_8  and  C_38 
REMARK    5  A    between atoms: N_9  and  C_38 
REMARK       I    between atoms: N_9  and  C_28 
REMARK    6  A    between atoms: C_18  and  C_19 
REMARK    7  A    between atoms: C_19  and  C_20 
REMARK    8  A    between atoms: C_20  and  C_22 
REMARK    9  A    between atoms: C_28  and  C_29 
REMARK   10  A    between atoms: C_29  and  C_30 
REMARK   11  A    between atoms: C_29  and  N_37 
REMARK   12  A    between atoms: C_30  and  C_31 
REMARK   13  A    between atoms: C_31  and  C_32 
REMARK   14  A    between atoms: C_32  and  N_33 
REMARK       I    between atoms: N_33  and  C_34 
REMARK       I    between atoms: C_34  and  N_35 
REMARK   15  A    between atoms: C_38  and  C_39 
ROOT
HETATM    1  N           1     -20.760  -6.866  -3.671  0.00  0.00    -0.345 N 
HETATM    2  O           1     -21.530  -8.249  -5.247  0.00  0.00    -0.271 OA
HETATM    3  H           1     -20.281  -6.003  -3.447  0.00  0.00     0.163 HD
HETATM    4  C           1     -20.959  -7.219  -4.980  0.00  0.00     0.249 C 
ENDROOT
BRANCH   1   5
HETATM    5  C           1     -21.235  -7.729  -2.608  0.00  0.00     0.187 C 
BRANCH   5   6
HETATM    6  C           1     -20.046  -8.264  -1.820  0.00  0.00     0.066 C 
BRANCH   6   7
HETATM    7  C           1     -19.454  -9.464  -2.547  0.00  0.00     0.273 C 
BRANCH   7   8
HETATM    8  N           1     -18.103  -9.167  -2.943  0.00  0.00     0.098 N 
HETATM    9  H           1     -17.507  -9.135  -2.116  0.00  0.00     0.317 HD
BRANCH   8  10
HETATM   10  C           1     -17.661 -10.222  -3.814  0.00  0.00     0.325 C 
BRANCH  10  11
HETATM   11  C           1     -17.884  -9.810  -5.263  0.00  0.00     0.105 C 
BRANCH  11  12
HETATM   12  C           1     -18.760 -10.818  -5.941  0.00  0.00     0.028 A 
HETATM   13  N           1     -20.130 -10.786  -5.938  0.00  0.00    -0.355 N 
HETATM   14  C           1     -20.503 -11.833  -6.636  0.00  0.00     0.180 A 
ATOM     15  HN          1     -20.732 -10.095  -5.488  1.00  0.00     0.166 HD
HETATM   16  N           1     -19.425 -12.540  -7.091  0.00  0.00    -0.360 N 
HETATM   17  C           1     -18.299 -11.900  -6.653  0.00  0.00     0.114 A 
HETATM   18  H           1     -19.457 -13.415  -7.670  0.00  0.00     0.166 HD
ENDBRANCH  11  12
ENDBRANCH  10  11
BRANCH  10  19
HETATM   19  C           1     -16.192 -10.481  -3.584  0.00  0.00     0.207 C 
HETATM   20  O           1     -15.740 -10.522  -2.420  0.00  0.00    -0.646 OA
HETATM   21  O           1     -15.429 -10.655  -4.558  0.00  0.00    -0.646 OA
ENDBRANCH  10  19
ENDBRANCH   8  10
ENDBRANCH   7   8
ENDBRANCH   6   7
ENDBRANCH   5   6
BRANCH   5  22
HETATM   22  C           1     -22.136  -6.941  -1.687  0.00  0.00     0.196 C 
HETATM   23  O           1     -22.452  -7.409  -0.572  0.00  0.00    -0.646 OA
HETATM   24  O           1     -22.565  -5.821  -2.039  0.00  0.00    -0.646 OA
ENDBRANCH   5  22
ENDBRANCH   1   5
BRANCH   4  25
HETATM   25  C           1     -20.463  -6.321  -6.086  0.00  0.00     0.274 C 
BRANCH  25  26
HETATM   26  C           1     -21.584  -6.084  -7.089  0.00  0.00     0.044 C 
BRANCH  26  27
HETATM   27  C           1     -22.190  -4.706  -6.858  0.00  0.00     0.023 C 
BRANCH  27  28
HETATM   28  C           1     -22.440  -4.030  -8.201  0.00  0.00     0.138 C 
BRANCH  28  29
HETATM   29  N           1     -23.883  -3.817  -8.381  0.00  0.00    -0.227 N 
HETATM   30  H           1     -24.511  -3.740  -7.544  0.00  0.00     0.177 HD
HETATM   31  C           1     -24.368  -3.724  -9.548  0.00  0.00     0.665 C 
HETATM   32  N           1     -25.611  -3.540  -9.703  0.00  0.00    -0.235 N 
HETATM   33  N           1     -23.589  -3.817 -10.584  0.00  0.00    -0.235 N 
HETATM   34  H           1     -26.013  -3.463 -10.670  0.00  0.00     0.174 HD
HETATM   35  H           1     -26.239  -3.463  -8.866  0.00  0.00     0.174 HD
HETATM   36  H           1     -23.990  -3.741 -11.546  0.00  0.00     0.174 HD
HETATM   37  H           1     -22.564  -3.970 -10.455  0.00  0.00     0.174 HD
ENDBRANCH  28  29
ENDBRANCH  27  28
ENDBRANCH  26  27
ENDBRANCH  25  26
BRANCH  25  38
HETATM   38  N           1     -19.303  -6.973  -6.778  0.00  0.00    -0.067 N 
HETATM   39  H           1     -18.516  -7.092  -6.102  0.00  0.00     0.275 HD
HETATM   40  H           1     -18.992  -6.373  -7.575  0.00  0.00     0.275 HD
HETATM   41  H           1     -19.595  -7.909  -7.142  0.00  0.00     0.275 HD
ENDBRANCH  25  38
ENDBRANCH   4  25
TORSDOF 15
ENDMDL
MODEL 6
REMARK VINA RESULT:      -6.4     13.502     17.629
REMARK  15 active torsions:
REMARK  status: ('A' for Active; 'I' for Inactive)
REMARK    1  A    between atoms: N_6  and  C_20 
REMARK    2  A    between atoms: N_6  and  C_7 
REMARK    3  A    between atoms: C_7  and  C_8 
REMARK    4  A    between atoms: C_8  and  C_38 
REMARK    5  A    between atoms: N_9  and  C_38 
REMARK       I    between atoms: N_9  and  C_28 
REMARK    6  A    between atoms: C_18  and  C_19 
REMARK    7  A    between atoms: C_19  and  C_20 
REMARK    8  A    between atoms: C_20  and  C_22 
REMARK    9  A    between atoms: C_28  and  C_29 
REMARK   10  A    between atoms: C_29  and  C_30 
REMARK   11  A    between atoms: C_29  and  N_37 
REMARK   12  A    between atoms: C_30  and  C_31 
REMARK   13  A    between atoms: C_31  and  C_32 
REMARK   14  A    between atoms: C_32  and  N_33 
REMARK       I    between atoms: N_33  and  C_34 
REMARK       I    between atoms: C_34  and  N_35 
REMARK   15  A    between atoms: C_38  and  C_39 
ROOT
HETATM    1  N           1     -20.696  -6.855  -3.514  0.00  0.00    -0.345 N 
HETATM    2  O           1     -21.693  -7.656  -5.345  0.00  0.00    -0.271 OA
HETATM    3  H           1     -20.017  -6.220  -3.115  0.00  0.00     0.163 HD
HETATM    4  C           1     -20.882  -6.897  -4.870  0.00  0.00     0.249 C 
ENDROOT
BRANCH   1   5
HETATM    5  C           1     -21.474  -7.721  -2.649  0.00  0.00     0.187 C 
BRANCH   5   6
HETATM    6  C           1     -20.552  -8.742  -1.994  0.00  0.00     0.066 C 
BRANCH   6   7
HETATM    7  C           1     -21.025 -10.148  -2.339  0.00  0.00     0.273 C 
BRANCH   7   8
HETATM    8  N           1     -20.894 -10.365  -3.755  0.00  0.00     0.098 N 
HETATM    9  H           1     -21.374  -9.619  -4.258  0.00  0.00     0.317 HD
BRANCH   8  10
HETATM   10  C           1     -19.492 -10.335  -4.074  0.00  0.00     0.325 C 
BRANCH  10  11
HETATM   11  C           1     -18.839 -11.633  -3.616  0.00  0.00     0.105 C 
BRANCH  11  12
HETATM   12  C           1     -17.433 -11.359  -3.181  0.00  0.00     0.028 A 
HETATM   13  N           1     -17.022 -10.215  -2.549  0.00  0.00    -0.355 N 
HETATM   14  C           1     -15.735 -10.375  -2.344  0.00  0.00     0.180 A 
ATOM     15  HN          1     -17.594  -9.411  -2.292  1.00  0.00     0.166 HD
HETATM   16  N           1     -15.299 -11.580  -2.821  0.00  0.00    -0.360 N 
HETATM   17  C           1     -16.378 -12.223  -3.360  0.00  0.00     0.114 A 
HETATM   18  H           1     -14.316 -11.945  -2.779  0.00  0.00     0.166 HD
ENDBRANCH  11  12
ENDBRANCH  10  11
BRANCH  10  19
HETATM   19  C           1     -19.320 -10.184  -5.566  0.00  0.00     0.207 C 
HETATM   20  O           1     -19.933 -10.943  -6.346  0.00  0.00    -0.646 OA
HETATM   21  O           1     -18.564  -9.298  -6.020  0.00  0.00    -0.646 OA
ENDBRANCH  10  19
ENDBRANCH   8  10
ENDBRANCH   7   8
ENDBRANCH   6   7
ENDBRANCH   5   6
BRANCH   5  22
HETATM   22  C           1     -22.146  -6.893  -1.582  0.00  0.00     0.196 C 
HETATM   23  O           1     -22.431  -7.406  -0.479  0.00  0.00    -0.646 OA
HETATM   24  O           1     -22.419  -5.692  -1.801  0.00  0.00    -0.646 OA
ENDBRANCH   5  22
ENDBRANCH   1   5
BRANCH   4  25
HETATM   25  C           1     -20.072  -5.997  -5.769  0.00  0.00     0.274 C 
BRANCH  25  26
HETATM   26  C           1     -20.758  -4.641  -5.882  0.00  0.00     0.044 C 
BRANCH  26  27
HETATM   27  C           1     -20.666  -4.143  -7.318  0.00  0.00     0.023 C 
BRANCH  27  28
HETATM   28  C           1     -22.045  -3.701  -7.792  0.00  0.00     0.138 C 
BRANCH  28  29
HETATM   29  N           1     -22.431  -4.483  -8.975  0.00  0.00    -0.227 N 
HETATM   30  H           1     -21.758  -5.173  -9.391  0.00  0.00     0.177 HD
HETATM   31  C           1     -23.576  -4.325  -9.493  0.00  0.00     0.665 C 
HETATM   32  N           1     -23.909  -4.999 -10.511  0.00  0.00    -0.235 N 
HETATM   33  N           1     -24.410  -3.472  -8.977  0.00  0.00    -0.235 N 
HETATM   34  H           1     -24.858  -4.868 -10.940  0.00  0.00     0.174 HD
HETATM   35  H           1     -23.235  -5.688 -10.927  0.00  0.00     0.174 HD
HETATM   36  H           1     -25.354  -3.341  -9.403  0.00  0.00     0.174 HD
HETATM   37  H           1     -24.135  -2.915  -8.136  0.00  0.00     0.174 HD
ENDBRANCH  28  29
ENDBRANCH  27  28
ENDBRANCH  26  27
ENDBRANCH  25  26
BRANCH  25  38
HETATM   38  N           1     -19.964  -6.615  -7.132  0.00  0.00    -0.067 N 
HETATM   39  H           1     -19.394  -7.488  -7.073  0.00  0.00     0.275 HD
HETATM   40  H           1     -19.505  -5.941  -7.784  0.00  0.00     0.275 HD
HETATM   41  H           1     -20.919  -6.846  -7.487  0.00  0.00     0.275 HD
ENDBRANCH  25  38
ENDBRANCH   4  25
TORSDOF 15
ENDMDL
MODEL 7
REMARK VINA RESULT:      -6.4     12.621     15.942
REMARK  15 active torsions:
REMARK  status: ('A' for Active; 'I' for Inactive)
REMARK    1  A    between atoms: N_6  and  C_20 
REMARK    2  A    between atoms: N_6  and  C_7 
REMARK    3  A    between atoms: C_7  and  C_8 
REMARK    4  A    between atoms: C_8  and  C_38 
REMARK    5  A    between atoms: N_9  and  C_38 
REMARK       I    between atoms: N_9  and  C_28 
REMARK    6  A    between atoms: C_18  and  C_19 
REMARK    7  A    between atoms: C_19  and  C_20 
REMARK    8  A    between atoms: C_20  and  C_22 
REMARK    9  A    between atoms: C_28  and  C_29 
REMARK   10  A    between atoms: C_29  and  C_30 
REMARK   11  A    between atoms: C_29  and  N_37 
REMARK   12  A    between atoms: C_30  and  C_31 
REMARK   13  A    between atoms: C_31  and  C_32 
REMARK   14  A    between atoms: C_32  and  N_33 
REMARK       I    between atoms: N_33  and  C_34 
REMARK       I    between atoms: C_34  and  N_35 
REMARK   15  A    between atoms: C_38  and  C_39 
ROOT
HETATM    1  N           1     -20.377  -6.110  -6.814  0.00  0.00    -0.345 N 
HETATM    2  O           1     -22.185  -5.137  -7.692  0.00  0.00    -0.271 OA
HETATM    3  H           1     -19.367  -6.160  -6.767  0.00  0.00     0.163 HD
HETATM    4  C           1     -20.980  -5.197  -7.637  0.00  0.00     0.249 C 
ENDROOT
BRANCH   1   5
HETATM    5  C           1     -21.185  -7.005  -6.009  0.00  0.00     0.187 C 
BRANCH   5   6
HETATM    6  C           1     -20.315  -8.139  -5.482  0.00  0.00     0.066 C 
BRANCH   6   7
HETATM    7  C           1     -21.190  -9.163  -4.772  0.00  0.00     0.273 C 
BRANCH   7   8
HETATM    8  N           1     -20.462  -9.739  -3.674  0.00  0.00     0.098 N 
HETATM    9  H           1     -19.610  -9.201  -3.512  0.00  0.00     0.317 HD
BRANCH   8  10
HETATM   10  C           1     -21.301  -9.672  -2.508  0.00  0.00     0.325 C 
BRANCH  10  11
HETATM   11  C           1     -20.934 -10.801  -1.554  0.00  0.00     0.105 C 
BRANCH  11  12
HETATM   12  C           1     -22.149 -11.222  -0.787  0.00  0.00     0.028 A 
HETATM   13  N           1     -23.389 -10.655  -0.919  0.00  0.00    -0.355 N 
HETATM   14  C           1     -24.160 -11.307  -0.080  0.00  0.00     0.180 A 
ATOM     15  HN          1     -23.657  -9.889  -1.539  1.00  0.00     0.166 HD
HETATM   16  N           1     -23.465 -12.273   0.591  0.00  0.00    -0.360 N 
HETATM   17  C           1     -22.172 -12.232   0.147  0.00  0.00     0.114 A 
HETATM   18  H           1     -23.853 -12.929   1.313  0.00  0.00     0.166 HD
ENDBRANCH  11  12
ENDBRANCH  10  11
BRANCH  10  19
HETATM   19  C           1     -21.099  -8.344  -1.819  0.00  0.00     0.207 C 
HETATM   20  O           1     -22.082  -7.717  -1.373  0.00  0.00    -0.646 OA
HETATM   21  O           1     -19.948  -7.874  -1.697  0.00  0.00    -0.646 OA
ENDBRANCH  10  19
ENDBRANCH   8  10
ENDBRANCH   7   8
ENDBRANCH   6   7
ENDBRANCH   5   6
BRANCH   5  22
HETATM   22  C           1     -21.773  -6.241  -4.847  0.00  0.00     0.196 C 
HETATM   23  O           1     -21.021  -5.640  -4.050  0.00  0.00    -0.646 OA
HETATM   24  O           1     -23.012  -6.209  -4.682  0.00  0.00    -0.646 OA
ENDBRANCH   5  22
ENDBRANCH   1   5
BRANCH   4  25
HETATM   25  C           1     -20.138  -4.267  -8.476  0.00  0.00     0.274 C 
BRANCH  25  26
HETATM   26  C           1     -20.047  -4.807  -9.897  0.00  0.00     0.044 C 
BRANCH  26  27
HETATM   27  C           1     -20.441  -3.714 -10.882  0.00  0.00     0.023 C 
BRANCH  27  28
HETATM   28  C           1     -21.882  -3.929 -11.329  0.00  0.00     0.138 C 
BRANCH  28  29
HETATM   29  N           1     -22.793  -3.281 -10.375  0.00  0.00    -0.227 N 
HETATM   30  H           1     -22.617  -2.292 -10.069  0.00  0.00     0.177 HD
HETATM   31  C           1     -23.792  -3.915  -9.923  0.00  0.00     0.665 C 
HETATM   32  N           1     -24.577  -3.357  -9.102  0.00  0.00    -0.235 N 
HETATM   33  N           1     -24.011  -5.139 -10.303  0.00  0.00    -0.235 N 
HETATM   34  H           1     -25.406  -3.883  -8.728  0.00  0.00     0.174 HD
HETATM   35  H           1     -24.401  -2.368  -8.796  0.00  0.00     0.174 HD
HETATM   36  H           1     -24.835  -5.662  -9.930  0.00  0.00     0.174 HD
HETATM   37  H           1     -23.362  -5.599 -10.980  0.00  0.00     0.174 HD
ENDBRANCH  28  29
ENDBRANCH  27  28
ENDBRANCH  26  27
ENDBRANCH  25  26
BRANCH  25  38
HETATM   38  N           1     -18.761  -4.173  -7.888  0.00  0.00    -0.067 N 
HETATM   39  H           1     -18.285  -5.100  -7.967  0.00  0.00     0.275 HD
HETATM   40  H           1     -18.830  -3.899  -6.883  0.00  0.00     0.275 HD
HETATM   41  H           1     -18.209  -3.453  -8.407  0.00  0.00     0.275 HD
ENDBRANCH  25  38
ENDBRANCH   4  25
TORSDOF 15
ENDMDL
MODEL 8
REMARK VINA RESULT:      -6.2     13.336     16.796
REMARK  15 active torsions:
REMARK  status: ('A' for Active; 'I' for Inactive)
REMARK    1  A    between atoms: N_6  and  C_20 
REMARK    2  A    between atoms: N_6  and  C_7 
REMARK    3  A    between atoms: C_7  and  C_8 
REMARK    4  A    between atoms: C_8  and  C_38 
REMARK    5  A    between atoms: N_9  and  C_38 
REMARK       I    between atoms: N_9  and  C_28 
REMARK    6  A    between atoms: C_18  and  C_19 
REMARK    7  A    between atoms: C_19  and  C_20 
REMARK    8  A    between atoms: C_20  and  C_22 
REMARK    9  A    between atoms: C_28  and  C_29 
REMARK   10  A    between atoms: C_29  and  C_30 
REMARK   11  A    between atoms: C_29  and  N_37 
REMARK   12  A    between atoms: C_30  and  C_31 
REMARK   13  A    between atoms: C_31  and  C_32 
REMARK   14  A    between atoms: C_32  and  N_33 
REMARK       I    between atoms: N_33  and  C_34 
REMARK       I    between atoms: C_34  and  N_35 
REMARK   15  A    between atoms: C_38  and  C_39 
ROOT
HETATM    1  N           1     -20.990  -6.562  -3.556  0.00  0.00    -0.345 N 
HETATM    2  O           1     -22.343  -7.170  -5.226  0.00  0.00    -0.271 OA
HETATM    3  H           1     -20.319  -5.897  -3.195  0.00  0.00     0.163 HD
HETATM    4  C           1     -21.541  -6.376  -4.796  0.00  0.00     0.249 C 
ENDROOT
BRANCH   1   5
HETATM    5  C           1     -21.372  -7.712  -2.759  0.00  0.00     0.187 C 
BRANCH   5   6
HETATM    6  C           1     -20.151  -8.593  -2.525  0.00  0.00     0.066 C 
BRANCH   6   7
HETATM    7  C           1     -19.652  -9.133  -3.859  0.00  0.00     0.273 C 
BRANCH   7   8
HETATM    8  N           1     -20.651  -9.990  -4.436  0.00  0.00     0.098 N 
HETATM    9  H           1     -20.386 -10.225  -5.393  0.00  0.00     0.317 HD
BRANCH   8  10
HETATM   10  C           1     -20.708 -11.190  -3.645  0.00  0.00     0.325 C 
BRANCH  10  11
HETATM   11  C           1     -22.163 -11.579  -3.419  0.00  0.00     0.105 C 
BRANCH  11  12
HETATM   12  C           1     -22.524 -11.355  -1.983  0.00  0.00     0.028 A 
HETATM   13  N           1     -23.773 -11.009  -1.538  0.00  0.00    -0.355 N 
HETATM   14  C           1     -23.662 -10.913  -0.233  0.00  0.00     0.180 A 
ATOM     15  HN          1     -24.610 -10.857  -2.101  1.00  0.00     0.166 HD
HETATM   16  N           1     -22.388 -11.185   0.182  0.00  0.00    -0.360 N 
HETATM   17  C           1     -21.646 -11.471  -0.930  0.00  0.00     0.114 A 
HETATM   18  H           1     -22.044 -11.176   1.173  0.00  0.00     0.166 HD
ENDBRANCH  11  12
ENDBRANCH  10  11
BRANCH  10  19
HETATM   19  C           1     -19.996 -12.304  -4.371  0.00  0.00     0.207 C 
HETATM   20  O           1     -20.598 -12.968  -5.241  0.00  0.00    -0.646 OA
HETATM   21  O           1     -18.803 -12.562  -4.102  0.00  0.00    -0.646 OA
ENDBRANCH  10  19
ENDBRANCH   8  10
ENDBRANCH   7   8
ENDBRANCH   6   7
ENDBRANCH   5   6
BRANCH   5  22
HETATM   22  C           1     -21.917  -7.244  -1.432  0.00  0.00     0.196 C 
HETATM   23  O           1     -21.888  -8.006  -0.441  0.00  0.00    -0.646 OA
HETATM   24  O           1     -22.397  -6.095  -1.322  0.00  0.00    -0.646 OA
ENDBRANCH   5  22
ENDBRANCH   1   5
BRANCH   4  25
HETATM   25  C           1     -21.143  -5.180  -5.625  0.00  0.00     0.274 C 
BRANCH  25  26
HETATM   26  C           1     -22.183  -4.947  -6.713  0.00  0.00     0.044 C 
BRANCH  26  27
HETATM   27  C           1     -21.805  -3.712  -7.521  0.00  0.00     0.023 C 
BRANCH  27  28
HETATM   28  C           1     -22.449  -3.791  -8.900  0.00  0.00     0.138 C 
BRANCH  28  29
HETATM   29  N           1     -23.877  -3.460  -8.794  0.00  0.00    -0.227 N 
HETATM   30  H           1     -24.235  -2.938  -7.956  0.00  0.00     0.177 HD
HETATM   31  C           1     -24.677  -3.803  -9.714  0.00  0.00     0.665 C 
HETATM   32  N           1     -25.906  -3.517  -9.624  0.00  0.00    -0.235 N 
HETATM   33  N           1     -24.233  -4.449 -10.752  0.00  0.00    -0.235 N 
HETATM   34  H           1     -26.569  -3.802 -10.387  0.00  0.00     0.174 HD
HETATM   35  H           1     -26.264  -2.996  -8.786  0.00  0.00     0.174 HD
HETATM   36  H           1     -24.893  -4.732 -11.511  0.00  0.00     0.174 HD
HETATM   37  H           1     -23.218  -4.685 -10.826  0.00  0.00     0.174 HD
ENDBRANCH  28  29
ENDBRANCH  27  28
ENDBRANCH  26  27
ENDBRANCH  25  26
BRANCH  25  38
HETATM   38  N           1     -19.807  -5.431  -6.258  0.00  0.00    -0.067 N 
HETATM   39  H           1     -19.083  -4.839  -5.792  0.00  0.00     0.275 HD
HETATM   40  H           1     -19.853  -5.191  -7.274  0.00  0.00     0.275 HD
HETATM   41  H           1     -19.554  -6.439  -6.151  0.00  0.00     0.275 HD
ENDBRANCH  25  38
ENDBRANCH   4  25
TORSDOF 15
ENDMDL
MODEL 9
REMARK VINA RESULT:      -6.2     13.277     17.539
REMARK  15 active torsions:
REMARK  status: ('A' for Active; 'I' for Inactive)
REMARK    1  A    between atoms: N_6  and  C_20 
REMARK    2  A    between atoms: N_6  and  C_7 
REMARK    3  A    between atoms: C_7  and  C_8 
REMARK    4  A    between atoms: C_8  and  C_38 
REMARK    5  A    between atoms: N_9  and  C_38 
REMARK       I    between atoms: N_9  and  C_28 
REMARK    6  A    between atoms: C_18  and  C_19 
REMARK    7  A    between atoms: C_19  and  C_20 
REMARK    8  A    between atoms: C_20  and  C_22 
REMARK    9  A    between atoms: C_28  and  C_29 
REMARK   10  A    between atoms: C_29  and  C_30 
REMARK   11  A    between atoms: C_29  and  N_37 
REMARK   12  A    between atoms: C_30  and  C_31 
REMARK   13  A    between atoms: C_31  and  C_32 
REMARK   14  A    between atoms: C_32  and  N_33 
REMARK       I    between atoms: N_33  and  C_34 
REMARK       I    between atoms: C_34  and  N_35 
REMARK   15  A    between atoms: C_38  and  C_39 
ROOT
HETATM    1  N           1     -20.756  -7.504  -2.858  0.00  0.00    -0.345 N 
HETATM    2  O           1     -22.295  -7.843  -4.441  0.00  0.00    -0.271 OA
HETATM    3  H           1     -19.872  -7.087  -2.597  0.00  0.00     0.163 HD
HETATM    4  C           1     -21.240  -7.346  -4.130  0.00  0.00     0.249 C 
ENDROOT
BRANCH   1   5
HETATM    5  C           1     -21.512  -8.269  -1.886  0.00  0.00     0.187 C 
BRANCH   5   6
HETATM    6  C           1     -20.611  -9.326  -1.262  0.00  0.00     0.066 C 
BRANCH   6   7
HETATM    7  C           1     -19.621  -9.829  -2.304  0.00  0.00     0.273 C 
BRANCH   7   8
HETATM    8  N           1     -20.202 -10.926  -3.030  0.00  0.00     0.098 N 
HETATM    9  H           1     -21.219 -10.860  -2.987  0.00  0.00     0.317 HD
BRANCH   8  10
HETATM   10  C           1     -19.771 -10.823  -4.398  0.00  0.00     0.325 C 
BRANCH  10  11
HETATM   11  C           1     -18.737 -11.904  -4.686  0.00  0.00     0.105 C 
BRANCH  11  12
HETATM   12  C           1     -17.440 -11.265  -5.074  0.00  0.00     0.028 A 
HETATM   13  N           1     -16.211 -11.856  -4.942  0.00  0.00    -0.355 N 
HETATM   14  C           1     -15.351 -10.972  -5.393  0.00  0.00     0.180 A 
ATOM     15  HN          1     -16.007 -12.784  -4.571  1.00  0.00     0.166 HD
HETATM   16  N           1     -15.979  -9.832  -5.812  0.00  0.00    -0.360 N 
HETATM   17  C           1     -17.320 -10.006  -5.614  0.00  0.00     0.114 A 
HETATM   18  H           1     -15.515  -8.980  -6.213  0.00  0.00     0.166 HD
ENDBRANCH  11  12
ENDBRANCH  10  11
BRANCH  10  19
HETATM   19  C           1     -20.957 -11.003  -5.313  0.00  0.00     0.207 C 
HETATM   20  O           1     -21.036 -10.342  -6.370  0.00  0.00    -0.646 OA
HETATM   21  O           1     -21.859 -11.814  -5.013  0.00  0.00    -0.646 OA
ENDBRANCH  10  19
ENDBRANCH   8  10
ENDBRANCH   7   8
ENDBRANCH   6   7
ENDBRANCH   5   6
BRANCH   5  22
HETATM   22  C           1     -22.024  -7.345  -0.808  0.00  0.00     0.196 C 
HETATM   23  O           1     -22.587  -6.273  -1.120  0.00  0.00    -0.646 OA
HETATM   24  O           1     -21.887  -7.651   0.396  0.00  0.00    -0.646 OA
ENDBRANCH   5  22
ENDBRANCH   1   5
BRANCH   4  25
HETATM   25  C           1     -20.452  -6.550  -5.141  0.00  0.00     0.274 C 
BRANCH  25  26
HETATM   26  C           1     -21.382  -5.583  -5.862  0.00  0.00     0.044 C 
BRANCH  26  27
HETATM   27  C           1     -20.564  -4.452  -6.473  0.00  0.00     0.023 C 
BRANCH  27  28
HETATM   28  C           1     -21.014  -4.220  -7.910  0.00  0.00     0.138 C 
BRANCH  28  29
HETATM   29  N           1     -22.371  -3.657  -7.914  0.00  0.00    -0.227 N 
HETATM   30  H           1     -22.689  -3.045  -7.122  0.00  0.00     0.177 HD
HETATM   31  C           1     -23.159  -3.909  -8.874  0.00  0.00     0.665 C 
HETATM   32  N           1     -24.328  -3.424  -8.878  0.00  0.00    -0.235 N 
HETATM   33  N           1     -22.765  -4.666  -9.855  0.00  0.00    -0.235 N 
HETATM   34  H           1     -24.980  -3.633  -9.673  0.00  0.00     0.174 HD
HETATM   35  H           1     -24.645  -2.812  -8.085  0.00  0.00     0.174 HD
HETATM   36  H           1     -23.415  -4.874 -10.646  0.00  0.00     0.174 HD
HETATM   37  H           1     -21.800  -5.067  -9.851  0.00  0.00     0.174 HD
ENDBRANCH  28  29
ENDBRANCH  27  28
ENDBRANCH  26  27
ENDBRANCH  25  26
BRANCH  25  38
HETATM   38  N           1     -19.832  -7.483  -6.139  0.00  0.00    -0.067 N 
HETATM   39  H           1     -20.505  -7.654  -6.920  0.00  0.00     0.275 HD
HETATM   40  H           1     -19.603  -8.389  -5.672  0.00  0.00     0.275 HD
HETATM   41  H           1     -18.958  -7.057  -6.519  0.00  0.00     0.275 HD
ENDBRANCH  25  38
ENDBRANCH   4  25
TORSDOF 15
ENDMDL
