MODEL 1
REMARK VINA RESULT:      -5.7      0.000      0.000
REMARK  10 active torsions:
REMARK  status: ('A' for Active; 'I' for Inactive)
REMARK    1  A    between atoms: N_1  and  C_11 
REMARK    2  A    between atoms: Se_2  and  C_20 
REMARK    3  A    between atoms: N_4  and  C_17 
REMARK    4  A    between atoms: C_6  and  C_23 
REMARK    5  A    between atoms: C_11  and  C_14 
REMARK    6  A    between atoms: C_11  and  C_12 
REMARK    7  A    between atoms: C_12  and  C_21 
REMARK       I    between atoms: C_14  and  N_22 
REMARK    8  A    between atoms: C_17  and  C_21 
REMARK    9  A    between atoms: C_20  and  C_23 
REMARK   10  A    between atoms: N_22  and  C_23 
ROOT
HETATM    1  C           1     -33.704  -2.114 -11.456  0.00  0.00     0.274 C 
ENDROOT
BRANCH   1   2
HETATM    2  N           1     -34.484  -1.881 -10.196  0.00  0.00    -0.067 N 
HETATM    3  H           1     -35.053  -1.010 -10.294  0.00  0.00     0.275 HD
HETATM    4  H           1     -35.117  -2.693 -10.022  0.00  0.00     0.275 HD
HETATM    5  H           1     -33.824  -1.774  -9.393  0.00  0.00     0.275 HD
ENDBRANCH   1   2
BRANCH   1   6
HETATM    6  C           1     -34.615  -1.951 -12.647  0.00  0.00     0.249 C 
HETATM    7  O           1     -34.714  -2.841 -13.458  0.00  0.00    -0.271 OA
HETATM    8  N           1     -35.330  -0.795 -12.810  0.00  0.00    -0.345 N 
HETATM    9  H           1     -35.248  -0.049 -12.130  0.00  0.00     0.163 HD
BRANCH   8  10
HETATM   10  C           1     -36.205  -0.639 -13.955  0.00  0.00     0.185 C 
BRANCH  10  11
HETATM   11  C           1     -35.576   0.313 -14.942  0.00  0.00     0.196 C 
HETATM   12  O           1     -34.376   0.637 -14.819  0.00  0.00    -0.646 OA
HETATM   13  O           1     -36.256   0.777 -15.883  0.00  0.00    -0.646 OA
ENDBRANCH  10  11
BRANCH  10  14
HETATM   14  C           1     -37.546  -0.082 -13.495  0.00  0.00     0.039 C 
BRANCH  14  15
HETATM   15 Se           1     -37.655  -0.170 -11.551  0.00  0.00     0.000 Se
HETATM   16  H           1     -36.836  -1.389 -11.446  0.00  0.00     0.000 HD
ENDBRANCH  14  15
ENDBRANCH  10  14
ENDBRANCH   8  10
ENDBRANCH   1   6
BRANCH   1  17
HETATM   17  C           1     -33.129  -3.525 -11.443  0.00  0.00     0.044 C 
BRANCH  17  18
HETATM   18  C           1     -33.958  -4.403 -10.515  0.00  0.00     0.030 C 
BRANCH  18  19
HETATM   19  C           1     -34.053  -5.808 -11.093  0.00  0.00     0.230 C 
BRANCH  19  20
HETATM   20  N           1     -34.714  -5.753 -12.438  0.00  0.00    -0.079 N 
HETATM   21  H           1     -34.600  -6.672 -12.922  0.00  0.00     0.274 HD
HETATM   22  H           1     -35.732  -5.547 -12.317  0.00  0.00     0.274 HD
HETATM   23  H           1     -34.272  -5.000 -13.012  0.00  0.00     0.274 HD
ENDBRANCH  19  20
ENDBRANCH  18  19
ENDBRANCH  17  18
ENDBRANCH   1  17
TORSDOF 10
ENDMDL
MODEL 2
REMARK VINA RESULT:      -5.5     11.943     13.242
REMARK  10 active torsions:
REMARK  status: ('A' for Active; 'I' for Inactive)
REMARK    1  A    between atoms: N_1  and  C_11 
REMARK    2  A    between atoms: Se_2  and  C_20 
REMARK    3  A    between atoms: N_4  and  C_17 
REMARK    4  A    between atoms: C_6  and  C_23 
REMARK    5  A    between atoms: C_11  and  C_14 
REMARK    6  A    between atoms: C_11  and  C_12 
REMARK    7  A    between atoms: C_12  and  C_21 
REMARK       I    between atoms: C_14  and  N_22 
REMARK    8  A    between atoms: C_17  and  C_21 
REMARK    9  A    between atoms: C_20  and  C_23 
REMARK   10  A    between atoms: N_22  and  C_23 
ROOT
HETATM    1  C           1     -25.391  -7.600 -20.335  0.00  0.00     0.274 C 
ENDROOT
BRANCH   1   2
HETATM    2  N           1     -26.829  -7.884 -20.655  0.00  0.00    -0.067 N 
HETATM    3  H           1     -27.352  -6.983 -20.736  0.00  0.00     0.275 HD
HETATM    4  H           1     -26.889  -8.404 -21.559  0.00  0.00     0.275 HD
HETATM    5  H           1     -27.248  -8.461 -19.891  0.00  0.00     0.275 HD
ENDBRANCH   1   2
BRANCH   1   6
HETATM    6  C           1     -25.304  -6.880 -19.012  0.00  0.00     0.249 C 
HETATM    7  O           1     -24.234  -6.493 -18.604  0.00  0.00    -0.271 OA
HETATM    8  N           1     -26.437  -6.663 -18.274  0.00  0.00    -0.345 N 
HETATM    9  H           1     -27.333  -6.987 -18.617  0.00  0.00     0.163 HD
BRANCH   8  10
HETATM   10  C           1     -26.353  -5.971 -17.003  0.00  0.00     0.185 C 
BRANCH  10  11
HETATM   11  C           1     -26.326  -6.980 -15.882  0.00  0.00     0.196 C 
HETATM   12  O           1     -27.397  -7.400 -15.394  0.00  0.00    -0.646 OA
HETATM   13  O           1     -25.232  -7.396 -15.441  0.00  0.00    -0.646 OA
ENDBRANCH  10  11
BRANCH  10  14
HETATM   14  C           1     -27.564  -5.062 -16.840  0.00  0.00     0.039 C 
BRANCH  14  15
HETATM   15 Se           1     -28.794  -5.347 -18.325  0.00  0.00     0.000 Se
HETATM   16  H           1     -28.842  -6.808 -18.156  0.00  0.00     0.000 HD
ENDBRANCH  14  15
ENDBRANCH  10  14
ENDBRANCH   8  10
ENDBRANCH   1   6
BRANCH   1  17
HETATM   17  C           1     -24.789  -6.729 -21.429  0.00  0.00     0.044 C 
BRANCH  17  18
HETATM   18  C           1     -24.056  -7.609 -22.434  0.00  0.00     0.030 C 
BRANCH  18  19
HETATM   19  C           1     -22.982  -8.415 -21.716  0.00  0.00     0.230 C 
BRANCH  19  20
HETATM   20  N           1     -22.457  -9.478 -22.635  0.00  0.00    -0.079 N 
HETATM   21  H           1     -21.627  -9.939 -22.197  0.00  0.00     0.274 HD
HETATM   22  H           1     -23.202 -10.191 -22.805  0.00  0.00     0.274 HD
HETATM   23  H           1     -22.175  -9.045 -23.543  0.00  0.00     0.274 HD
ENDBRANCH  19  20
ENDBRANCH  18  19
ENDBRANCH  17  18
ENDBRANCH   1  17
TORSDOF 10
ENDMDL
MODEL 3
REMARK VINA RESULT:      -5.4     13.177     14.587
REMARK  10 active torsions:
REMARK  status: ('A' for Active; 'I' for Inactive)
REMARK    1  A    between atoms: N_1  and  C_11 
REMARK    2  A    between atoms: Se_2  and  C_20 
REMARK    3  A    between atoms: N_4  and  C_17 
REMARK    4  A    between atoms: C_6  and  C_23 
REMARK    5  A    between atoms: C_11  and  C_14 
REMARK    6  A    between atoms: C_11  and  C_12 
REMARK    7  A    between atoms: C_12  and  C_21 
REMARK       I    between atoms: C_14  and  N_22 
REMARK    8  A    between atoms: C_17  and  C_21 
REMARK    9  A    between atoms: C_20  and  C_23 
REMARK   10  A    between atoms: N_22  and  C_23 
ROOT
HETATM    1  C           1     -21.130  -5.832  -6.845  0.00  0.00     0.274 C 
ENDROOT
BRANCH   1   2
HETATM    2  N           1     -19.830  -6.221  -7.486  0.00  0.00    -0.067 N 
HETATM    3  H           1     -19.044  -5.723  -7.010  0.00  0.00     0.275 HD
HETATM    4  H           1     -19.693  -7.253  -7.398  0.00  0.00     0.275 HD
HETATM    5  H           1     -19.848  -5.955  -8.496  0.00  0.00     0.275 HD
ENDBRANCH   1   2
BRANCH   1   6
HETATM    6  C           1     -21.693  -4.621  -7.547  0.00  0.00     0.249 C 
HETATM    7  O           1     -21.662  -3.541  -7.007  0.00  0.00    -0.271 OA
HETATM    8  N           1     -22.240  -4.746  -8.797  0.00  0.00    -0.345 N 
HETATM    9  H           1     -22.265  -5.652  -9.249  0.00  0.00     0.163 HD
BRANCH   8  10
HETATM   10  C           1     -22.781  -3.582  -9.471  0.00  0.00     0.185 C 
BRANCH  10  11
HETATM   11  C           1     -24.267  -3.758  -9.662  0.00  0.00     0.196 C 
HETATM   12  O           1     -25.031  -2.775  -9.561  0.00  0.00    -0.646 OA
HETATM   13  O           1     -24.734  -4.889  -9.923  0.00  0.00    -0.646 OA
ENDBRANCH  10  11
BRANCH  10  14
HETATM   14  C           1     -22.108  -3.426 -10.828  0.00  0.00     0.039 C 
BRANCH  14  15
HETATM   15 Se           1     -20.385  -4.336 -10.809  0.00  0.00     0.000 Se
HETATM   16  H           1     -20.962  -5.668 -10.567  0.00  0.00     0.000 HD
ENDBRANCH  14  15
ENDBRANCH  10  14
ENDBRANCH   8  10
ENDBRANCH   1   6
BRANCH   1  17
HETATM   17  C           1     -20.894  -5.505  -5.376  0.00  0.00     0.044 C 
BRANCH  17  18
HETATM   18  C           1     -21.830  -6.339  -4.513  0.00  0.00     0.030 C 
BRANCH  18  19
HETATM   19  C           1     -21.326  -6.348  -3.076  0.00  0.00     0.230 C 
BRANCH  19  20
HETATM   20  N           1     -22.417  -5.882  -2.159  0.00  0.00    -0.079 N 
HETATM   21  H           1     -22.550  -6.579  -1.391  0.00  0.00     0.274 HD
HETATM   22  H           1     -22.156  -4.958  -1.748  0.00  0.00     0.274 HD
HETATM   23  H           1     -23.307  -5.784  -2.699  0.00  0.00     0.274 HD
ENDBRANCH  19  20
ENDBRANCH  18  19
ENDBRANCH  17  18
ENDBRANCH   1  17
TORSDOF 10
ENDMDL
MODEL 4
REMARK VINA RESULT:      -5.2     11.273     12.319
REMARK  10 active torsions:
REMARK  status: ('A' for Active; 'I' for Inactive)
REMARK    1  A    between atoms: N_1  and  C_11 
REMARK    2  A    between atoms: Se_2  and  C_20 
REMARK    3  A    between atoms: N_4  and  C_17 
REMARK    4  A    between atoms: C_6  and  C_23 
REMARK    5  A    between atoms: C_11  and  C_14 
REMARK    6  A    between atoms: C_11  and  C_12 
REMARK    7  A    between atoms: C_12  and  C_21 
REMARK       I    between atoms: C_14  and  N_22 
REMARK    8  A    between atoms: C_17  and  C_21 
REMARK    9  A    between atoms: C_20  and  C_23 
REMARK   10  A    between atoms: N_22  and  C_23 
ROOT
HETATM    1  C           1     -24.970  -6.885 -19.696  0.00  0.00     0.274 C 
ENDROOT
BRANCH   1   2
HETATM    2  N           1     -24.289  -7.480 -18.498  0.00  0.00    -0.067 N 
HETATM    3  H           1     -24.239  -6.767 -17.736  0.00  0.00     0.275 HD
HETATM    4  H           1     -24.830  -8.309 -18.165  0.00  0.00     0.275 HD
HETATM    5  H           1     -23.321  -7.775 -18.760  0.00  0.00     0.275 HD
ENDBRANCH   1   2
BRANCH   1   6
HETATM    6  C           1     -26.369  -6.464 -19.319  0.00  0.00     0.249 C 
HETATM    7  O           1     -27.187  -6.248 -20.181  0.00  0.00    -0.271 OA
HETATM    8  N           1     -26.711  -6.326 -18.000  0.00  0.00    -0.345 N 
HETATM    9  H           1     -26.025  -6.507 -17.278  0.00  0.00     0.163 HD
BRANCH   8  10
HETATM   10  C           1     -28.056  -5.921 -17.639  0.00  0.00     0.185 C 
BRANCH  10  11
HETATM   11  C           1     -27.990  -4.838 -16.591  0.00  0.00     0.196 C 
HETATM   12  O           1     -27.944  -3.638 -16.935  0.00  0.00    -0.646 OA
HETATM   13  O           1     -27.981  -5.142 -15.378  0.00  0.00    -0.646 OA
ENDBRANCH  10  11
BRANCH  10  14
HETATM   14  C           1     -28.814  -7.120 -17.084  0.00  0.00     0.039 C 
BRANCH  14  15
HETATM   15 Se           1     -30.698  -6.976 -17.562  0.00  0.00     0.000 Se
HETATM   16  H           1     -30.884  -5.673 -16.904  0.00  0.00     0.000 HD
ENDBRANCH  14  15
ENDBRANCH  10  14
ENDBRANCH   8  10
ENDBRANCH   1   6
BRANCH   1  17
HETATM   17  C           1     -25.033  -7.921 -20.810  0.00  0.00     0.044 C 
BRANCH  17  18
HETATM   18  C           1     -24.298  -7.394 -22.036  0.00  0.00     0.030 C 
BRANCH  18  19
HETATM   19  C           1     -23.232  -8.395 -22.460  0.00  0.00     0.230 C 
BRANCH  19  20
HETATM   20  N           1     -22.626  -9.027 -21.242  0.00  0.00    -0.079 N 
HETATM   21  H           1     -22.236  -9.964 -21.492  0.00  0.00     0.274 HD
HETATM   22  H           1     -21.859  -8.417 -20.879  0.00  0.00     0.274 HD
HETATM   23  H           1     -23.359  -9.140 -20.507  0.00  0.00     0.274 HD
ENDBRANCH  19  20
ENDBRANCH  18  19
ENDBRANCH  17  18
ENDBRANCH   1  17
TORSDOF 10
ENDMDL
MODEL 5
REMARK VINA RESULT:      -5.1     10.420     11.558
REMARK  10 active torsions:
REMARK  status: ('A' for Active; 'I' for Inactive)
REMARK    1  A    between atoms: N_1  and  C_11 
REMARK    2  A    between atoms: Se_2  and  C_20 
REMARK    3  A    between atoms: N_4  and  C_17 
REMARK    4  A    between atoms: C_6  and  C_23 
REMARK    5  A    between atoms: C_11  and  C_14 
REMARK    6  A    between atoms: C_11  and  C_12 
REMARK    7  A    between atoms: C_12  and  C_21 
REMARK       I    between atoms: C_14  and  N_22 
REMARK    8  A    between atoms: C_17  and  C_21 
REMARK    9  A    between atoms: C_20  and  C_23 
REMARK   10  A    between atoms: N_22  and  C_23 
ROOT
HETATM    1  C           1     -28.625  -6.428 -17.239  0.00  0.00     0.274 C 
ENDROOT
BRANCH   1   2
HETATM    2  N           1     -27.510  -6.869 -16.337  0.00  0.00    -0.067 N 
HETATM    3  H           1     -27.322  -6.126 -15.627  0.00  0.00     0.275 HD
HETATM    4  H           1     -27.783  -7.753 -15.852  0.00  0.00     0.275 HD
HETATM    5  H           1     -26.648  -7.033 -16.904  0.00  0.00     0.275 HD
ENDBRANCH   1   2
BRANCH   1   6
HETATM    6  C           1     -28.083  -6.192 -18.628  0.00  0.00     0.249 C 
HETATM    7  O           1     -28.449  -5.231 -19.263  0.00  0.00    -0.271 OA
HETATM    8  N           1     -27.178  -7.066 -19.168  0.00  0.00    -0.345 N 
HETATM    9  H           1     -26.872  -7.870 -18.634  0.00  0.00     0.163 HD
BRANCH   8  10
HETATM   10  C           1     -26.658  -6.838 -20.502  0.00  0.00     0.185 C 
BRANCH  10  11
HETATM   11  C           1     -26.614  -8.145 -21.254  0.00  0.00     0.196 C 
HETATM   12  O           1     -27.650  -8.834 -21.368  0.00  0.00    -0.646 OA
HETATM   13  O           1     -25.542  -8.538 -21.762  0.00  0.00    -0.646 OA
ENDBRANCH  10  11
BRANCH  10  14
HETATM   14  C           1     -25.252  -6.260 -20.405  0.00  0.00     0.039 C 
BRANCH  14  15
HETATM   15 Se           1     -24.334  -7.037 -18.871  0.00  0.00     0.000 Se
HETATM   16  H           1     -22.993  -6.911 -19.464  0.00  0.00     0.000 HD
ENDBRANCH  14  15
ENDBRANCH  10  14
ENDBRANCH   8  10
ENDBRANCH   1   6
BRANCH   1  17
HETATM   17  C           1     -29.232  -5.138 -16.703  0.00  0.00     0.044 C 
BRANCH  17  18
HETATM   18  C           1     -30.751  -5.250 -16.709  0.00  0.00     0.030 C 
BRANCH  18  19
HETATM   19  C           1     -31.353  -3.975 -17.284  0.00  0.00     0.230 C 
BRANCH  19  20
HETATM   20  N           1     -30.268  -3.141 -17.898  0.00  0.00    -0.079 N 
HETATM   21  H           1     -30.670  -2.235 -18.230  0.00  0.00     0.274 HD
HETATM   22  H           1     -29.528  -2.953 -17.185  0.00  0.00     0.274 HD
HETATM   23  H           1     -29.851  -3.654 -18.707  0.00  0.00     0.274 HD
ENDBRANCH  19  20
ENDBRANCH  18  19
ENDBRANCH  17  18
ENDBRANCH   1  17
TORSDOF 10
ENDMDL
MODEL 6
REMARK VINA RESULT:      -5.0     14.875     16.895
REMARK  10 active torsions:
REMARK  status: ('A' for Active; 'I' for Inactive)
REMARK    1  A    between atoms: N_1  and  C_11 
REMARK    2  A    between atoms: Se_2  and  C_20 
REMARK    3  A    between atoms: N_4  and  C_17 
REMARK    4  A    between atoms: C_6  and  C_23 
REMARK    5  A    between atoms: C_11  and  C_14 
REMARK    6  A    between atoms: C_11  and  C_12 
REMARK    7  A    between atoms: C_12  and  C_21 
REMARK       I    between atoms: C_14  and  N_22 
REMARK    8  A    between atoms: C_17  and  C_21 
REMARK    9  A    between atoms: C_20  and  C_23 
REMARK   10  A    between atoms: N_22  and  C_23 
ROOT
HETATM    1  C           1     -20.561  -4.953  -6.606  0.00  0.00     0.274 C 
ENDROOT
BRANCH   1   2
HETATM    2  N           1     -19.998  -5.844  -7.673  0.00  0.00    -0.067 N 
HETATM    3  H           1     -18.972  -5.668  -7.769  0.00  0.00     0.275 HD
HETATM    4  H           1     -20.157  -6.843  -7.413  0.00  0.00     0.275 HD
HETATM    5  H           1     -20.471  -5.640  -8.582  0.00  0.00     0.275 HD
ENDBRANCH   1   2
BRANCH   1   6
HETATM    6  C           1     -21.432  -5.767  -5.681  0.00  0.00     0.249 C 
HETATM    7  O           1     -22.632  -5.621  -5.697  0.00  0.00    -0.271 OA
HETATM    8  N           1     -20.865  -6.671  -4.823  0.00  0.00    -0.345 N 
HETATM    9  H           1     -19.860  -6.793  -4.811  0.00  0.00     0.163 HD
BRANCH   8  10
HETATM   10  C           1     -21.703  -7.452  -3.935  0.00  0.00     0.185 C 
BRANCH  10  11
HETATM   11  C           1     -21.623  -6.884  -2.540  0.00  0.00     0.196 C 
HETATM   12  O           1     -22.328  -5.902  -2.224  0.00  0.00    -0.646 OA
HETATM   13  O           1     -20.852  -7.397  -1.700  0.00  0.00    -0.646 OA
ENDBRANCH  10  11
BRANCH  10  14
HETATM   14  C           1     -21.220  -8.897  -3.925  0.00  0.00     0.039 C 
BRANCH  14  15
HETATM   15 Se           1     -19.452  -8.997  -4.739  0.00  0.00     0.000 Se
HETATM   16  H           1     -19.162 -10.342  -4.218  0.00  0.00     0.000 HD
ENDBRANCH  14  15
ENDBRANCH  10  14
ENDBRANCH   8  10
ENDBRANCH   1   6
BRANCH   1  17
HETATM   17  C           1     -21.392  -3.851  -7.250  0.00  0.00     0.044 C 
BRANCH  17  18
HETATM   18  C           1     -21.475  -4.090  -8.752  0.00  0.00     0.030 C 
BRANCH  18  19
HETATM   19  C           1     -22.934  -4.091  -9.188  0.00  0.00     0.230 C 
BRANCH  19  20
HETATM   20  N           1     -23.818  -4.056  -7.977  0.00  0.00    -0.079 N 
HETATM   21  H           1     -23.717  -3.133  -7.498  0.00  0.00     0.274 HD
HETATM   22  H           1     -24.812  -4.191  -8.268  0.00  0.00     0.274 HD
HETATM   23  H           1     -23.540  -4.821  -7.321  0.00  0.00     0.274 HD
ENDBRANCH  19  20
ENDBRANCH  18  19
ENDBRANCH  17  18
ENDBRANCH   1  17
TORSDOF 10
ENDMDL
MODEL 7
REMARK VINA RESULT:      -5.0     10.416     11.730
REMARK  10 active torsions:
REMARK  status: ('A' for Active; 'I' for Inactive)
REMARK    1  A    between atoms: N_1  and  C_11 
REMARK    2  A    between atoms: Se_2  and  C_20 
REMARK    3  A    between atoms: N_4  and  C_17 
REMARK    4  A    between atoms: C_6  and  C_23 
REMARK    5  A    between atoms: C_11  and  C_14 
REMARK    6  A    between atoms: C_11  and  C_12 
REMARK    7  A    between atoms: C_12  and  C_21 
REMARK       I    between atoms: C_14  and  N_22 
REMARK    8  A    between atoms: C_17  and  C_21 
REMARK    9  A    between atoms: C_20  and  C_23 
REMARK   10  A    between atoms: N_22  and  C_23 
ROOT
HETATM    1  C           1     -25.192  -6.686 -19.573  0.00  0.00     0.274 C 
ENDROOT
BRANCH   1   2
HETATM    2  N           1     -24.344  -7.921 -19.643  0.00  0.00    -0.067 N 
HETATM    3  H           1     -24.831  -8.707 -19.157  0.00  0.00     0.275 HD
HETATM    4  H           1     -24.183  -8.177 -20.644  0.00  0.00     0.275 HD
HETATM    5  H           1     -23.426  -7.741 -19.177  0.00  0.00     0.275 HD
ENDBRANCH   1   2
BRANCH   1   6
HETATM    6  C           1     -25.659  -6.479 -18.153  0.00  0.00     0.249 C 
HETATM    7  O           1     -24.874  -6.576 -17.239  0.00  0.00    -0.271 OA
HETATM    8  N           1     -26.971  -6.179 -17.899  0.00  0.00    -0.345 N 
HETATM    9  H           1     -27.627  -6.097 -18.666  0.00  0.00     0.163 HD
BRANCH   8  10
HETATM   10  C           1     -27.418  -5.980 -16.534  0.00  0.00     0.185 C 
BRANCH  10  11
HETATM   11  C           1     -28.142  -7.215 -16.058  0.00  0.00     0.196 C 
HETATM   12  O           1     -28.971  -7.779 -16.804  0.00  0.00    -0.646 OA
HETATM   13  O           1     -27.913  -7.674 -14.918  0.00  0.00    -0.646 OA
ENDBRANCH  10  11
BRANCH  10  14
HETATM   14  C           1     -28.361  -4.785 -16.480  0.00  0.00     0.039 C 
BRANCH  14  15
HETATM   15 Se           1     -29.225  -4.560 -18.213  0.00  0.00     0.000 Se
HETATM   16  H           1     -28.720  -3.194 -18.417  0.00  0.00     0.000 HD
ENDBRANCH  14  15
ENDBRANCH  10  14
ENDBRANCH   8  10
ENDBRANCH   1   6
BRANCH   1  17
HETATM   17  C           1     -26.399  -6.846 -20.487  0.00  0.00     0.044 C 
BRANCH  17  18
HETATM   18  C           1     -26.386  -8.237 -21.107  0.00  0.00     0.030 C 
BRANCH  18  19
HETATM   19  C           1     -27.811  -8.766 -21.201  0.00  0.00     0.230 C 
BRANCH  19  20
HETATM   20  N           1     -28.541  -8.466 -19.926  0.00  0.00    -0.079 N 
HETATM   21  H           1     -28.269  -7.517 -19.583  0.00  0.00     0.274 HD
HETATM   22  H           1     -29.571  -8.490 -20.101  0.00  0.00     0.274 HD
HETATM   23  H           1     -28.293  -9.181 -19.206  0.00  0.00     0.274 HD
ENDBRANCH  19  20
ENDBRANCH  18  19
ENDBRANCH  17  18
ENDBRANCH   1  17
TORSDOF 10
ENDMDL
MODEL 8
REMARK VINA RESULT:      -5.0      1.947      2.192
REMARK  10 active torsions:
REMARK  status: ('A' for Active; 'I' for Inactive)
REMARK    1  A    between atoms: N_1  and  C_11 
REMARK    2  A    between atoms: Se_2  and  C_20 
REMARK    3  A    between atoms: N_4  and  C_17 
REMARK    4  A    between atoms: C_6  and  C_23 
REMARK    5  A    between atoms: C_11  and  C_14 
REMARK    6  A    between atoms: C_11  and  C_12 
REMARK    7  A    between atoms: C_12  and  C_21 
REMARK       I    between atoms: C_14  and  N_22 
REMARK    8  A    between atoms: C_17  and  C_21 
REMARK    9  A    between atoms: C_20  and  C_23 
REMARK   10  A    between atoms: N_22  and  C_23 
ROOT
HETATM    1  C           1     -34.246  -2.578 -11.772  0.00  0.00     0.274 C 
ENDROOT
BRANCH   1   2
HETATM    2  N           1     -33.691  -1.787 -10.624  0.00  0.00    -0.067 N 
HETATM    3  H           1     -34.381  -1.778  -9.840  0.00  0.00     0.275 HD
HETATM    4  H           1     -32.799  -2.224 -10.298  0.00  0.00     0.275 HD
HETATM    5  H           1     -33.506  -0.806 -10.934  0.00  0.00     0.275 HD
ENDBRANCH   1   2
BRANCH   1   6
HETATM    6  C           1     -35.175  -1.705 -12.579  0.00  0.00     0.249 C 
HETATM    7  O           1     -36.250  -1.389 -12.129  0.00  0.00    -0.271 OA
HETATM    8  N           1     -34.800  -1.272 -13.823  0.00  0.00    -0.345 N 
HETATM    9  H           1     -33.898  -1.536 -14.200  0.00  0.00     0.163 HD
BRANCH   8  10
HETATM   10  C           1     -35.693  -0.433 -14.598  0.00  0.00     0.185 C 
BRANCH  10  11
HETATM   11  C           1     -35.826  -0.995 -15.992  0.00  0.00     0.196 C 
HETATM   12  O           1     -36.943  -1.020 -16.552  0.00  0.00    -0.646 OA
HETATM   13  O           1     -34.818  -1.435 -16.587  0.00  0.00    -0.646 OA
ENDBRANCH  10  11
BRANCH  10  14
HETATM   14  C           1     -35.127   0.979 -14.671  0.00  0.00     0.039 C 
BRANCH  14  15
HETATM   15 Se           1     -36.146   2.023 -15.962  0.00  0.00     0.000 Se
HETATM   16  H           1     -36.736   2.914 -14.951  0.00  0.00     0.000 HD
ENDBRANCH  14  15
ENDBRANCH  10  14
ENDBRANCH   8  10
ENDBRANCH   1   6
BRANCH   1  17
HETATM   17  C           1     -35.013  -3.780 -11.236  0.00  0.00     0.044 C 
BRANCH  17  18
HETATM   18  C           1     -34.048  -4.729 -10.539  0.00  0.00     0.030 C 
BRANCH  18  19
HETATM   19  C           1     -34.349  -6.161 -10.961  0.00  0.00     0.230 C 
BRANCH  19  20
HETATM   20  N           1     -34.874  -6.169 -12.365  0.00  0.00    -0.079 N 
HETATM   21  H           1     -35.319  -7.094 -12.567  0.00  0.00     0.274 HD
HETATM   22  H           1     -35.584  -5.411 -12.476  0.00  0.00     0.274 HD
HETATM   23  H           1     -34.086  -6.009 -13.033  0.00  0.00     0.274 HD
ENDBRANCH  19  20
ENDBRANCH  18  19
ENDBRANCH  17  18
ENDBRANCH   1  17
TORSDOF 10
ENDMDL
MODEL 9
REMARK VINA RESULT:      -4.9     12.584     13.996
REMARK  10 active torsions:
REMARK  status: ('A' for Active; 'I' for Inactive)
REMARK    1  A    between atoms: N_1  and  C_11 
REMARK    2  A    between atoms: Se_2  and  C_20 
REMARK    3  A    between atoms: N_4  and  C_17 
REMARK    4  A    between atoms: C_6  and  C_23 
REMARK    5  A    between atoms: C_11  and  C_14 
REMARK    6  A    between atoms: C_11  and  C_12 
REMARK    7  A    between atoms: C_12  and  C_21 
REMARK       I    between atoms: C_14  and  N_22 
REMARK    8  A    between atoms: C_17  and  C_21 
REMARK    9  A    between atoms: C_20  and  C_23 
REMARK   10  A    between atoms: N_22  and  C_23 
ROOT
HETATM    1  C           1     -22.413  -5.077  -6.103  0.00  0.00     0.274 C 
ENDROOT
BRANCH   1   2
HETATM    2  N           1     -23.852  -5.453  -5.906  0.00  0.00    -0.067 N 
HETATM    3  H           1     -24.121  -6.183  -6.604  0.00  0.00     0.275 HD
HETATM    4  H           1     -23.985  -5.829  -4.940  0.00  0.00     0.275 HD
HETATM    5  H           1     -24.453  -4.608  -6.038  0.00  0.00     0.275 HD
ENDBRANCH   1   2
BRANCH   1   6
HETATM    6  C           1     -22.265  -4.322  -7.400  0.00  0.00     0.249 C 
HETATM    7  O           1     -21.298  -3.621  -7.584  0.00  0.00    -0.271 OA
HETATM    8  N           1     -23.226  -4.430  -8.370  0.00  0.00    -0.345 N 
HETATM    9  H           1     -24.035  -5.018  -8.216  0.00  0.00     0.163 HD
BRANCH   8  10
HETATM   10  C           1     -23.082  -3.704  -9.617  0.00  0.00     0.185 C 
BRANCH  10  11
HETATM   11  C           1     -24.449  -3.379 -10.168  0.00  0.00     0.196 C 
HETATM   12  O           1     -24.751  -3.724 -11.331  0.00  0.00    -0.646 OA
HETATM   13  O           1     -25.278  -2.765  -9.462  0.00  0.00    -0.646 OA
ENDBRANCH  10  11
BRANCH  10  14
HETATM   14  C           1     -22.320  -4.562 -10.618  0.00  0.00     0.039 C 
BRANCH  14  15
HETATM   15 Se           1     -20.692  -3.638 -11.160  0.00  0.00     0.000 Se
HETATM   16  H           1     -20.781  -4.065 -12.565  0.00  0.00     0.000 HD
ENDBRANCH  14  15
ENDBRANCH  10  14
ENDBRANCH   8  10
ENDBRANCH   1   6
BRANCH   1  17
HETATM   17  C           1     -21.561  -6.339  -6.148  0.00  0.00     0.044 C 
BRANCH  17  18
HETATM   18  C           1     -21.632  -7.049  -4.802  0.00  0.00     0.030 C 
BRANCH  18  19
HETATM   19  C           1     -21.261  -6.075  -3.692  0.00  0.00     0.230 C 
BRANCH  19  20
HETATM   20  N           1     -22.310  -6.113  -2.622  0.00  0.00    -0.079 N 
HETATM   21  H           1     -22.329  -5.197  -2.118  0.00  0.00     0.274 HD
HETATM   22  H           1     -23.244  -6.291  -3.055  0.00  0.00     0.274 HD
HETATM   23  H           1     -22.089  -6.878  -1.945  0.00  0.00     0.274 HD
ENDBRANCH  19  20
ENDBRANCH  18  19
ENDBRANCH  17  18
ENDBRANCH   1  17
TORSDOF 10
ENDMDL
