MODEL 1
REMARK VINA RESULT:      -5.8      0.000      0.000
REMARK  6 active torsions:
REMARK  status: ('A' for Active; 'I' for Inactive)
REMARK    1  A    between atoms: C_2  and  C_14 
REMARK    2  A    between atoms: N_5  and  C_7 
REMARK    3  A    between atoms: C_7  and  C_8 
REMARK       I    between atoms: C_8  and  N_9 
REMARK    4  A    between atoms: N_9  and  C_13 
REMARK    5  A    between atoms: C_12  and  C_13 
REMARK    6  A    between atoms: C_13  and  C_14 
ROOT
HETATM    1  O           1     -21.548  -3.148  -7.276  0.00  0.00    -0.271 OA
HETATM    2  H           1     -22.529  -5.763  -8.705  0.00  0.00     0.163 HD
HETATM    3  C           1     -21.744  -4.330  -7.435  0.00  0.00     0.248 C 
HETATM    4  N           1     -22.364  -4.773  -8.572  0.00  0.00    -0.344 N 
ENDROOT
BRANCH   4   5
HETATM    5  C           1     -22.788  -3.825  -9.584  0.00  0.00     0.195 C 
BRANCH   5   6
HETATM    6  C           1     -24.293  -3.832  -9.681  0.00  0.00     0.197 C 
HETATM    7  O           1     -24.933  -2.766  -9.547  0.00  0.00    -0.646 OA
HETATM    8  O           1     -24.902  -4.902  -9.895  0.00  0.00    -0.646 OA
ENDBRANCH   5   6
BRANCH   5   9
HETATM    9  C           1     -22.190  -4.218 -10.929  0.00  0.00     0.149 C 
BRANCH   9  10
HETATM   10  C           1     -20.703  -3.961 -10.913  0.00  0.00     0.175 C 
HETATM   11  O           1     -20.256  -2.855 -11.287  0.00  0.00    -0.648 OA
HETATM   12  O           1     -19.918  -4.854 -10.525  0.00  0.00    -0.648 OA
ENDBRANCH   9  10
ENDBRANCH   5   9
ENDBRANCH   4   5
BRANCH   3  13
HETATM   13  C           1     -21.303  -5.315  -6.382  0.00  0.00     0.270 C 
HETATM   14  C           1     -20.186  -4.704  -5.548  0.00  0.00     0.050 C 
BRANCH  13  15
HETATM   15  N           1     -20.805  -6.566  -7.045  0.00  0.00    -0.067 N 
HETATM   16  H           1     -20.823  -7.354  -6.360  0.00  0.00     0.275 HD
HETATM   17  H           1     -21.419  -6.796  -7.859  0.00  0.00     0.275 HD
HETATM   18  H           1     -19.825  -6.416  -7.377  0.00  0.00     0.275 HD
ENDBRANCH  13  15
ENDBRANCH   3  13
TORSDOF 6
ENDMDL
MODEL 2
REMARK VINA RESULT:      -5.3      1.309      3.227
REMARK  6 active torsions:
REMARK  status: ('A' for Active; 'I' for Inactive)
REMARK    1  A    between atoms: C_2  and  C_14 
REMARK    2  A    between atoms: N_5  and  C_7 
REMARK    3  A    between atoms: C_7  and  C_8 
REMARK       I    between atoms: C_8  and  N_9 
REMARK    4  A    between atoms: N_9  and  C_13 
REMARK    5  A    between atoms: C_12  and  C_13 
REMARK    6  A    between atoms: C_13  and  C_14 
ROOT
HETATM    1  O           1     -22.788  -4.652  -7.270  0.00  0.00    -0.271 OA
HETATM    2  H           1     -20.192  -4.183  -8.967  0.00  0.00     0.163 HD
HETATM    3  C           1     -21.614  -4.472  -7.492  0.00  0.00     0.248 C 
HETATM    4  N           1     -21.175  -4.334  -8.781  0.00  0.00    -0.344 N 
ENDROOT
BRANCH   4   5
HETATM    5  C           1     -22.118  -4.406  -9.880  0.00  0.00     0.195 C 
BRANCH   5   6
HETATM    6  C           1     -21.376  -4.293 -11.188  0.00  0.00     0.197 C 
HETATM    7  O           1     -20.128  -4.365 -11.207  0.00  0.00    -0.646 OA
HETATM    8  O           1     -22.007  -4.126 -12.254  0.00  0.00    -0.646 OA
ENDBRANCH   5   6
BRANCH   5   9
HETATM    9  C           1     -23.121  -3.266  -9.764  0.00  0.00     0.149 C 
BRANCH   9  10
HETATM   10  C           1     -24.488  -3.754 -10.179  0.00  0.00     0.175 C 
HETATM   11  O           1     -24.912  -4.855  -9.764  0.00  0.00    -0.648 OA
HETATM   12  O           1     -25.197  -3.058 -10.937  0.00  0.00    -0.648 OA
ENDBRANCH   9  10
ENDBRANCH   5   9
ENDBRANCH   4   5
BRANCH   3  13
HETATM   13  C           1     -20.634  -4.396  -6.349  0.00  0.00     0.270 C 
HETATM   14  C           1     -19.221  -4.609  -6.874  0.00  0.00     0.050 C 
BRANCH  13  15
HETATM   15  N           1     -20.957  -5.460  -5.341  0.00  0.00    -0.067 N 
HETATM   16  H           1     -20.431  -5.275  -4.458  0.00  0.00     0.275 HD
HETATM   17  H           1     -21.983  -5.451  -5.144  0.00  0.00     0.275 HD
HETATM   18  H           1     -20.682  -6.394  -5.721  0.00  0.00     0.275 HD
ENDBRANCH  13  15
ENDBRANCH   3  13
TORSDOF 6
ENDMDL
MODEL 3
REMARK VINA RESULT:      -5.2      2.187      4.921
REMARK  6 active torsions:
REMARK  status: ('A' for Active; 'I' for Inactive)
REMARK    1  A    between atoms: C_2  and  C_14 
REMARK    2  A    between atoms: N_5  and  C_7 
REMARK    3  A    between atoms: C_7  and  C_8 
REMARK       I    between atoms: C_8  and  N_9 
REMARK    4  A    between atoms: N_9  and  C_13 
REMARK    5  A    between atoms: C_12  and  C_13 
REMARK    6  A    between atoms: C_13  and  C_14 
ROOT
HETATM    1  O           1     -22.710  -2.937  -9.247  0.00  0.00    -0.271 OA
HETATM    2  H           1     -22.298  -5.784  -7.995  0.00  0.00     0.163 HD
HETATM    3  C           1     -22.918  -4.109  -9.040  0.00  0.00     0.248 C 
HETATM    4  N           1     -22.123  -4.802  -8.168  0.00  0.00    -0.344 N 
ENDROOT
BRANCH   4   5
HETATM    5  C           1     -21.029  -4.131  -7.495  0.00  0.00     0.195 C 
BRANCH   5   6
HETATM    6  C           1     -19.740  -4.409  -8.228  0.00  0.00     0.197 C 
HETATM    7  O           1     -18.650  -4.357  -7.618  0.00  0.00    -0.646 OA
HETATM    8  O           1     -19.761  -4.694  -9.445  0.00  0.00    -0.646 OA
ENDBRANCH   5   6
BRANCH   5   9
HETATM    9  C           1     -20.922  -4.644  -6.065  0.00  0.00     0.149 C 
BRANCH   9  10
HETATM   10  C           1     -21.640  -5.967  -5.950  0.00  0.00     0.175 C 
HETATM   11  O           1     -22.739  -6.032  -5.359  0.00  0.00    -0.648 OA
HETATM   12  O           1     -21.135  -6.997  -6.446  0.00  0.00    -0.648 OA
ENDBRANCH   9  10
ENDBRANCH   5   9
ENDBRANCH   4   5
BRANCH   3  13
HETATM   13  C           1     -24.057  -4.807  -9.741  0.00  0.00     0.270 C 
HETATM   14  C           1     -23.706  -5.006 -11.209  0.00  0.00     0.050 C 
BRANCH  13  15
HETATM   15  N           1     -25.299  -3.971  -9.633  0.00  0.00    -0.067 N 
HETATM   16  H           1     -25.402  -3.388 -10.493  0.00  0.00     0.275 HD
HETATM   17  H           1     -26.130  -4.596  -9.534  0.00  0.00     0.275 HD
HETATM   18  H           1     -25.227  -3.349  -8.796  0.00  0.00     0.275 HD
ENDBRANCH  13  15
ENDBRANCH   3  13
TORSDOF 6
ENDMDL
MODEL 4
REMARK VINA RESULT:      -4.9     17.309     18.939
REMARK  6 active torsions:
REMARK  status: ('A' for Active; 'I' for Inactive)
REMARK    1  A    between atoms: C_2  and  C_14 
REMARK    2  A    between atoms: N_5  and  C_7 
REMARK    3  A    between atoms: C_7  and  C_8 
REMARK       I    between atoms: C_8  and  N_9 
REMARK    4  A    between atoms: N_9  and  C_13 
REMARK    5  A    between atoms: C_12  and  C_13 
REMARK    6  A    between atoms: C_13  and  C_14 
ROOT
HETATM    1  O           1     -12.048   8.126 -21.730  0.00  0.00    -0.271 OA
HETATM    2  H           1     -11.771   6.845 -18.880  0.00  0.00     0.163 HD
HETATM    3  C           1     -11.916   8.086 -20.530  0.00  0.00     0.248 C 
HETATM    4  N           1     -11.881   6.879 -19.885  0.00  0.00    -0.344 N 
ENDROOT
BRANCH   4   5
HETATM    5  C           1     -12.003   5.649 -20.643  0.00  0.00     0.195 C 
BRANCH   5   6
HETATM    6  C           1     -13.300   4.966 -20.287  0.00  0.00     0.197 C 
HETATM    7  O           1     -14.223   5.617 -19.750  0.00  0.00    -0.646 OA
HETATM    8  O           1     -13.454   3.749 -20.529  0.00  0.00    -0.646 OA
ENDBRANCH   5   6
BRANCH   5   9
HETATM    9  C           1     -10.836   4.730 -20.309  0.00  0.00     0.149 C 
BRANCH   9  10
HETATM   10  C           1      -9.786   5.504 -19.551  0.00  0.00     0.175 C 
HETATM   11  O           1      -8.873   6.091 -20.171  0.00  0.00    -0.648 OA
HETATM   12  O           1      -9.829   5.560 -18.302  0.00  0.00    -0.648 OA
ENDBRANCH   9  10
ENDBRANCH   5   9
ENDBRANCH   4   5
BRANCH   3  13
HETATM   13  C           1     -11.789   9.366 -19.742  0.00  0.00     0.270 C 
HETATM   14  C           1     -10.511   9.331 -18.916  0.00  0.00     0.050 C 
BRANCH  13  15
HETATM   15  N           1     -12.971   9.511 -18.829  0.00  0.00    -0.067 N 
HETATM   16  H           1     -13.108   8.625 -18.294  0.00  0.00     0.275 HD
HETATM   17  H           1     -12.800  10.297 -18.162  0.00  0.00     0.275 HD
HETATM   18  H           1     -13.826   9.712 -19.396  0.00  0.00     0.275 HD
ENDBRANCH  13  15
ENDBRANCH   3  13
TORSDOF 6
ENDMDL
MODEL 5
REMARK VINA RESULT:      -4.8      4.355      6.524
REMARK  6 active torsions:
REMARK  status: ('A' for Active; 'I' for Inactive)
REMARK    1  A    between atoms: C_2  and  C_14 
REMARK    2  A    between atoms: N_5  and  C_7 
REMARK    3  A    between atoms: C_7  and  C_8 
REMARK       I    between atoms: C_8  and  N_9 
REMARK    4  A    between atoms: N_9  and  C_13 
REMARK    5  A    between atoms: C_12  and  C_13 
REMARK    6  A    between atoms: C_13  and  C_14 
ROOT
HETATM    1  O           1     -22.552  -5.643  -5.637  0.00  0.00    -0.271 OA
HETATM    2  H           1     -19.825  -6.876  -4.697  0.00  0.00     0.163 HD
HETATM    3  C           1     -21.357  -5.817  -5.599  0.00  0.00     0.248 C 
HETATM    4  N           1     -20.826  -6.730  -4.729  0.00  0.00    -0.344 N 
ENDROOT
BRANCH   4   5
HETATM    5  C           1     -21.698  -7.488  -3.852  0.00  0.00     0.195 C 
BRANCH   5   6
HETATM    6  C           1     -21.640  -6.907  -2.462  0.00  0.00     0.197 C 
HETATM    7  O           1     -22.308  -5.887  -2.182  0.00  0.00    -0.646 OA
HETATM    8  O           1     -20.927  -7.444  -1.588  0.00  0.00    -0.646 OA
ENDBRANCH   5   6
BRANCH   5   9
HETATM    9  C           1     -21.241  -8.940  -3.816  0.00  0.00     0.149 C 
BRANCH   9  10
HETATM   10  C           1     -19.933  -9.076  -4.555  0.00  0.00     0.175 C 
HETATM   11  O           1     -19.929  -9.349  -5.775  0.00  0.00    -0.648 OA
HETATM   12  O           1     -18.852  -8.915  -3.948  0.00  0.00    -0.648 OA
ENDBRANCH   9  10
ENDBRANCH   5   9
ENDBRANCH   4   5
BRANCH   3  13
HETATM   13  C           1     -20.451  -5.028  -6.512  0.00  0.00     0.270 C 
HETATM   14  C           1     -21.215  -3.847  -7.093  0.00  0.00     0.050 C 
BRANCH  13  15
HETATM   15  N           1     -19.973  -5.911  -7.627  0.00  0.00    -0.067 N 
HETATM   16  H           1     -20.602  -6.741  -7.708  0.00  0.00     0.275 HD
HETATM   17  H           1     -19.986  -5.375  -8.524  0.00  0.00     0.275 HD
HETATM   18  H           1     -18.999  -6.230  -7.424  0.00  0.00     0.275 HD
ENDBRANCH  13  15
ENDBRANCH   3  13
TORSDOF 6
ENDMDL
MODEL 6
REMARK VINA RESULT:      -4.7      5.262      7.287
REMARK  6 active torsions:
REMARK  status: ('A' for Active; 'I' for Inactive)
REMARK    1  A    between atoms: C_2  and  C_14 
REMARK    2  A    between atoms: N_5  and  C_7 
REMARK    3  A    between atoms: C_7  and  C_8 
REMARK       I    between atoms: C_8  and  N_9 
REMARK    4  A    between atoms: N_9  and  C_13 
REMARK    5  A    between atoms: C_12  and  C_13 
REMARK    6  A    between atoms: C_13  and  C_14 
ROOT
HETATM    1  O           1     -21.920  -9.448  -2.177  0.00  0.00    -0.271 OA
HETATM    2  H           1     -20.735  -6.759  -3.275  0.00  0.00     0.163 HD
HETATM    3  C           1     -21.580  -8.288  -2.167  0.00  0.00     0.248 C 
HETATM    4  N           1     -21.020  -7.730  -3.283  0.00  0.00    -0.344 N 
ENDROOT
BRANCH   4   5
HETATM    5  C           1     -20.832  -8.530  -4.478  0.00  0.00     0.195 C 
BRANCH   5   6
HETATM    6  C           1     -19.363  -8.823  -4.661  0.00  0.00     0.197 C 
HETATM    7  O           1     -18.641  -9.046  -3.664  0.00  0.00    -0.646 OA
HETATM    8  O           1     -18.868  -8.844  -5.808  0.00  0.00    -0.646 OA
ENDBRANCH   5   6
BRANCH   5   9
HETATM    9  C           1     -21.352  -7.765  -5.688  0.00  0.00     0.149 C 
BRANCH   9  10
HETATM   10  C           1     -21.766  -6.376  -5.265  0.00  0.00     0.175 C 
HETATM   11  O           1     -22.952  -6.149  -4.940  0.00  0.00    -0.648 OA
HETATM   12  O           1     -20.924  -5.453  -5.240  0.00  0.00    -0.648 OA
ENDBRANCH   9  10
ENDBRANCH   5   9
ENDBRANCH   4   5
BRANCH   3  13
HETATM   13  C           1     -21.776  -7.456  -0.924  0.00  0.00     0.270 C 
HETATM   14  C           1     -22.748  -8.161   0.013  0.00  0.00     0.050 C 
BRANCH  13  15
HETATM   15  N           1     -22.331  -6.114  -1.302  0.00  0.00    -0.067 N 
HETATM   16  H           1     -22.447  -6.065  -2.339  0.00  0.00     0.275 HD
HETATM   17  H           1     -23.259  -5.979  -0.841  0.00  0.00     0.275 HD
HETATM   18  H           1     -21.672  -5.366  -0.990  0.00  0.00     0.275 HD
ENDBRANCH  13  15
ENDBRANCH   3  13
TORSDOF 6
ENDMDL
MODEL 7
REMARK VINA RESULT:      -4.5      2.506      5.350
REMARK  6 active torsions:
REMARK  status: ('A' for Active; 'I' for Inactive)
REMARK    1  A    between atoms: C_2  and  C_14 
REMARK    2  A    between atoms: N_5  and  C_7 
REMARK    3  A    between atoms: C_7  and  C_8 
REMARK       I    between atoms: C_8  and  N_9 
REMARK    4  A    between atoms: N_9  and  C_13 
REMARK    5  A    between atoms: C_12  and  C_13 
REMARK    6  A    between atoms: C_13  and  C_14 
ROOT
HETATM    1  O           1     -23.472  -4.118  -8.085  0.00  0.00    -0.271 OA
HETATM    2  H           1     -20.592  -5.095  -8.853  0.00  0.00     0.163 HD
HETATM    3  C           1     -22.529  -4.370  -8.797  0.00  0.00     0.248 C 
HETATM    4  N           1     -21.381  -4.883  -8.256  0.00  0.00    -0.344 N 
ENDROOT
BRANCH   4   5
HETATM    5  C           1     -21.296  -5.121  -6.828  0.00  0.00     0.195 C 
BRANCH   5   6
HETATM    6  C           1     -19.943  -4.682  -6.326  0.00  0.00     0.197 C 
HETATM    7  O           1     -18.985  -4.573  -7.122  0.00  0.00    -0.646 OA
HETATM    8  O           1     -19.779  -4.426  -5.114  0.00  0.00    -0.646 OA
ENDBRANCH   5   6
BRANCH   5   9
HETATM    9  C           1     -21.484  -6.606  -6.549  0.00  0.00     0.149 C 
BRANCH   9  10
HETATM   10  C           1     -22.117  -6.786  -5.191  0.00  0.00     0.175 C 
HETATM   11  O           1     -23.188  -6.202  -4.918  0.00  0.00    -0.648 OA
HETATM   12  O           1     -21.571  -7.520  -4.339  0.00  0.00    -0.648 OA
ENDBRANCH   9  10
ENDBRANCH   5   9
ENDBRANCH   4   5
BRANCH   3  13
HETATM   13  C           1     -22.619  -4.123 -10.282  0.00  0.00     0.270 C 
HETATM   14  C           1     -23.708  -5.002 -10.880  0.00  0.00     0.050 C 
BRANCH  13  15
HETATM   15  N           1     -21.303  -4.452 -10.925  0.00  0.00    -0.067 N 
HETATM   16  H           1     -21.467  -4.807 -11.893  0.00  0.00     0.275 HD
HETATM   17  H           1     -20.712  -3.591 -10.965  0.00  0.00     0.275 HD
HETATM   18  H           1     -20.816  -5.186 -10.362  0.00  0.00     0.275 HD
ENDBRANCH  13  15
ENDBRANCH   3  13
TORSDOF 6
ENDMDL
MODEL 8
REMARK VINA RESULT:      -4.3      6.995      9.461
REMARK  6 active torsions:
REMARK  status: ('A' for Active; 'I' for Inactive)
REMARK    1  A    between atoms: C_2  and  C_14 
REMARK    2  A    between atoms: N_5  and  C_7 
REMARK    3  A    between atoms: C_7  and  C_8 
REMARK       I    between atoms: C_8  and  N_9 
REMARK    4  A    between atoms: N_9  and  C_13 
REMARK    5  A    between atoms: C_12  and  C_13 
REMARK    6  A    between atoms: C_13  and  C_14 
ROOT
HETATM    1  O           1     -19.739  -8.442  -3.247  0.00  0.00    -0.271 OA
HETATM    2  H           1     -22.718  -8.706  -2.300  0.00  0.00     0.163 HD
HETATM    3  C           1     -20.941  -8.332  -3.293  0.00  0.00     0.248 C 
HETATM    4  N           1     -21.711  -8.798  -2.261  0.00  0.00    -0.344 N 
ENDROOT
BRANCH   4   5
HETATM    5  C           1     -21.083  -9.425  -1.115  0.00  0.00     0.195 C 
BRANCH   5   6
HETATM    6  C           1     -21.750 -10.750  -0.838  0.00  0.00     0.197 C 
HETATM    7  O           1     -21.865 -11.158   0.338  0.00  0.00    -0.646 OA
HETATM    8  O           1     -22.188 -11.439  -1.784  0.00  0.00    -0.646 OA
ENDBRANCH   5   6
BRANCH   5   9
HETATM    9  C           1     -21.228  -8.520   0.101  0.00  0.00     0.149 C 
BRANCH   9  10
HETATM   10  C           1     -22.503  -7.720  -0.015  0.00  0.00     0.175 C 
HETATM   11  O           1     -22.514  -6.652  -0.664  0.00  0.00    -0.648 OA
HETATM   12  O           1     -23.548  -8.127   0.537  0.00  0.00    -0.648 OA
ENDBRANCH   9  10
ENDBRANCH   5   9
ENDBRANCH   4   5
BRANCH   3  13
HETATM   13  C           1     -21.594  -7.679  -4.486  0.00  0.00     0.270 C 
HETATM   14  C           1     -20.541  -7.385  -5.545  0.00  0.00     0.050 C 
BRANCH  13  15
HETATM   15  N           1     -22.246  -6.397  -4.060  0.00  0.00    -0.067 N 
HETATM   16  H           1     -21.802  -5.596  -4.563  0.00  0.00     0.275 HD
HETATM   17  H           1     -23.265  -6.432  -4.291  0.00  0.00     0.275 HD
HETATM   18  H           1     -22.125  -6.271  -3.030  0.00  0.00     0.275 HD
ENDBRANCH  13  15
ENDBRANCH   3  13
TORSDOF 6
ENDMDL
MODEL 9
REMARK VINA RESULT:      -4.3      4.820      7.004
REMARK  6 active torsions:
REMARK  status: ('A' for Active; 'I' for Inactive)
REMARK    1  A    between atoms: C_2  and  C_14 
REMARK    2  A    between atoms: N_5  and  C_7 
REMARK    3  A    between atoms: C_7  and  C_8 
REMARK       I    between atoms: C_8  and  N_9 
REMARK    4  A    between atoms: N_9  and  C_13 
REMARK    5  A    between atoms: C_12  and  C_13 
REMARK    6  A    between atoms: C_13  and  C_14 
ROOT
HETATM    1  O           1     -21.135  -9.887  -4.908  0.00  0.00    -0.271 OA
HETATM    2  H           1     -19.277  -7.408  -4.416  0.00  0.00     0.163 HD
HETATM    3  C           1     -20.105  -9.270  -4.775  0.00  0.00     0.248 C 
HETATM    4  N           1     -20.140  -7.925  -4.528  0.00  0.00    -0.344 N 
ENDROOT
BRANCH   4   5
HETATM    5  C           1     -21.414  -7.239  -4.429  0.00  0.00     0.195 C 
BRANCH   5   6
HETATM    6  C           1     -21.669  -6.465  -5.698  0.00  0.00     0.197 C 
HETATM    7  O           1     -22.527  -5.556  -5.715  0.00  0.00    -0.646 OA
HETATM    8  O           1     -21.022  -6.732  -6.734  0.00  0.00    -0.646 OA
ENDBRANCH   5   6
BRANCH   5   9
HETATM    9  C           1     -21.382  -6.279  -3.246  0.00  0.00     0.149 C 
BRANCH   9  10
HETATM   10  C           1     -21.831  -7.002  -2.000  0.00  0.00     0.175 C 
HETATM   11  O           1     -22.581  -6.428  -1.180  0.00  0.00    -0.648 OA
HETATM   12  O           1     -21.454  -8.175  -1.786  0.00  0.00    -0.648 OA
ENDBRANCH   9  10
ENDBRANCH   5   9
ENDBRANCH   4   5
BRANCH   3  13
HETATM   13  C           1     -18.780  -9.984  -4.878  0.00  0.00     0.270 C 
HETATM   14  C           1     -17.863  -9.523  -3.753  0.00  0.00     0.050 C 
BRANCH  13  15
HETATM   15  N           1     -18.144  -9.670  -6.200  0.00  0.00    -0.067 N 
HETATM   16  H           1     -18.833  -9.839  -6.967  0.00  0.00     0.275 HD
HETATM   17  H           1     -17.846  -8.669  -6.214  0.00  0.00     0.275 HD
HETATM   18  H           1     -17.310 -10.286  -6.340  0.00  0.00     0.275 HD
ENDBRANCH  13  15
ENDBRANCH   3  13
TORSDOF 6
ENDMDL
