MODEL 1
REMARK VINA RESULT:      -6.4      0.000      0.000
REMARK  10 active torsions:
REMARK  status: ('A' for Active; 'I' for Inactive)
REMARK    1  A    between atoms: N_8  and  C_15 
REMARK    2  A    between atoms: O_11  and  P_12 
REMARK    3  A    between atoms: P_12  and  O_13 
REMARK    4  A    between atoms: O_13  and  C_14 
REMARK    5  A    between atoms: C_14  and  C_15 
REMARK    6  A    between atoms: C_15  and  C_16 
REMARK       I    between atoms: C_16  and  N_17 
REMARK    7  A    between atoms: N_17  and  C_21 
REMARK    8  A    between atoms: C_20  and  C_21 
REMARK    9  A    between atoms: C_21  and  C_23 
REMARK   10  A    between atoms: O_22  and  C_23 
ROOT
HETATM    1  C           1     -21.062  -5.562  -7.106  0.00  0.00     0.298 C 
ENDROOT
BRANCH   1   2
HETATM    2  N           1     -19.796  -6.051  -7.744  0.00  0.00    -0.064 N 
HETATM    3  H           1     -19.036  -6.086  -7.028  0.00  0.00     0.275 HD
HETATM    4  H           1     -19.520  -5.399  -8.514  0.00  0.00     0.275 HD
HETATM    5  H           1     -19.950  -7.007  -8.137  0.00  0.00     0.275 HD
ENDBRANCH   1   2
BRANCH   1   6
HETATM    6  C           1     -20.755  -5.032  -5.712  0.00  0.00     0.224 C 
BRANCH   6   7
HETATM    7  O           1     -20.525  -6.107  -4.842  0.00  0.00    -0.287 OA
BRANCH   7   8
HETATM    8  P           1     -21.795  -6.604  -3.978  0.00  0.00     0.406 P 
HETATM    9  O           1     -21.827  -5.880  -2.689  0.00  0.00    -0.624 OA
HETATM   10  O           1     -23.039  -6.328  -4.731  0.00  0.00    -0.624 OA
BRANCH   8  11
HETATM   11  O           1     -21.673  -8.190  -3.703  0.00  0.00    -0.300 OA
HETATM   12  H           1     -22.532  -8.535  -3.879  0.00  0.00     0.223 HD
ENDBRANCH   8  11
ENDBRANCH   7   8
ENDBRANCH   6   7
ENDBRANCH   1   6
BRANCH   1  13
HETATM   13  C           1     -21.655  -4.457  -7.946  0.00  0.00     0.251 C 
HETATM   14  O           1     -21.708  -3.331  -7.512  0.00  0.00    -0.271 OA
HETATM   15  N           1     -22.130  -4.730  -9.200  0.00  0.00    -0.342 N 
HETATM   16  H           1     -22.085  -5.674  -9.564  0.00  0.00     0.163 HD
BRANCH  15  17
HETATM   17  C           1     -22.698  -3.669 -10.008  0.00  0.00     0.214 C 
BRANCH  17  18
HETATM   18  C           1     -24.155  -3.965 -10.272  0.00  0.00     0.199 C 
HETATM   19  O           1     -24.880  -3.101 -10.813  0.00  0.00    -0.646 OA
HETATM   20  O           1     -24.637  -5.072  -9.950  0.00  0.00    -0.646 OA
ENDBRANCH  17  18
BRANCH  17  21
HETATM   21  C           1     -21.949  -3.581 -11.332  0.00  0.00     0.147 C 
HETATM   22  C           1     -20.504  -4.016 -11.126  0.00  0.00     0.042 C 
BRANCH  21  23
HETATM   23  O           1     -22.562  -4.423 -12.270  0.00  0.00    -0.393 OA
HETATM   24  H           1     -23.065  -5.055 -11.785  0.00  0.00     0.210 HD
ENDBRANCH  21  23
ENDBRANCH  17  21
ENDBRANCH  15  17
ENDBRANCH   1  13
TORSDOF 10
ENDMDL
MODEL 2
REMARK VINA RESULT:      -6.4     10.484     12.024
REMARK  10 active torsions:
REMARK  status: ('A' for Active; 'I' for Inactive)
REMARK    1  A    between atoms: N_8  and  C_15 
REMARK    2  A    between atoms: O_11  and  P_12 
REMARK    3  A    between atoms: P_12  and  O_13 
REMARK    4  A    between atoms: O_13  and  C_14 
REMARK    5  A    between atoms: C_14  and  C_15 
REMARK    6  A    between atoms: C_15  and  C_16 
REMARK       I    between atoms: C_16  and  N_17 
REMARK    7  A    between atoms: N_17  and  C_21 
REMARK    8  A    between atoms: C_20  and  C_21 
REMARK    9  A    between atoms: C_21  and  C_23 
REMARK   10  A    between atoms: O_22  and  C_23 
ROOT
HETATM    1  C           1     -25.707  -7.099 -19.956  0.00  0.00     0.298 C 
ENDROOT
BRANCH   1   2
HETATM    2  N           1     -25.053  -6.398 -21.109  0.00  0.00    -0.064 N 
HETATM    3  H           1     -25.742  -5.755 -21.562  0.00  0.00     0.275 HD
HETATM    4  H           1     -24.725  -7.105 -21.806  0.00  0.00     0.275 HD
HETATM    5  H           1     -24.236  -5.845 -20.764  0.00  0.00     0.275 HD
ENDBRANCH   1   2
BRANCH   1   6
HETATM    6  C           1     -24.799  -7.022 -18.736  0.00  0.00     0.224 C 
BRANCH   6   7
HETATM    7  O           1     -25.443  -6.302 -17.718  0.00  0.00    -0.287 OA
BRANCH   7   8
HETATM    8  P           1     -25.266  -6.881 -16.222  0.00  0.00     0.406 P 
HETATM    9  O           1     -24.233  -7.940 -16.221  0.00  0.00    -0.624 OA
HETATM   10  O           1     -24.852  -5.786 -15.316  0.00  0.00    -0.624 OA
BRANCH   8  11
HETATM   11  O           1     -26.670  -7.497 -15.713  0.00  0.00    -0.300 OA
HETATM   12  H           1     -27.124  -6.774 -15.315  0.00  0.00     0.223 HD
ENDBRANCH   8  11
ENDBRANCH   7   8
ENDBRANCH   6   7
ENDBRANCH   1   6
BRANCH   1  13
HETATM   13  C           1     -27.026  -6.435 -19.646  0.00  0.00     0.251 C 
HETATM   14  O           1     -27.438  -5.549 -20.358  0.00  0.00    -0.271 OA
HETATM   15  N           1     -27.756  -6.835 -18.561  0.00  0.00    -0.342 N 
HETATM   16  H           1     -27.411  -7.577 -17.965  0.00  0.00     0.163 HD
BRANCH  15  17
HETATM   17  C           1     -29.024  -6.198 -18.263  0.00  0.00     0.214 C 
BRANCH  17  18
HETATM   18  C           1     -28.798  -5.054 -17.304  0.00  0.00     0.199 C 
HETATM   19  O           1     -28.601  -5.285 -16.091  0.00  0.00    -0.646 OA
HETATM   20  O           1     -28.809  -3.877 -17.722  0.00  0.00    -0.646 OA
ENDBRANCH  17  18
BRANCH  17  21
HETATM   21  C           1     -29.966  -7.214 -17.630  0.00  0.00     0.147 C 
HETATM   22  C           1     -30.864  -7.812 -18.705  0.00  0.00     0.042 C 
BRANCH  21  23
HETATM   23  O           1     -29.217  -8.232 -17.026  0.00  0.00    -0.393 OA
HETATM   24  H           1     -29.332  -8.144 -16.096  0.00  0.00     0.210 HD
ENDBRANCH  21  23
ENDBRANCH  17  21
ENDBRANCH  15  17
ENDBRANCH   1  13
TORSDOF 10
ENDMDL
MODEL 3
REMARK VINA RESULT:      -6.1     10.059     12.440
REMARK  10 active torsions:
REMARK  status: ('A' for Active; 'I' for Inactive)
REMARK    1  A    between atoms: N_8  and  C_15 
REMARK    2  A    between atoms: O_11  and  P_12 
REMARK    3  A    between atoms: P_12  and  O_13 
REMARK    4  A    between atoms: O_13  and  C_14 
REMARK    5  A    between atoms: C_14  and  C_15 
REMARK    6  A    between atoms: C_15  and  C_16 
REMARK       I    between atoms: C_16  and  N_17 
REMARK    7  A    between atoms: N_17  and  C_21 
REMARK    8  A    between atoms: C_20  and  C_21 
REMARK    9  A    between atoms: C_21  and  C_23 
REMARK   10  A    between atoms: O_22  and  C_23 
ROOT
HETATM    1  C           1     -25.442  -6.388 -16.341  0.00  0.00     0.298 C 
ENDROOT
BRANCH   1   2
HETATM    2  N           1     -24.673  -6.965 -15.190  0.00  0.00    -0.064 N 
HETATM    3  H           1     -25.340  -7.341 -14.479  0.00  0.00     0.275 HD
HETATM    4  H           1     -24.085  -6.218 -14.756  0.00  0.00     0.275 HD
HETATM    5  H           1     -24.058  -7.737 -15.534  0.00  0.00     0.275 HD
ENDBRANCH   1   2
BRANCH   1   6
HETATM    6  C           1     -24.937  -6.995 -17.643  0.00  0.00     0.224 C 
BRANCH   6   7
HETATM    7  O           1     -25.567  -6.367 -18.727  0.00  0.00    -0.287 OA
BRANCH   7   8
HETATM    8  P           1     -25.319  -7.037 -20.175  0.00  0.00     0.406 P 
HETATM    9  O           1     -25.221  -5.975 -21.200  0.00  0.00    -0.624 OA
HETATM   10  O           1     -24.060  -7.816 -20.147  0.00  0.00    -0.624 OA
BRANCH   8  11
HETATM   11  O           1     -26.550  -8.019 -20.533  0.00  0.00    -0.300 OA
HETATM   12  H           1     -26.149  -8.798 -20.878  0.00  0.00     0.223 HD
ENDBRANCH   8  11
ENDBRANCH   7   8
ENDBRANCH   6   7
ENDBRANCH   1   6
BRANCH   1  13
HETATM   13  C           1     -26.909  -6.702 -16.174  0.00  0.00     0.251 C 
HETATM   14  O           1     -27.264  -7.501 -15.340  0.00  0.00    -0.271 OA
HETATM   15  N           1     -27.837  -6.081 -16.964  0.00  0.00    -0.342 N 
HETATM   16  H           1     -27.539  -5.411 -17.662  0.00  0.00     0.163 HD
BRANCH  15  17
HETATM   17  C           1     -29.245  -6.381 -16.803  0.00  0.00     0.214 C 
BRANCH  17  18
HETATM   18  C           1     -29.746  -7.114 -18.024  0.00  0.00     0.199 C 
HETATM   19  O           1     -30.937  -7.488 -18.084  0.00  0.00    -0.646 OA
HETATM   20  O           1     -28.969  -7.348 -18.975  0.00  0.00    -0.646 OA
ENDBRANCH  17  18
BRANCH  17  21
HETATM   21  C           1     -30.026  -5.083 -16.634  0.00  0.00     0.147 C 
HETATM   22  C           1     -29.848  -4.220 -17.876  0.00  0.00     0.042 C 
BRANCH  21  23
HETATM   23  O           1     -31.385  -5.376 -16.458  0.00  0.00    -0.393 OA
HETATM   24  H           1     -31.433  -6.125 -15.889  0.00  0.00     0.210 HD
ENDBRANCH  21  23
ENDBRANCH  17  21
ENDBRANCH  15  17
ENDBRANCH   1  13
TORSDOF 10
ENDMDL
MODEL 4
REMARK VINA RESULT:      -5.9      1.507      1.994
REMARK  10 active torsions:
REMARK  status: ('A' for Active; 'I' for Inactive)
REMARK    1  A    between atoms: N_8  and  C_15 
REMARK    2  A    between atoms: O_11  and  P_12 
REMARK    3  A    between atoms: P_12  and  O_13 
REMARK    4  A    between atoms: O_13  and  C_14 
REMARK    5  A    between atoms: C_14  and  C_15 
REMARK    6  A    between atoms: C_15  and  C_16 
REMARK       I    between atoms: C_16  and  N_17 
REMARK    7  A    between atoms: N_17  and  C_21 
REMARK    8  A    between atoms: C_20  and  C_21 
REMARK    9  A    between atoms: C_21  and  C_23 
REMARK   10  A    between atoms: O_22  and  C_23 
ROOT
HETATM    1  C           1     -21.444  -5.151  -6.454  0.00  0.00     0.298 C 
ENDROOT
BRANCH   1   2
HETATM    2  N           1     -22.683  -5.578  -5.726  0.00  0.00    -0.064 N 
HETATM    3  H           1     -23.261  -4.738  -5.498  0.00  0.00     0.275 HD
HETATM    4  H           1     -22.415  -6.067  -4.841  0.00  0.00     0.275 HD
HETATM    5  H           1     -23.235  -6.228  -6.329  0.00  0.00     0.275 HD
ENDBRANCH   1   2
BRANCH   1   6
HETATM    6  C           1     -20.786  -6.366  -7.093  0.00  0.00     0.224 C 
BRANCH   6   7
HETATM    7  O           1     -19.769  -6.843  -6.254  0.00  0.00    -0.287 OA
BRANCH   7   8
HETATM    8  P           1     -20.193  -8.005  -5.216  0.00  0.00     0.406 P 
HETATM    9  O           1     -21.194  -8.891  -5.851  0.00  0.00    -0.624 OA
HETATM   10  O           1     -18.997  -8.795  -4.847  0.00  0.00    -0.624 OA
BRANCH   8  11
HETATM   11  O           1     -20.827  -7.338  -3.890  0.00  0.00    -0.300 OA
HETATM   12  H           1     -21.739  -7.214  -4.091  0.00  0.00     0.223 HD
ENDBRANCH   8  11
ENDBRANCH   7   8
ENDBRANCH   6   7
ENDBRANCH   1   6
BRANCH   1  13
HETATM   13  C           1     -21.809  -4.153  -7.525  0.00  0.00     0.251 C 
HETATM   14  O           1     -21.709  -2.969  -7.307  0.00  0.00    -0.271 OA
HETATM   15  N           1     -22.251  -4.589  -8.745  0.00  0.00    -0.342 N 
HETATM   16  H           1     -22.334  -5.581  -8.927  0.00  0.00     0.163 HD
BRANCH  15  17
HETATM   17  C           1     -22.601  -3.631  -9.775  0.00  0.00     0.214 C 
BRANCH  17  18
HETATM   18  C           1     -24.033  -3.851 -10.199  0.00  0.00     0.199 C 
HETATM   19  O           1     -24.659  -2.940 -10.785  0.00  0.00    -0.646 OA
HETATM   20  O           1     -24.594  -4.942  -9.965  0.00  0.00    -0.646 OA
ENDBRANCH  17  18
BRANCH  17  21
HETATM   21  C           1     -21.681  -3.817 -10.975  0.00  0.00     0.147 C 
HETATM   22  C           1     -20.464  -4.633 -10.559  0.00  0.00     0.042 C 
BRANCH  21  23
HETATM   23  O           1     -22.372  -4.491 -11.991  0.00  0.00    -0.393 OA
HETATM   24  H           1     -22.767  -5.250 -11.598  0.00  0.00     0.210 HD
ENDBRANCH  21  23
ENDBRANCH  17  21
ENDBRANCH  15  17
ENDBRANCH   1  13
TORSDOF 10
ENDMDL
MODEL 5
REMARK VINA RESULT:      -5.7      2.525      6.483
REMARK  10 active torsions:
REMARK  status: ('A' for Active; 'I' for Inactive)
REMARK    1  A    between atoms: N_8  and  C_15 
REMARK    2  A    between atoms: O_11  and  P_12 
REMARK    3  A    between atoms: P_12  and  O_13 
REMARK    4  A    between atoms: O_13  and  C_14 
REMARK    5  A    between atoms: C_14  and  C_15 
REMARK    6  A    between atoms: C_15  and  C_16 
REMARK       I    between atoms: C_16  and  N_17 
REMARK    7  A    between atoms: N_17  and  C_21 
REMARK    8  A    between atoms: C_20  and  C_21 
REMARK    9  A    between atoms: C_21  and  C_23 
REMARK   10  A    between atoms: O_22  and  C_23 
ROOT
HETATM    1  C           1     -20.859  -4.293  -7.765  0.00  0.00     0.298 C 
ENDROOT
BRANCH   1   2
HETATM    2  N           1     -20.023  -4.852  -8.877  0.00  0.00    -0.064 N 
HETATM    3  H           1     -20.066  -5.896  -8.853  0.00  0.00     0.275 HD
HETATM    4  H           1     -19.032  -4.541  -8.758  0.00  0.00     0.275 HD
HETATM    5  H           1     -20.388  -4.509  -9.794  0.00  0.00     0.275 HD
ENDBRANCH   1   2
BRANCH   1   6
HETATM    6  C           1     -22.333  -4.499  -8.085  0.00  0.00     0.224 C 
BRANCH   6   7
HETATM    7  O           1     -22.795  -3.435  -8.872  0.00  0.00    -0.287 OA
BRANCH   7   8
HETATM    8  P           1     -23.381  -3.830 -10.324  0.00  0.00     0.406 P 
HETATM    9  O           1     -22.386  -3.492 -11.366  0.00  0.00    -0.624 OA
HETATM   10  O           1     -23.663  -5.283 -10.361  0.00  0.00    -0.624 OA
BRANCH   8  11
HETATM   11  O           1     -24.746  -3.011 -10.595  0.00  0.00    -0.300 OA
HETATM   12  H           1     -25.435  -3.644 -10.491  0.00  0.00     0.223 HD
ENDBRANCH   8  11
ENDBRANCH   7   8
ENDBRANCH   6   7
ENDBRANCH   1   6
BRANCH   1  13
HETATM   13  C           1     -20.518  -4.999  -6.476  0.00  0.00     0.251 C 
HETATM   14  O           1     -19.801  -4.463  -5.664  0.00  0.00    -0.271 OA
HETATM   15  N           1     -21.023  -6.246  -6.224  0.00  0.00    -0.342 N 
HETATM   16  H           1     -21.624  -6.695  -6.904  0.00  0.00     0.163 HD
BRANCH  15  17
HETATM   17  C           1     -20.697  -6.925  -4.985  0.00  0.00     0.214 C 
BRANCH  17  18
HETATM   18  C           1     -20.324  -8.358  -5.281  0.00  0.00     0.199 C 
HETATM   19  O           1     -19.186  -8.628  -5.722  0.00  0.00    -0.646 OA
HETATM   20  O           1     -21.152  -9.272  -5.086  0.00  0.00    -0.646 OA
ENDBRANCH  17  18
BRANCH  17  21
HETATM   21  C           1     -21.905  -6.896  -4.057  0.00  0.00     0.147 C 
HETATM   22  C           1     -21.536  -6.177  -2.766  0.00  0.00     0.042 C 
BRANCH  21  23
HETATM   23  O           1     -22.959  -6.217  -4.685  0.00  0.00    -0.393 OA
HETATM   24  H           1     -23.677  -6.823  -4.749  0.00  0.00     0.210 HD
ENDBRANCH  21  23
ENDBRANCH  17  21
ENDBRANCH  15  17
ENDBRANCH   1  13
TORSDOF 10
ENDMDL
MODEL 6
REMARK VINA RESULT:      -5.6      1.607      2.379
REMARK  10 active torsions:
REMARK  status: ('A' for Active; 'I' for Inactive)
REMARK    1  A    between atoms: N_8  and  C_15 
REMARK    2  A    between atoms: O_11  and  P_12 
REMARK    3  A    between atoms: P_12  and  O_13 
REMARK    4  A    between atoms: O_13  and  C_14 
REMARK    5  A    between atoms: C_14  and  C_15 
REMARK    6  A    between atoms: C_15  and  C_16 
REMARK       I    between atoms: C_16  and  N_17 
REMARK    7  A    between atoms: N_17  and  C_21 
REMARK    8  A    between atoms: C_20  and  C_21 
REMARK    9  A    between atoms: C_21  and  C_23 
REMARK   10  A    between atoms: O_22  and  C_23 
ROOT
HETATM    1  C           1     -20.351  -3.945  -7.433  0.00  0.00     0.298 C 
ENDROOT
BRANCH   1   2
HETATM    2  N           1     -21.538  -3.281  -6.804  0.00  0.00    -0.064 N 
HETATM    3  H           1     -22.066  -2.749  -7.533  0.00  0.00     0.275 HD
HETATM    4  H           1     -21.215  -2.624  -6.058  0.00  0.00     0.275 HD
HETATM    5  H           1     -22.161  -4.006  -6.383  0.00  0.00     0.275 HD
ENDBRANCH   1   2
BRANCH   1   6
HETATM    6  C           1     -19.929  -5.137  -6.585  0.00  0.00     0.224 C 
BRANCH   6   7
HETATM    7  O           1     -20.356  -4.947  -5.263  0.00  0.00    -0.287 OA
BRANCH   7   8
HETATM    8  P           1     -21.328  -6.087  -4.662  0.00  0.00     0.406 P 
HETATM    9  O           1     -21.493  -5.877  -3.207  0.00  0.00    -0.624 OA
HETATM   10  O           1     -22.648  -6.009  -5.327  0.00  0.00    -0.624 OA
BRANCH   8  11
HETATM   11  O           1     -20.678  -7.542  -4.926  0.00  0.00    -0.300 OA
HETATM   12  H           1     -21.375  -8.154  -4.760  0.00  0.00     0.223 HD
ENDBRANCH   8  11
ENDBRANCH   7   8
ENDBRANCH   6   7
ENDBRANCH   1   6
BRANCH   1  13
HETATM   13  C           1     -20.713  -4.416  -8.820  0.00  0.00     0.251 C 
HETATM   14  O           1     -19.913  -5.044  -9.473  0.00  0.00    -0.271 OA
HETATM   15  N           1     -21.948  -4.134  -9.338  0.00  0.00    -0.342 N 
HETATM   16  H           1     -22.618  -3.609  -8.791  0.00  0.00     0.163 HD
BRANCH  15  17
HETATM   17  C           1     -22.297  -4.588 -10.670  0.00  0.00     0.214 C 
BRANCH  17  18
HETATM   18  C           1     -21.950  -3.513 -11.673  0.00  0.00     0.199 C 
HETATM   19  O           1     -21.592  -3.830 -12.829  0.00  0.00    -0.646 OA
HETATM   20  O           1     -22.018  -2.309 -11.348  0.00  0.00    -0.646 OA
ENDBRANCH  17  18
BRANCH  17  21
HETATM   21  C           1     -23.791  -4.878 -10.733  0.00  0.00     0.147 C 
HETATM   22  C           1     -24.500  -4.132  -9.610  0.00  0.00     0.042 C 
BRANCH  21  23
HETATM   23  O           1     -24.296  -4.453 -11.969  0.00  0.00    -0.393 OA
HETATM   24  H           1     -24.197  -3.517 -12.000  0.00  0.00     0.210 HD
ENDBRANCH  21  23
ENDBRANCH  17  21
ENDBRANCH  15  17
ENDBRANCH   1  13
TORSDOF 10
ENDMDL
MODEL 7
REMARK VINA RESULT:      -5.5      3.151      4.853
REMARK  10 active torsions:
REMARK  status: ('A' for Active; 'I' for Inactive)
REMARK    1  A    between atoms: N_8  and  C_15 
REMARK    2  A    between atoms: O_11  and  P_12 
REMARK    3  A    between atoms: P_12  and  O_13 
REMARK    4  A    between atoms: O_13  and  C_14 
REMARK    5  A    between atoms: C_14  and  C_15 
REMARK    6  A    between atoms: C_15  and  C_16 
REMARK       I    between atoms: C_16  and  N_17 
REMARK    7  A    between atoms: N_17  and  C_21 
REMARK    8  A    between atoms: C_20  and  C_21 
REMARK    9  A    between atoms: C_21  and  C_23 
REMARK   10  A    between atoms: O_22  and  C_23 
ROOT
HETATM    1  C           1     -21.351  -6.476  -3.038  0.00  0.00     0.298 C 
ENDROOT
BRANCH   1   2
HETATM    2  N           1     -22.543  -5.805  -2.425  0.00  0.00    -0.064 N 
HETATM    3  H           1     -22.892  -5.059  -3.068  0.00  0.00     0.275 HD
HETATM    4  H           1     -22.270  -5.378  -1.510  0.00  0.00     0.275 HD
HETATM    5  H           1     -23.298  -6.511  -2.267  0.00  0.00     0.275 HD
ENDBRANCH   1   2
BRANCH   1   6
HETATM    6  C           1     -21.220  -7.887  -2.481  0.00  0.00     0.224 C 
BRANCH   6   7
HETATM    7  O           1     -20.862  -7.824  -1.127  0.00  0.00    -0.287 OA
BRANCH   7   8
HETATM    8  P           1     -21.939  -8.419  -0.081  0.00  0.00     0.406 P 
HETATM    9  O           1     -22.401  -9.745  -0.549  0.00  0.00    -0.624 OA
HETATM   10  O           1     -21.308  -8.556   1.251  0.00  0.00    -0.624 OA
BRANCH   8  11
HETATM   11  O           1     -23.200  -7.415   0.023  0.00  0.00    -0.300 OA
HETATM   12  H           1     -22.913  -6.720   0.589  0.00  0.00     0.223 HD
ENDBRANCH   8  11
ENDBRANCH   7   8
ENDBRANCH   6   7
ENDBRANCH   1   6
BRANCH   1  13
HETATM   13  C           1     -21.525  -6.539  -4.536  0.00  0.00     0.251 C 
HETATM   14  O           1     -21.705  -7.604  -5.078  0.00  0.00    -0.271 OA
HETATM   15  N           1     -21.480  -5.392  -5.280  0.00  0.00    -0.342 N 
HETATM   16  H           1     -21.329  -4.500  -4.825  0.00  0.00     0.163 HD
BRANCH  15  17
HETATM   17  C           1     -21.648  -5.452  -6.718  0.00  0.00     0.214 C 
BRANCH  17  18
HETATM   18  C           1     -20.306  -5.275  -7.388  0.00  0.00     0.199 C 
HETATM   19  O           1     -19.707  -6.267  -7.857  0.00  0.00    -0.646 OA
HETATM   20  O           1     -19.795  -4.139  -7.473  0.00  0.00    -0.646 OA
ENDBRANCH  17  18
BRANCH  17  21
HETATM   21  C           1     -22.590  -4.342  -7.167  0.00  0.00     0.147 C 
HETATM   22  C           1     -22.737  -4.384  -8.682  0.00  0.00     0.042 C 
BRANCH  21  23
HETATM   23  O           1     -23.845  -4.526  -6.570  0.00  0.00    -0.393 OA
HETATM   24  H           1     -23.983  -3.796  -5.991  0.00  0.00     0.210 HD
ENDBRANCH  21  23
ENDBRANCH  17  21
ENDBRANCH  15  17
ENDBRANCH   1  13
TORSDOF 10
ENDMDL
MODEL 8
REMARK VINA RESULT:      -5.4     10.259     12.403
REMARK  10 active torsions:
REMARK  status: ('A' for Active; 'I' for Inactive)
REMARK    1  A    between atoms: N_8  and  C_15 
REMARK    2  A    between atoms: O_11  and  P_12 
REMARK    3  A    between atoms: P_12  and  O_13 
REMARK    4  A    between atoms: O_13  and  C_14 
REMARK    5  A    between atoms: C_14  and  C_15 
REMARK    6  A    between atoms: C_15  and  C_16 
REMARK       I    between atoms: C_16  and  N_17 
REMARK    7  A    between atoms: N_17  and  C_21 
REMARK    8  A    between atoms: C_20  and  C_21 
REMARK    9  A    between atoms: C_21  and  C_23 
REMARK   10  A    between atoms: O_22  and  C_23 
ROOT
HETATM    1  C           1     -25.049  -6.410 -16.696  0.00  0.00     0.298 C 
ENDROOT
BRANCH   1   2
HETATM    2  N           1     -24.904  -7.406 -15.585  0.00  0.00    -0.064 N 
HETATM    3  H           1     -25.048  -8.371 -15.961  0.00  0.00     0.275 HD
HETATM    4  H           1     -25.616  -7.210 -14.846  0.00  0.00     0.275 HD
HETATM    5  H           1     -23.946  -7.332 -15.173  0.00  0.00     0.275 HD
ENDBRANCH   1   2
BRANCH   1   6
HETATM    6  C           1     -24.609  -7.046 -18.008  0.00  0.00     0.224 C 
BRANCH   6   7
HETATM    7  O           1     -25.398  -6.551 -19.056  0.00  0.00    -0.287 OA
BRANCH   7   8
HETATM    8  P           1     -25.157  -7.224 -20.503  0.00  0.00     0.406 P 
HETATM    9  O           1     -25.056  -6.164 -21.530  0.00  0.00    -0.624 OA
HETATM   10  O           1     -23.902  -8.009 -20.477  0.00  0.00    -0.624 OA
BRANCH   8  11
HETATM   11  O           1     -26.393  -8.201 -20.856  0.00  0.00    -0.300 OA
HETATM   12  H           1     -26.037  -9.072 -20.814  0.00  0.00     0.223 HD
ENDBRANCH   8  11
ENDBRANCH   7   8
ENDBRANCH   6   7
ENDBRANCH   1   6
BRANCH   1  13
HETATM   13  C           1     -26.491  -5.982 -16.802  0.00  0.00     0.251 C 
HETATM   14  O           1     -26.782  -4.812 -16.713  0.00  0.00    -0.271 OA
HETATM   15  N           1     -27.471  -6.916 -17.002  0.00  0.00    -0.342 N 
HETATM   16  H           1     -27.227  -7.896 -17.077  0.00  0.00     0.163 HD
BRANCH  15  17
HETATM   17  C           1     -28.857  -6.505 -17.105  0.00  0.00     0.214 C 
BRANCH  17  18
HETATM   18  C           1     -29.317  -5.953 -15.777  0.00  0.00     0.199 C 
HETATM   19  O           1     -28.989  -6.526 -14.715  0.00  0.00    -0.646 OA
HETATM   20  O           1     -30.027  -4.926 -15.739  0.00  0.00    -0.646 OA
ENDBRANCH  17  18
BRANCH  17  21
HETATM   21  C           1     -29.716  -7.705 -17.482  0.00  0.00     0.147 C 
HETATM   22  C           1     -31.140  -7.241 -17.759  0.00  0.00     0.042 C 
BRANCH  21  23
HETATM   23  O           1     -29.190  -8.312 -18.630  0.00  0.00    -0.393 OA
HETATM   24  H           1     -28.256  -8.356 -18.514  0.00  0.00     0.210 HD
ENDBRANCH  21  23
ENDBRANCH  17  21
ENDBRANCH  15  17
ENDBRANCH   1  13
TORSDOF 10
ENDMDL
MODEL 9
REMARK VINA RESULT:      -5.3      3.933      8.010
REMARK  10 active torsions:
REMARK  status: ('A' for Active; 'I' for Inactive)
REMARK    1  A    between atoms: N_8  and  C_15 
REMARK    2  A    between atoms: O_11  and  P_12 
REMARK    3  A    between atoms: P_12  and  O_13 
REMARK    4  A    between atoms: O_13  and  C_14 
REMARK    5  A    between atoms: C_14  and  C_15 
REMARK    6  A    between atoms: C_15  and  C_16 
REMARK       I    between atoms: C_16  and  N_17 
REMARK    7  A    between atoms: N_17  and  C_21 
REMARK    8  A    between atoms: C_20  and  C_21 
REMARK    9  A    between atoms: C_21  and  C_23 
REMARK   10  A    between atoms: O_22  and  C_23 
ROOT
HETATM    1  C           1     -21.618  -7.125  -5.337  0.00  0.00     0.298 C 
ENDROOT
BRANCH   1   2
HETATM    2  N           1     -22.692  -6.254  -4.758  0.00  0.00    -0.064 N 
HETATM    3  H           1     -23.629  -6.652  -4.995  0.00  0.00     0.275 HD
HETATM    4  H           1     -22.611  -5.291  -5.155  0.00  0.00     0.275 HD
HETATM    5  H           1     -22.584  -6.212  -3.719  0.00  0.00     0.275 HD
ENDBRANCH   1   2
BRANCH   1   6
HETATM    6  C           1     -20.626  -6.263  -6.107  0.00  0.00     0.224 C 
BRANCH   6   7
HETATM    7  O           1     -21.032  -6.166  -7.446  0.00  0.00    -0.287 OA
BRANCH   7   8
HETATM    8  P           1     -21.483  -4.698  -7.944  0.00  0.00     0.406 P 
HETATM    9  O           1     -20.401  -3.728  -7.667  0.00  0.00    -0.624 OA
HETATM   10  O           1     -21.754  -4.734  -9.399  0.00  0.00    -0.624 OA
BRANCH   8  11
HETATM   11  O           1     -22.822  -4.251  -7.159  0.00  0.00    -0.300 OA
HETATM   12  H           1     -22.545  -3.567  -6.574  0.00  0.00     0.223 HD
ENDBRANCH   8  11
ENDBRANCH   7   8
ENDBRANCH   6   7
ENDBRANCH   1   6
BRANCH   1  13
HETATM   13  C           1     -20.900  -7.847  -4.223  0.00  0.00     0.251 C 
HETATM   14  O           1     -19.771  -8.245  -4.391  0.00  0.00    -0.271 OA
HETATM   15  N           1     -21.525  -8.049  -3.023  0.00  0.00    -0.342 N 
HETATM   16  H           1     -22.470  -7.714  -2.883  0.00  0.00     0.163 HD
BRANCH  15  17
HETATM   17  C           1     -20.835  -8.741  -1.953  0.00  0.00     0.214 C 
BRANCH  17  18
HETATM   18  C           1     -21.310 -10.173  -1.892  0.00  0.00     0.199 C 
HETATM   19  O           1     -22.517 -10.439  -2.084  0.00  0.00    -0.646 OA
HETATM   20  O           1     -20.499 -11.091  -1.649  0.00  0.00    -0.646 OA
ENDBRANCH  17  18
BRANCH  17  21
HETATM   21  C           1     -21.131  -8.051  -0.627  0.00  0.00     0.147 C 
HETATM   22  C           1     -22.296  -7.086  -0.807  0.00  0.00     0.042 C 
BRANCH  21  23
HETATM   23  O           1     -21.466  -9.013   0.335  0.00  0.00    -0.393 OA
HETATM   24  H           1     -21.043  -8.759   1.137  0.00  0.00     0.210 HD
ENDBRANCH  21  23
ENDBRANCH  17  21
ENDBRANCH  15  17
ENDBRANCH   1  13
TORSDOF 10
ENDMDL
