MODEL 1
REMARK VINA RESULT:      -7.9      0.000      0.000
REMARK  8 active torsions:
REMARK  status: ('A' for Active; 'I' for Inactive)
REMARK    1  A    between atoms: C_5  and  Se_21 
REMARK    2  A    between atoms: C_5  and  C_6 
REMARK    3  A    between atoms: C_6  and  C_7 
REMARK    4  A    between atoms: C_6  and  N_24 
REMARK    5  A    between atoms: C_13  and  C_26 
REMARK    6  A    between atoms: C_13  and  C_17 
REMARK    7  A    between atoms: C_13  and  N_25 
REMARK    8  A    between atoms: C_17  and  C_19 
REMARK       I    between atoms: N_24  and  C_26 
ROOT
HETATM    1  C           1     -21.231  -5.825  -6.985  0.00  0.00     0.278 C 
ENDROOT
BRANCH   1   2
HETATM    2  C           1     -21.806  -4.631  -7.707  0.00  0.00     0.249 C 
HETATM    3  O           1     -21.833  -3.551  -7.163  0.00  0.00    -0.271 OA
HETATM    4  N           1     -22.295  -4.769  -8.977  0.00  0.00    -0.345 N 
HETATM    5  H           1     -22.273  -5.673  -9.433  0.00  0.00     0.163 HD
BRANCH   4   6
HETATM    6  C           1     -22.847  -3.621  -9.671  0.00  0.00     0.185 C 
BRANCH   6   7
HETATM    7  C           1     -21.994  -3.306 -10.891  0.00  0.00     0.039 C 
BRANCH   7   8
HETATM    8 Se           1     -20.365  -4.376 -10.842  0.00  0.00     0.000 Se
HETATM    9  H           1     -21.074  -5.665 -10.811  0.00  0.00     0.000 HD
ENDBRANCH   7   8
ENDBRANCH   6   7
BRANCH   6  10
HETATM   10  C           1     -24.257  -3.930 -10.111  0.00  0.00     0.196 C 
HETATM   11  O           1     -24.932  -3.061 -10.704  0.00  0.00    -0.646 OA
HETATM   12  O           1     -24.750  -5.056  -9.882  0.00  0.00    -0.646 OA
ENDBRANCH   6  10
ENDBRANCH   4   6
ENDBRANCH   1   2
BRANCH   1  13
HETATM   13  C           1     -21.188  -5.542  -5.490  0.00  0.00     0.083 C 
BRANCH  13  14
HETATM   14  C           1     -21.208  -6.836  -4.736  0.00  0.00    -0.028 A 
HETATM   15  C           1     -20.882  -8.074  -5.240  0.00  0.00     0.096 A 
HETATM   16  N           1     -21.031  -8.990  -4.232  0.00  0.00    -0.365 N 
HETATM   17  C           1     -21.450  -8.365  -3.080  0.00  0.00     0.042 A 
HETATM   18  H           1     -20.851 -10.020  -4.326  0.00  0.00     0.165 HD
HETATM   19  C           1     -21.730  -8.894  -1.815  0.00  0.00     0.030 A 
HETATM   20  C           1     -21.570  -7.006  -3.371  0.00  0.00    -0.002 A 
HETATM   21  C           1     -22.144  -8.004  -0.818  0.00  0.00     0.002 A 
HETATM   22  C           1     -22.273  -6.641  -1.080  0.00  0.00     0.001 A 
HETATM   23  C           1     -21.988  -6.128  -2.352  0.00  0.00     0.014 A 
ENDBRANCH  13  14
ENDBRANCH   1  13
BRANCH   1  24
HETATM   24  N           1     -19.841  -6.089  -7.484  0.00  0.00    -0.066 N 
HETATM   25  H           1     -19.735  -7.106  -7.697  0.00  0.00     0.275 HD
HETATM   26  H           1     -19.149  -5.812  -6.751  0.00  0.00     0.275 HD
HETATM   27  H           1     -19.670  -5.531  -8.352  0.00  0.00     0.275 HD
ENDBRANCH   1  24
TORSDOF 8
ENDMDL
MODEL 2
REMARK VINA RESULT:      -7.3      3.969      7.640
REMARK  8 active torsions:
REMARK  status: ('A' for Active; 'I' for Inactive)
REMARK    1  A    between atoms: C_5  and  Se_21 
REMARK    2  A    between atoms: C_5  and  C_6 
REMARK    3  A    between atoms: C_6  and  C_7 
REMARK    4  A    between atoms: C_6  and  N_24 
REMARK    5  A    between atoms: C_13  and  C_26 
REMARK    6  A    between atoms: C_13  and  C_17 
REMARK    7  A    between atoms: C_13  and  N_25 
REMARK    8  A    between atoms: C_17  and  C_19 
REMARK       I    between atoms: N_24  and  C_26 
ROOT
HETATM    1  C           1     -21.458  -6.332  -5.478  0.00  0.00     0.278 C 
ENDROOT
BRANCH   1   2
HETATM    2  C           1     -20.408  -7.415  -5.505  0.00  0.00     0.249 C 
HETATM    3  O           1     -19.537  -7.391  -6.343  0.00  0.00    -0.271 OA
HETATM    4  N           1     -20.439  -8.423  -4.580  0.00  0.00    -0.345 N 
HETATM    5  H           1     -21.168  -8.444  -3.878  0.00  0.00     0.163 HD
BRANCH   4   6
HETATM    6  C           1     -19.429  -9.463  -4.607  0.00  0.00     0.185 C 
BRANCH   6   7
HETATM    7  C           1     -18.936  -9.729  -3.191  0.00  0.00     0.039 C 
BRANCH   7   8
HETATM    8 Se           1     -20.167  -8.926  -1.911  0.00  0.00     0.000 Se
HETATM    9  H           1     -21.241  -9.902  -2.155  0.00  0.00     0.000 HD
ENDBRANCH   7   8
ENDBRANCH   6   7
BRANCH   6  10
HETATM   10  C           1     -20.024 -10.728  -5.177  0.00  0.00     0.196 C 
HETATM   11  O           1     -20.421 -11.633  -4.411  0.00  0.00    -0.646 OA
HETATM   12  O           1     -20.120 -10.870  -6.415  0.00  0.00    -0.646 OA
ENDBRANCH   6  10
ENDBRANCH   4   6
ENDBRANCH   1   2
BRANCH   1  13
HETATM   13  C           1     -20.920  -5.084  -6.164  0.00  0.00     0.083 C 
BRANCH  13  14
HETATM   14  C           1     -21.853  -4.675  -7.262  0.00  0.00    -0.028 A 
HETATM   15  C           1     -23.201  -4.432  -7.132  0.00  0.00     0.096 A 
HETATM   16  N           1     -23.686  -4.086  -8.366  0.00  0.00    -0.365 N 
HETATM   17  C           1     -22.671  -4.101  -9.296  0.00  0.00     0.042 A 
HETATM   18  H           1     -24.686  -3.845  -8.572  0.00  0.00     0.165 HD
HETATM   19  C           1     -22.697  -3.820 -10.667  0.00  0.00     0.030 A 
HETATM   20  C           1     -21.505  -4.470  -8.626  0.00  0.00    -0.002 A 
HETATM   21  C           1     -21.492  -3.919 -11.371  0.00  0.00     0.002 A 
HETATM   22  C           1     -20.312  -4.285 -10.727  0.00  0.00     0.001 A 
HETATM   23  C           1     -20.304  -4.563  -9.355  0.00  0.00     0.014 A 
ENDBRANCH  13  14
ENDBRANCH   1  13
BRANCH   1  24
HETATM   24  N           1     -21.807  -6.010  -4.056  0.00  0.00    -0.066 N 
HETATM   25  H           1     -21.024  -5.475  -3.618  0.00  0.00     0.275 HD
HETATM   26  H           1     -21.963  -6.897  -3.525  0.00  0.00     0.275 HD
HETATM   27  H           1     -22.678  -5.433  -4.031  0.00  0.00     0.275 HD
ENDBRANCH   1  24
TORSDOF 8
ENDMDL
MODEL 3
REMARK VINA RESULT:      -7.1      3.300      7.555
REMARK  8 active torsions:
REMARK  status: ('A' for Active; 'I' for Inactive)
REMARK    1  A    between atoms: C_5  and  Se_21 
REMARK    2  A    between atoms: C_5  and  C_6 
REMARK    3  A    between atoms: C_6  and  C_7 
REMARK    4  A    between atoms: C_6  and  N_24 
REMARK    5  A    between atoms: C_13  and  C_26 
REMARK    6  A    between atoms: C_13  and  C_17 
REMARK    7  A    between atoms: C_13  and  N_25 
REMARK    8  A    between atoms: C_17  and  C_19 
REMARK       I    between atoms: N_24  and  C_26 
ROOT
HETATM    1  C           1     -20.208  -5.865  -5.965  0.00  0.00     0.278 C 
ENDROOT
BRANCH   1   2
HETATM    2  C           1     -20.880  -6.457  -4.751  0.00  0.00     0.249 C 
HETATM    3  O           1     -21.581  -5.764  -4.050  0.00  0.00    -0.271 OA
HETATM    4  N           1     -20.699  -7.778  -4.443  0.00  0.00    -0.345 N 
HETATM    5  H           1     -20.112  -8.359  -5.029  0.00  0.00     0.163 HD
BRANCH   4   6
HETATM    6  C           1     -21.346  -8.346  -3.276  0.00  0.00     0.185 C 
BRANCH   6   7
HETATM    7  C           1     -21.833  -9.751  -3.598  0.00  0.00     0.039 C 
BRANCH   7   8
HETATM    8 Se           1     -20.965 -10.385  -5.224  0.00  0.00     0.000 Se
HETATM    9  H           1     -19.886  -9.386  -5.177  0.00  0.00     0.000 HD
ENDBRANCH   7   8
ENDBRANCH   6   7
BRANCH   6  10
HETATM   10  C           1     -20.360  -8.406  -2.134  0.00  0.00     0.196 C 
HETATM   11  O           1     -19.259  -8.976  -2.289  0.00  0.00    -0.646 OA
HETATM   12  O           1     -20.646  -7.886  -1.035  0.00  0.00    -0.646 OA
ENDBRANCH   6  10
ENDBRANCH   4   6
ENDBRANCH   1   2
BRANCH   1  13
HETATM   13  C           1     -20.636  -4.413  -6.126  0.00  0.00     0.083 C 
BRANCH  13  14
HETATM   14  C           1     -21.683  -4.316  -7.193  0.00  0.00    -0.028 A 
HETATM   15  C           1     -23.043  -4.394  -7.004  0.00  0.00     0.096 A 
HETATM   16  N           1     -23.645  -4.260  -8.227  0.00  0.00    -0.365 N 
HETATM   17  C           1     -22.695  -4.095  -9.209  0.00  0.00     0.042 A 
HETATM   18  H           1     -24.681  -4.280  -8.392  0.00  0.00     0.165 HD
HETATM   19  C           1     -22.842  -3.923 -10.590  0.00  0.00     0.030 A 
HETATM   20  C           1     -21.448  -4.127  -8.583  0.00  0.00    -0.002 A 
HETATM   21  C           1     -21.677  -3.779 -11.352  0.00  0.00     0.002 A 
HETATM   22  C           1     -20.419  -3.806 -10.754  0.00  0.00     0.001 A 
HETATM   23  C           1     -20.290  -3.979  -9.371  0.00  0.00     0.014 A 
ENDBRANCH  13  14
ENDBRANCH   1  13
BRANCH   1  24
HETATM   24  N           1     -20.606  -6.642  -7.185  0.00  0.00    -0.066 N 
HETATM   25  H           1     -20.836  -5.980  -7.959  0.00  0.00     0.275 HD
HETATM   26  H           1     -21.443  -7.229  -6.966  0.00  0.00     0.275 HD
HETATM   27  H           1     -19.816  -7.260  -7.478  0.00  0.00     0.275 HD
ENDBRANCH   1  24
TORSDOF 8
ENDMDL
MODEL 4
REMARK VINA RESULT:      -6.9      2.079      2.535
REMARK  8 active torsions:
REMARK  status: ('A' for Active; 'I' for Inactive)
REMARK    1  A    between atoms: C_5  and  Se_21 
REMARK    2  A    between atoms: C_5  and  C_6 
REMARK    3  A    between atoms: C_6  and  C_7 
REMARK    4  A    between atoms: C_6  and  N_24 
REMARK    5  A    between atoms: C_13  and  C_26 
REMARK    6  A    between atoms: C_13  and  C_17 
REMARK    7  A    between atoms: C_13  and  N_25 
REMARK    8  A    between atoms: C_17  and  C_19 
REMARK       I    between atoms: N_24  and  C_26 
ROOT
HETATM    1  C           1     -20.508  -5.837  -5.224  0.00  0.00     0.278 C 
ENDROOT
BRANCH   1   2
HETATM    2  C           1     -21.085  -5.886  -6.617  0.00  0.00     0.249 C 
HETATM    3  O           1     -21.326  -6.952  -7.134  0.00  0.00    -0.271 OA
HETATM    4  N           1     -21.335  -4.725  -7.297  0.00  0.00    -0.345 N 
HETATM    5  H           1     -21.134  -3.832  -6.865  0.00  0.00     0.163 HD
BRANCH   4   6
HETATM    6  C           1     -21.890  -4.774  -8.636  0.00  0.00     0.185 C 
BRANCH   6   7
HETATM    7  C           1     -23.061  -3.806  -8.737  0.00  0.00     0.039 C 
BRANCH   7   8
HETATM    8 Se           1     -24.345  -4.472 -10.043  0.00  0.00     0.000 Se
HETATM    9  H           1     -23.911  -5.874  -9.930  0.00  0.00     0.000 HD
ENDBRANCH   7   8
ENDBRANCH   6   7
BRANCH   6  10
HETATM   10  C           1     -20.828  -4.382  -9.634  0.00  0.00     0.196 C 
HETATM   11  O           1     -21.020  -3.416 -10.404  0.00  0.00    -0.646 OA
HETATM   12  O           1     -19.757  -5.023  -9.690  0.00  0.00    -0.646 OA
ENDBRANCH   6  10
ENDBRANCH   4   6
ENDBRANCH   1   2
BRANCH   1  13
HETATM   13  C           1     -21.593  -6.178  -4.212  0.00  0.00     0.083 C 
BRANCH  13  14
HETATM   14  C           1     -21.142  -7.326  -3.364  0.00  0.00    -0.028 A 
HETATM   15  C           1     -20.291  -8.336  -3.750  0.00  0.00     0.096 A 
HETATM   16  N           1     -20.135  -9.184  -2.686  0.00  0.00    -0.365 N 
HETATM   17  C           1     -20.873  -8.740  -1.612  0.00  0.00     0.042 A 
HETATM   18  H           1     -19.539 -10.047  -2.689  0.00  0.00     0.165 HD
HETATM   19  C           1     -21.017  -9.280  -0.329  0.00  0.00     0.030 A 
HETATM   20  C           1     -21.518  -7.570  -2.013  0.00  0.00    -0.002 A 
HETATM   21  C           1     -21.847  -8.600   0.569  0.00  0.00     0.002 A 
HETATM   22  C           1     -22.504  -7.430   0.196  0.00  0.00     0.001 A 
HETATM   23  C           1     -22.348  -6.903  -1.092  0.00  0.00     0.014 A 
ENDBRANCH  13  14
ENDBRANCH   1  13
BRANCH   1  24
HETATM   24  N           1     -19.983  -4.459  -4.949  0.00  0.00    -0.066 N 
HETATM   25  H           1     -20.701  -3.752  -5.225  0.00  0.00     0.275 HD
HETATM   26  H           1     -19.110  -4.302  -5.502  0.00  0.00     0.275 HD
HETATM   27  H           1     -19.772  -4.362  -3.930  0.00  0.00     0.275 HD
ENDBRANCH   1  24
TORSDOF 8
ENDMDL
MODEL 5
REMARK VINA RESULT:      -6.8      3.488      7.483
REMARK  8 active torsions:
REMARK  status: ('A' for Active; 'I' for Inactive)
REMARK    1  A    between atoms: C_5  and  Se_21 
REMARK    2  A    between atoms: C_5  and  C_6 
REMARK    3  A    between atoms: C_6  and  C_7 
REMARK    4  A    between atoms: C_6  and  N_24 
REMARK    5  A    between atoms: C_13  and  C_26 
REMARK    6  A    between atoms: C_13  and  C_17 
REMARK    7  A    between atoms: C_13  and  N_25 
REMARK    8  A    between atoms: C_17  and  C_19 
REMARK       I    between atoms: N_24  and  C_26 
ROOT
HETATM    1  C           1     -20.409  -6.276  -5.357  0.00  0.00     0.278 C 
ENDROOT
BRANCH   1   2
HETATM    2  C           1     -21.403  -6.799  -4.350  0.00  0.00     0.249 C 
HETATM    3  O           1     -22.549  -6.415  -4.377  0.00  0.00    -0.271 OA
HETATM    4  N           1     -21.009  -7.708  -3.406  0.00  0.00    -0.345 N 
HETATM    5  H           1     -20.050  -8.030  -3.382  0.00  0.00     0.163 HD
BRANCH   4   6
HETATM    6  C           1     -21.966  -8.210  -2.438  0.00  0.00     0.185 C 
BRANCH   6   7
HETATM    7  C           1     -21.690  -9.682  -2.166  0.00  0.00     0.039 C 
BRANCH   7   8
HETATM    8 Se           1     -22.243 -10.744  -3.704  0.00  0.00     0.000 Se
HETATM    9  H           1     -22.750 -11.864  -2.896  0.00  0.00     0.000 HD
ENDBRANCH   7   8
ENDBRANCH   6   7
BRANCH   6  10
HETATM   10  C           1     -21.837  -7.429  -1.153  0.00  0.00     0.196 C 
HETATM   11  O           1     -21.165  -7.891  -0.205  0.00  0.00    -0.646 OA
HETATM   12  O           1     -22.403  -6.321  -1.035  0.00  0.00    -0.646 OA
ENDBRANCH   6  10
ENDBRANCH   4   6
ENDBRANCH   1   2
BRANCH   1  13
HETATM   13  C           1     -20.651  -4.792  -5.588  0.00  0.00     0.083 C 
BRANCH  13  14
HETATM   14  C           1     -20.543  -4.489  -7.051  0.00  0.00    -0.028 A 
HETATM   15  C           1     -19.376  -4.359  -7.768  0.00  0.00     0.096 A 
HETATM   16  N           1     -19.711  -4.083  -9.067  0.00  0.00    -0.365 N 
HETATM   17  C           1     -21.080  -4.031  -9.205  0.00  0.00     0.042 A 
HETATM   18  H           1     -19.023  -3.932  -9.845  0.00  0.00     0.165 HD
HETATM   19  C           1     -21.866  -3.781 -10.335  0.00  0.00     0.030 A 
HETATM   20  C           1     -21.628  -4.283  -7.947  0.00  0.00    -0.002 A 
HETATM   21  C           1     -23.255  -3.791 -10.172  0.00  0.00     0.002 A 
HETATM   22  C           1     -23.831  -4.041  -8.928  0.00  0.00     0.001 A 
HETATM   23  C           1     -23.029  -4.289  -7.807  0.00  0.00     0.014 A 
ENDBRANCH  13  14
ENDBRANCH   1  13
BRANCH   1  24
HETATM   24  N           1     -20.572  -7.017  -6.651  0.00  0.00    -0.066 N 
HETATM   25  H           1     -21.418  -7.627  -6.598  0.00  0.00     0.275 HD
HETATM   26  H           1     -19.727  -7.607  -6.824  0.00  0.00     0.275 HD
HETATM   27  H           1     -20.684  -6.333  -7.433  0.00  0.00     0.275 HD
ENDBRANCH   1  24
TORSDOF 8
ENDMDL
MODEL 6
REMARK VINA RESULT:      -6.7      1.401      2.242
REMARK  8 active torsions:
REMARK  status: ('A' for Active; 'I' for Inactive)
REMARK    1  A    between atoms: C_5  and  Se_21 
REMARK    2  A    between atoms: C_5  and  C_6 
REMARK    3  A    between atoms: C_6  and  C_7 
REMARK    4  A    between atoms: C_6  and  N_24 
REMARK    5  A    between atoms: C_13  and  C_26 
REMARK    6  A    between atoms: C_13  and  C_17 
REMARK    7  A    between atoms: C_13  and  N_25 
REMARK    8  A    between atoms: C_17  and  C_19 
REMARK       I    between atoms: N_24  and  C_26 
ROOT
HETATM    1  C           1     -21.052  -5.312  -6.430  0.00  0.00     0.278 C 
ENDROOT
BRANCH   1   2
HETATM    2  C           1     -21.585  -4.346  -7.459  0.00  0.00     0.249 C 
HETATM    3  O           1     -21.449  -3.156  -7.299  0.00  0.00    -0.271 OA
HETATM    4  N           1     -22.222  -4.817  -8.576  0.00  0.00    -0.345 N 
HETATM    5  H           1     -22.336  -5.813  -8.711  0.00  0.00     0.163 HD
BRANCH   4   6
HETATM    6  C           1     -22.733  -3.888  -9.565  0.00  0.00     0.185 C 
BRANCH   6   7
HETATM    7  C           1     -22.222  -4.280 -10.944  0.00  0.00     0.039 C 
BRANCH   7   8
HETATM    8 Se           1     -20.398  -3.630 -11.172  0.00  0.00     0.000 Se
HETATM    9  H           1     -20.804  -2.362 -11.797  0.00  0.00     0.000 HD
ENDBRANCH   7   8
ENDBRANCH   6   7
BRANCH   6  10
HETATM   10  C           1     -24.242  -3.928  -9.559  0.00  0.00     0.196 C 
HETATM   11  O           1     -24.895  -2.881  -9.360  0.00  0.00    -0.646 OA
HETATM   12  O           1     -24.839  -5.009  -9.753  0.00  0.00    -0.646 OA
ENDBRANCH   6  10
ENDBRANCH   4   6
ENDBRANCH   1   2
BRANCH   1  13
HETATM   13  C           1     -22.215  -5.958  -5.690  0.00  0.00     0.083 C 
BRANCH  13  14
HETATM   14  C           1     -21.718  -6.571  -4.417  0.00  0.00    -0.028 A 
HETATM   15  C           1     -22.115  -6.232  -3.144  0.00  0.00     0.096 A 
HETATM   16  N           1     -21.425  -7.023  -2.264  0.00  0.00    -0.365 N 
HETATM   17  C           1     -20.584  -7.872  -2.947  0.00  0.00     0.042 A 
HETATM   18  H           1     -21.523  -6.986  -1.220  0.00  0.00     0.165 HD
HETATM   19  C           1     -19.699  -8.845  -2.469  0.00  0.00     0.030 A 
HETATM   20  C           1     -20.750  -7.608  -4.306  0.00  0.00    -0.002 A 
HETATM   21  C           1     -18.961  -9.568  -3.413  0.00  0.00     0.002 A 
HETATM   22  C           1     -19.106  -9.325  -4.777  0.00  0.00     0.001 A 
HETATM   23  C           1     -19.997  -8.348  -5.238  0.00  0.00     0.014 A 
ENDBRANCH  13  14
ENDBRANCH   1  13
BRANCH   1  24
HETATM   24  N           1     -20.186  -4.574  -5.453  0.00  0.00    -0.066 N 
HETATM   25  H           1     -20.647  -3.674  -5.190  0.00  0.00     0.275 HD
HETATM   26  H           1     -19.258  -4.374  -5.892  0.00  0.00     0.275 HD
HETATM   27  H           1     -20.048  -5.158  -4.598  0.00  0.00     0.275 HD
ENDBRANCH   1  24
TORSDOF 8
ENDMDL
MODEL 7
REMARK VINA RESULT:      -6.6      5.014      7.845
REMARK  8 active torsions:
REMARK  status: ('A' for Active; 'I' for Inactive)
REMARK    1  A    between atoms: C_5  and  Se_21 
REMARK    2  A    between atoms: C_5  and  C_6 
REMARK    3  A    between atoms: C_6  and  C_7 
REMARK    4  A    between atoms: C_6  and  N_24 
REMARK    5  A    between atoms: C_13  and  C_26 
REMARK    6  A    between atoms: C_13  and  C_17 
REMARK    7  A    between atoms: C_13  and  N_25 
REMARK    8  A    between atoms: C_17  and  C_19 
REMARK       I    between atoms: N_24  and  C_26 
ROOT
HETATM    1  C           1     -19.536  -8.526  -3.802  0.00  0.00     0.278 C 
ENDROOT
BRANCH   1   2
HETATM    2  C           1     -20.525  -9.094  -2.815  0.00  0.00     0.249 C 
HETATM    3  O           1     -21.049 -10.161  -3.030  0.00  0.00    -0.271 OA
HETATM    4  N           1     -20.829  -8.400  -1.674  0.00  0.00    -0.345 N 
HETATM    5  H           1     -20.390  -7.506  -1.493  0.00  0.00     0.163 HD
BRANCH   4   6
HETATM    6  C           1     -21.779  -8.947  -0.725  0.00  0.00     0.185 C 
BRANCH   6   7
HETATM    7  C           1     -21.030  -9.558   0.451  0.00  0.00     0.039 C 
BRANCH   7   8
HETATM    8 Se           1     -21.373 -11.476   0.516  0.00  0.00     0.000 Se
HETATM    9  H           1     -20.200 -11.831  -0.298  0.00  0.00     0.000 HD
ENDBRANCH   7   8
ENDBRANCH   6   7
BRANCH   6  10
HETATM   10  C           1     -22.681  -7.844  -0.226  0.00  0.00     0.196 C 
HETATM   11  O           1     -22.707  -6.742  -0.816  0.00  0.00    -0.646 OA
HETATM   12  O           1     -23.403  -8.032   0.777  0.00  0.00    -0.646 OA
ENDBRANCH   6  10
ENDBRANCH   4   6
ENDBRANCH   1   2
BRANCH   1  13
HETATM   13  C           1     -20.127  -8.583  -5.204  0.00  0.00     0.083 C 
BRANCH  13  14
HETATM   14  C           1     -20.968  -7.366  -5.441  0.00  0.00    -0.028 A 
HETATM   15  C           1     -22.216  -7.127  -4.914  0.00  0.00     0.096 A 
HETATM   16  N           1     -22.639  -5.909  -5.374  0.00  0.00    -0.365 N 
HETATM   17  C           1     -21.683  -5.352  -6.194  0.00  0.00     0.042 A 
HETATM   18  H           1     -23.560  -5.464  -5.137  0.00  0.00     0.165 HD
HETATM   19  C           1     -21.680  -4.132  -6.881  0.00  0.00     0.030 A 
HETATM   20  C           1     -20.619  -6.251  -6.253  0.00  0.00    -0.002 A 
HETATM   21  C           1     -20.553  -3.826  -7.651  0.00  0.00     0.002 A 
HETATM   22  C           1     -19.475  -4.706  -7.727  0.00  0.00     0.001 A 
HETATM   23  C           1     -19.494  -5.921  -7.033  0.00  0.00     0.014 A 
ENDBRANCH  13  14
ENDBRANCH   1  13
BRANCH   1  24
HETATM   24  N           1     -18.271  -9.331  -3.760  0.00  0.00    -0.066 N 
HETATM   25  H           1     -17.464  -8.726  -4.033  0.00  0.00     0.275 HD
HETATM   26  H           1     -18.346 -10.134  -4.426  0.00  0.00     0.275 HD
HETATM   27  H           1     -18.121  -9.696  -2.792  0.00  0.00     0.275 HD
ENDBRANCH   1  24
TORSDOF 8
ENDMDL
MODEL 8
REMARK VINA RESULT:      -6.6     13.461     15.701
REMARK  8 active torsions:
REMARK  status: ('A' for Active; 'I' for Inactive)
REMARK    1  A    between atoms: C_5  and  Se_21 
REMARK    2  A    between atoms: C_5  and  C_6 
REMARK    3  A    between atoms: C_6  and  C_7 
REMARK    4  A    between atoms: C_6  and  N_24 
REMARK    5  A    between atoms: C_13  and  C_26 
REMARK    6  A    between atoms: C_13  and  C_17 
REMARK    7  A    between atoms: C_13  and  N_25 
REMARK    8  A    between atoms: C_17  and  C_19 
REMARK       I    between atoms: N_24  and  C_26 
ROOT
HETATM    1  C           1     -36.083  -0.318 -11.291  0.00  0.00     0.278 C 
ENDROOT
BRANCH   1   2
HETATM    2  C           1     -36.873  -0.391 -12.574  0.00  0.00     0.249 C 
HETATM    3  O           1     -38.075  -0.522 -12.537  0.00  0.00    -0.271 OA
HETATM    4  N           1     -36.231  -0.309 -13.780  0.00  0.00    -0.345 N 
HETATM    5  H           1     -35.225  -0.199 -13.811  0.00  0.00     0.163 HD
BRANCH   4   6
HETATM    6  C           1     -36.991  -0.379 -15.012  0.00  0.00     0.185 C 
BRANCH   6   7
HETATM    7  C           1     -37.379   1.026 -15.452  0.00  0.00     0.039 C 
BRANCH   7   8
HETATM    8 Se           1     -35.769   2.092 -15.721  0.00  0.00     0.000 Se
HETATM    9  H           1     -34.919   0.937 -16.051  0.00  0.00     0.000 HD
ENDBRANCH   7   8
ENDBRANCH   6   7
BRANCH   6  10
HETATM   10  C           1     -36.149  -1.025 -16.086  0.00  0.00     0.196 C 
HETATM   11  O           1     -35.133  -1.682 -15.772  0.00  0.00    -0.646 OA
HETATM   12  O           1     -36.468  -0.904 -17.288  0.00  0.00    -0.646 OA
ENDBRANCH   6  10
ENDBRANCH   4   6
ENDBRANCH   1   2
BRANCH   1  13
HETATM   13  C           1     -36.149  -1.660 -10.576  0.00  0.00     0.083 C 
BRANCH  13  14
HETATM   14  C           1     -34.905  -2.442 -10.867  0.00  0.00    -0.028 A 
HETATM   15  C           1     -33.689  -1.922 -11.244  0.00  0.00     0.096 A 
HETATM   16  N           1     -32.820  -2.967 -11.412  0.00  0.00    -0.365 N 
HETATM   17  C           1     -33.454  -4.160 -11.150  0.00  0.00     0.042 A 
HETATM   18  H           1     -31.815  -2.872 -11.700  0.00  0.00     0.165 HD
HETATM   19  C           1     -32.968  -5.472 -11.193  0.00  0.00     0.030 A 
HETATM   20  C           1     -34.771  -3.857 -10.804  0.00  0.00    -0.002 A 
HETATM   21  C           1     -33.857  -6.503 -10.871  0.00  0.00     0.002 A 
HETATM   22  C           1     -35.177  -6.229 -10.521  0.00  0.00     0.001 A 
HETATM   23  C           1     -35.648  -4.911 -10.483  0.00  0.00     0.014 A 
ENDBRANCH  13  14
ENDBRANCH   1  13
BRANCH   1  24
HETATM   24  N           1     -36.662   0.748 -10.408  0.00  0.00    -0.066 N 
HETATM   25  H           1     -37.681   0.568 -10.268  0.00  0.00     0.275 HD
HETATM   26  H           1     -36.532   1.683 -10.859  0.00  0.00     0.275 HD
HETATM   27  H           1     -36.176   0.738  -9.483  0.00  0.00     0.275 HD
ENDBRANCH   1  24
TORSDOF 8
ENDMDL
MODEL 9
REMARK VINA RESULT:      -6.5     12.992     14.900
REMARK  8 active torsions:
REMARK  status: ('A' for Active; 'I' for Inactive)
REMARK    1  A    between atoms: C_5  and  Se_21 
REMARK    2  A    between atoms: C_5  and  C_6 
REMARK    3  A    between atoms: C_6  and  C_7 
REMARK    4  A    between atoms: C_6  and  N_24 
REMARK    5  A    between atoms: C_13  and  C_26 
REMARK    6  A    between atoms: C_13  and  C_17 
REMARK    7  A    between atoms: C_13  and  N_25 
REMARK    8  A    between atoms: C_17  and  C_19 
REMARK       I    between atoms: N_24  and  C_26 
ROOT
HETATM    1  C           1     -34.530  -1.637 -11.493  0.00  0.00     0.278 C 
ENDROOT
BRANCH   1   2
HETATM    2  C           1     -35.069  -0.541 -12.379  0.00  0.00     0.249 C 
HETATM    3  O           1     -35.178   0.584 -11.950  0.00  0.00    -0.271 OA
HETATM    4  N           1     -35.432  -0.819 -13.669  0.00  0.00    -0.345 N 
HETATM    5  H           1     -35.340  -1.761 -14.029  0.00  0.00     0.163 HD
BRANCH   4   6
HETATM    6  C           1     -35.948   0.235 -14.520  0.00  0.00     0.185 C 
BRANCH   6   7
HETATM    7  C           1     -35.213   0.219 -15.853  0.00  0.00     0.039 C 
BRANCH   7   8
HETATM    8 Se           1     -35.299  -1.569 -16.624  0.00  0.00     0.000 Se
HETATM    9  H           1     -36.504  -1.960 -15.875  0.00  0.00     0.000 HD
ENDBRANCH   7   8
ENDBRANCH   6   7
BRANCH   6  10
HETATM   10  C           1     -37.422   0.012 -14.758  0.00  0.00     0.196 C 
HETATM   11  O           1     -37.990   0.563 -15.726  0.00  0.00    -0.646 OA
HETATM   12  O           1     -38.075  -0.723 -13.987  0.00  0.00    -0.646 OA
ENDBRANCH   6  10
ENDBRANCH   4   6
ENDBRANCH   1   2
BRANCH   1  13
HETATM   13  C           1     -35.169  -2.963 -11.880  0.00  0.00     0.083 C 
BRANCH  13  14
HETATM   14  C           1     -34.164  -4.063 -11.736  0.00  0.00    -0.028 A 
HETATM   15  C           1     -32.886  -4.067 -12.246  0.00  0.00     0.096 A 
HETATM   16  N           1     -32.297  -5.252 -11.894  0.00  0.00    -0.365 N 
HETATM   17  C           1     -33.173  -6.019 -11.161  0.00  0.00     0.042 A 
HETATM   18  H           1     -31.318  -5.534 -12.147  0.00  0.00     0.165 HD
HETATM   19  C           1     -33.009  -7.289 -10.596  0.00  0.00     0.030 A 
HETATM   20  C           1     -34.358  -5.293 -11.047  0.00  0.00    -0.002 A 
HETATM   21  C           1     -34.091  -7.830  -9.893  0.00  0.00     0.002 A 
HETATM   22  C           1     -35.286  -7.126  -9.763  0.00  0.00     0.001 A 
HETATM   23  C           1     -35.434  -5.857 -10.334  0.00  0.00     0.014 A 
ENDBRANCH  13  14
ENDBRANCH   1  13
BRANCH   1  24
HETATM   24  N           1     -34.853  -1.325 -10.062  0.00  0.00    -0.066 N 
HETATM   25  H           1     -35.709  -0.729 -10.020  0.00  0.00     0.275 HD
HETATM   26  H           1     -34.051  -0.813  -9.627  0.00  0.00     0.275 HD
HETATM   27  H           1     -35.020  -2.215  -9.540  0.00  0.00     0.275 HD
ENDBRANCH   1  24
TORSDOF 8
ENDMDL
