MODEL 1
REMARK VINA RESULT:      -8.2      0.000      0.000
REMARK  6 active torsions:
REMARK  status: ('A' for Active; 'I' for Inactive)
REMARK    1  A    between atoms: C_1  and  C_21 
REMARK    2  A    between atoms: C_4  and  C_5 
REMARK    3  A    between atoms: C_5  and  C_23 
REMARK    4  A    between atoms: N_9  and  C_23 
REMARK    5  A    between atoms: C_21  and  N_22 
REMARK       I    between atoms: N_22  and  C_24 
REMARK    6  A    between atoms: C_23  and  C_24 
ROOT
HETATM    1  C           1     -21.204  -5.899  -6.952  0.00  0.00     0.278 C 
ENDROOT
BRANCH   1   2
HETATM    2  C           1     -21.195  -5.613  -5.456  0.00  0.00     0.083 C 
BRANCH   2   3
HETATM    3  C           1     -21.236  -6.905  -4.700  0.00  0.00    -0.028 A 
HETATM    4  C           1     -20.947  -8.151  -5.207  0.00  0.00     0.096 A 
HETATM    5  N           1     -21.104  -9.061  -4.196  0.00  0.00    -0.365 N 
HETATM    6  H           1     -20.951 -10.095  -4.289  0.00  0.00     0.165 HD
HETATM    7  C           1     -21.493  -8.424  -3.038  0.00  0.00     0.042 A 
HETATM    8  C           1     -21.584  -7.063  -3.330  0.00  0.00    -0.002 A 
HETATM    9  C           1     -21.769  -8.945  -1.768  0.00  0.00     0.030 A 
HETATM   10  C           1     -21.969  -6.175  -2.307  0.00  0.00     0.014 A 
HETATM   11  C           1     -22.247  -6.678  -1.032  0.00  0.00     0.001 A 
HETATM   12  C           1     -22.148  -8.043  -0.769  0.00  0.00     0.002 A 
ENDBRANCH   2   3
ENDBRANCH   1   2
BRANCH   1  13
HETATM   13  N           1     -19.812  -6.227  -7.407  0.00  0.00    -0.066 N 
HETATM   14  H           1     -19.234  -6.511  -6.583  0.00  0.00     0.275 HD
HETATM   15  H           1     -19.847  -7.013  -8.095  0.00  0.00     0.275 HD
HETATM   16  H           1     -19.387  -5.386  -7.858  0.00  0.00     0.275 HD
ENDBRANCH   1  13
BRANCH   1  17
HETATM   17  C           1     -21.702  -4.684  -7.695  0.00  0.00     0.249 C 
HETATM   18  O           1     -21.646  -3.594  -7.175  0.00  0.00    -0.271 OA
HETATM   19  N           1     -22.216  -4.815  -8.956  0.00  0.00    -0.345 N 
HETATM   20  H           1     -22.263  -5.728  -9.391  0.00  0.00     0.163 HD
BRANCH  19  21
HETATM   21  C           1     -22.694  -3.647  -9.670  0.00  0.00     0.181 C 
HETATM   22  C           1     -21.804  -3.389 -10.877  0.00  0.00     0.043 C 
BRANCH  21  23
HETATM   23  C           1     -24.111  -3.885 -10.131  0.00  0.00     0.196 C 
HETATM   24  O           1     -24.682  -4.965  -9.864  0.00  0.00    -0.646 OA
HETATM   25  O           1     -24.714  -3.003 -10.779  0.00  0.00    -0.646 OA
ENDBRANCH  21  23
ENDBRANCH  19  21
ENDBRANCH   1  17
TORSDOF 6
ENDMDL
MODEL 2
REMARK VINA RESULT:      -7.7      3.408      7.465
REMARK  6 active torsions:
REMARK  status: ('A' for Active; 'I' for Inactive)
REMARK    1  A    between atoms: C_1  and  C_21 
REMARK    2  A    between atoms: C_4  and  C_5 
REMARK    3  A    between atoms: C_5  and  C_23 
REMARK    4  A    between atoms: N_9  and  C_23 
REMARK    5  A    between atoms: C_21  and  N_22 
REMARK       I    between atoms: N_22  and  C_24 
REMARK    6  A    between atoms: C_23  and  C_24 
ROOT
HETATM    1  C           1     -21.332  -6.177  -5.461  0.00  0.00     0.278 C 
ENDROOT
BRANCH   1   2
HETATM    2  C           1     -20.901  -4.887  -6.146  0.00  0.00     0.083 C 
BRANCH   2   3
HETATM    3  C           1     -21.848  -4.573  -7.262  0.00  0.00    -0.028 A 
HETATM    4  C           1     -23.204  -4.375  -7.143  0.00  0.00     0.096 A 
HETATM    5  N           1     -23.701  -4.114  -8.392  0.00  0.00    -0.365 N 
HETATM    6  H           1     -24.710  -3.921  -8.609  0.00  0.00     0.165 HD
HETATM    7  C           1     -22.687  -4.139  -9.323  0.00  0.00     0.042 A 
HETATM    8  C           1     -21.507  -4.427  -8.635  0.00  0.00    -0.002 A 
HETATM    9  C           1     -22.723  -3.932 -10.707  0.00  0.00     0.030 A 
HETATM   10  C           1     -20.304  -4.514  -9.361  0.00  0.00     0.014 A 
HETATM   11  C           1     -20.322  -4.309 -10.745  0.00  0.00     0.001 A 
HETATM   12  C           1     -21.515  -4.022 -11.406  0.00  0.00     0.002 A 
ENDBRANCH   2   3
ENDBRANCH   1   2
BRANCH   1  13
HETATM   13  N           1     -21.541  -5.919  -3.998  0.00  0.00    -0.066 N 
HETATM   14  H           1     -20.706  -6.250  -3.462  0.00  0.00     0.275 HD
HETATM   15  H           1     -21.671  -4.895  -3.840  0.00  0.00     0.275 HD
HETATM   16  H           1     -22.390  -6.434  -3.672  0.00  0.00     0.275 HD
ENDBRANCH   1  13
BRANCH   1  17
HETATM   17  C           1     -20.261  -7.225  -5.638  0.00  0.00     0.249 C 
HETATM   18  O           1     -19.546  -7.198  -6.612  0.00  0.00    -0.271 OA
HETATM   19  N           1     -20.099  -8.205  -4.696  0.00  0.00    -0.345 N 
HETATM   20  H           1     -20.699  -8.227  -3.881  0.00  0.00     0.163 HD
BRANCH  19  21
HETATM   21  C           1     -19.070  -9.211  -4.867  0.00  0.00     0.181 C 
HETATM   22  C           1     -18.288  -9.363  -3.571  0.00  0.00     0.043 C 
BRANCH  21  23
HETATM   23  C           1     -19.711 -10.529  -5.225  0.00  0.00     0.196 C 
HETATM   24  O           1     -20.579 -10.579  -6.123  0.00  0.00    -0.646 OA
HETATM   25  O           1     -19.374 -11.572  -4.624  0.00  0.00    -0.646 OA
ENDBRANCH  21  23
ENDBRANCH  19  21
ENDBRANCH   1  17
TORSDOF 6
ENDMDL
MODEL 3
REMARK VINA RESULT:      -7.7      2.998      7.807
REMARK  6 active torsions:
REMARK  status: ('A' for Active; 'I' for Inactive)
REMARK    1  A    between atoms: C_1  and  C_21 
REMARK    2  A    between atoms: C_4  and  C_5 
REMARK    3  A    between atoms: C_5  and  C_23 
REMARK    4  A    between atoms: N_9  and  C_23 
REMARK    5  A    between atoms: C_21  and  N_22 
REMARK       I    between atoms: N_22  and  C_24 
REMARK    6  A    between atoms: C_23  and  C_24 
ROOT
HETATM    1  C           1     -21.218  -5.450  -5.300  0.00  0.00     0.278 C 
ENDROOT
BRANCH   1   2
HETATM    2  C           1     -20.969  -5.828  -6.754  0.00  0.00     0.083 C 
BRANCH   2   3
HETATM    3  C           1     -21.847  -5.004  -7.643  0.00  0.00    -0.028 A 
HETATM    4  C           1     -23.121  -4.575  -7.352  0.00  0.00     0.096 A 
HETATM    5  N           1     -23.575  -3.853  -8.424  0.00  0.00    -0.365 N 
HETATM    6  H           1     -24.520  -3.399  -8.486  0.00  0.00     0.165 HD
HETATM    7  C           1     -22.614  -3.807  -9.409  0.00  0.00     0.042 A 
HETATM    8  C           1     -21.514  -4.526  -8.941  0.00  0.00    -0.002 A 
HETATM    9  C           1     -22.635  -3.190 -10.666  0.00  0.00     0.030 A 
HETATM   10  C           1     -20.377  -4.638  -9.765  0.00  0.00     0.014 A 
HETATM   11  C           1     -20.381  -4.027 -11.024  0.00  0.00     0.001 A 
HETATM   12  C           1     -21.494  -3.315 -11.465  0.00  0.00     0.002 A 
ENDBRANCH   2   3
ENDBRANCH   1   2
BRANCH   1  13
HETATM   13  N           1     -20.037  -4.688  -4.773  0.00  0.00    -0.066 N 
HETATM   14  H           1     -20.101  -4.623  -3.731  0.00  0.00     0.275 HD
HETATM   15  H           1     -19.157  -5.186  -5.037  0.00  0.00     0.275 HD
HETATM   16  H           1     -20.032  -3.727  -5.183  0.00  0.00     0.275 HD
ENDBRANCH   1  13
BRANCH   1  17
HETATM   17  C           1     -21.416  -6.700  -4.480  0.00  0.00     0.249 C 
HETATM   18  O           1     -21.863  -7.697  -4.998  0.00  0.00    -0.271 OA
HETATM   19  N           1     -21.089  -6.706  -3.151  0.00  0.00    -0.345 N 
HETATM   20  H           1     -20.715  -5.871  -2.718  0.00  0.00     0.163 HD
BRANCH  19  21
HETATM   21  C           1     -21.279  -7.909  -2.363  0.00  0.00     0.181 C 
HETATM   22  C           1     -19.946  -8.622  -2.193  0.00  0.00     0.043 C 
BRANCH  21  23
HETATM   23  C           1     -21.828  -7.539  -1.007  0.00  0.00     0.196 C 
HETATM   24  O           1     -22.725  -6.673  -0.911  0.00  0.00    -0.646 OA
HETATM   25  O           1     -21.386  -8.098   0.019  0.00  0.00    -0.646 OA
ENDBRANCH  21  23
ENDBRANCH  19  21
ENDBRANCH   1  17
TORSDOF 6
ENDMDL
MODEL 4
REMARK VINA RESULT:      -7.6     13.227     15.504
REMARK  6 active torsions:
REMARK  status: ('A' for Active; 'I' for Inactive)
REMARK    1  A    between atoms: C_1  and  C_21 
REMARK    2  A    between atoms: C_4  and  C_5 
REMARK    3  A    between atoms: C_5  and  C_23 
REMARK    4  A    between atoms: N_9  and  C_23 
REMARK    5  A    between atoms: C_21  and  N_22 
REMARK       I    between atoms: N_22  and  C_24 
REMARK    6  A    between atoms: C_23  and  C_24 
ROOT
HETATM    1  C           1     -36.034  -0.349 -11.153  0.00  0.00     0.278 C 
ENDROOT
BRANCH   1   2
HETATM    2  C           1     -36.210  -1.795 -10.710  0.00  0.00     0.083 C 
BRANCH   2   3
HETATM    3  C           1     -34.944  -2.553 -10.959  0.00  0.00    -0.028 A 
HETATM    4  C           1     -33.736  -2.012 -11.335  0.00  0.00     0.096 A 
HETATM    5  N           1     -32.837  -3.038 -11.460  0.00  0.00    -0.365 N 
HETATM    6  H           1     -31.831  -2.926 -11.735  0.00  0.00     0.165 HD
HETATM    7  C           1     -33.444  -4.240 -11.170  0.00  0.00     0.042 A 
HETATM    8  C           1     -34.774  -3.961 -10.852  0.00  0.00    -0.002 A 
HETATM    9  C           1     -32.923  -5.540 -11.167  0.00  0.00     0.030 A 
HETATM   10  C           1     -35.628  -5.028 -10.514  0.00  0.00     0.014 A 
HETATM   11  C           1     -35.123  -6.333 -10.504  0.00  0.00     0.001 A 
HETATM   12  C           1     -33.791  -6.583 -10.827  0.00  0.00     0.002 A 
ENDBRANCH   2   3
ENDBRANCH   1   2
BRANCH   1  13
HETATM   13  N           1     -36.753   0.557 -10.198  0.00  0.00    -0.066 N 
HETATM   14  H           1     -36.056   1.133  -9.672  0.00  0.00     0.275 HD
HETATM   15  H           1     -37.392   1.188 -10.731  0.00  0.00     0.275 HD
HETATM   16  H           1     -37.309  -0.017  -9.525  0.00  0.00     0.275 HD
ENDBRANCH   1  13
BRANCH   1  17
HETATM   17  C           1     -36.605  -0.173 -12.538  0.00  0.00     0.249 C 
HETATM   18  O           1     -37.787  -0.343 -12.730  0.00  0.00    -0.271 OA
HETATM   19  N           1     -35.787   0.179 -13.577  0.00  0.00    -0.345 N 
HETATM   20  H           1     -34.798   0.321 -13.416  0.00  0.00     0.163 HD
BRANCH  19  21
HETATM   21  C           1     -36.337   0.348 -14.908  0.00  0.00     0.181 C 
HETATM   22  C           1     -35.847   1.663 -15.497  0.00  0.00     0.043 C 
BRANCH  21  23
HETATM   23  C           1     -35.888  -0.794 -15.786  0.00  0.00     0.196 C 
HETATM   24  O           1     -35.163  -1.697 -15.314  0.00  0.00    -0.646 OA
HETATM   25  O           1     -36.242  -0.839 -16.984  0.00  0.00    -0.646 OA
ENDBRANCH  21  23
ENDBRANCH  19  21
ENDBRANCH   1  17
TORSDOF 6
ENDMDL
MODEL 5
REMARK VINA RESULT:      -7.4      1.830      2.806
REMARK  6 active torsions:
REMARK  status: ('A' for Active; 'I' for Inactive)
REMARK    1  A    between atoms: C_1  and  C_21 
REMARK    2  A    between atoms: C_4  and  C_5 
REMARK    3  A    between atoms: C_5  and  C_23 
REMARK    4  A    between atoms: N_9  and  C_23 
REMARK    5  A    between atoms: C_21  and  N_22 
REMARK       I    between atoms: N_22  and  C_24 
REMARK    6  A    between atoms: C_23  and  C_24 
ROOT
HETATM    1  C           1     -21.409  -7.125  -5.169  0.00  0.00     0.278 C 
ENDROOT
BRANCH   1   2
HETATM    2  C           1     -20.416  -7.295  -4.027  0.00  0.00     0.083 C 
BRANCH   2   3
HETATM    3  C           1     -21.144  -7.249  -2.720  0.00  0.00    -0.028 A 
HETATM    4  C           1     -21.981  -6.244  -2.293  0.00  0.00     0.096 A 
HETATM    5  N           1     -22.441  -6.582  -1.048  0.00  0.00    -0.365 N 
HETATM    6  H           1     -23.101  -6.003  -0.473  0.00  0.00     0.165 HD
HETATM    7  C           1     -21.913  -7.793  -0.658  0.00  0.00     0.042 A 
HETATM    8  C           1     -21.091  -8.234  -1.695  0.00  0.00    -0.002 A 
HETATM    9  C           1     -22.099  -8.524   0.522  0.00  0.00     0.030 A 
HETATM   10  C           1     -20.419  -9.464  -1.551  0.00  0.00     0.014 A 
HETATM   11  C           1     -20.594 -10.207  -0.379  0.00  0.00     0.001 A 
HETATM   12  C           1     -21.422  -9.742   0.641  0.00  0.00     0.002 A 
ENDBRANCH   2   3
ENDBRANCH   1   2
BRANCH   1  13
HETATM   13  N           1     -21.283  -8.280  -6.117  0.00  0.00    -0.066 N 
HETATM   14  H           1     -20.400  -8.804  -5.914  0.00  0.00     0.275 HD
HETATM   15  H           1     -22.101  -8.919  -5.998  0.00  0.00     0.275 HD
HETATM   16  H           1     -21.258  -7.923  -7.099  0.00  0.00     0.275 HD
ENDBRANCH   1  13
BRANCH   1  17
HETATM   17  C           1     -21.119  -5.839  -5.902  0.00  0.00     0.249 C 
HETATM   18  O           1     -20.621  -4.908  -5.314  0.00  0.00    -0.271 OA
HETATM   19  N           1     -21.419  -5.727  -7.233  0.00  0.00    -0.345 N 
HETATM   20  H           1     -21.837  -6.507  -7.725  0.00  0.00     0.163 HD
BRANCH  19  21
HETATM   21  C           1     -21.140  -4.491  -7.937  0.00  0.00     0.181 C 
HETATM   22  C           1     -20.029  -4.723  -8.950  0.00  0.00     0.043 C 
BRANCH  21  23
HETATM   23  C           1     -22.386  -4.029  -8.654  0.00  0.00     0.196 C 
HETATM   24  O           1     -22.299  -3.511  -9.788  0.00  0.00    -0.646 OA
HETATM   25  O           1     -23.505  -4.167  -8.114  0.00  0.00    -0.646 OA
ENDBRANCH  21  23
ENDBRANCH  19  21
ENDBRANCH   1  17
TORSDOF 6
ENDMDL
MODEL 6
REMARK VINA RESULT:      -7.2      2.052      3.104
REMARK  6 active torsions:
REMARK  status: ('A' for Active; 'I' for Inactive)
REMARK    1  A    between atoms: C_1  and  C_21 
REMARK    2  A    between atoms: C_4  and  C_5 
REMARK    3  A    between atoms: C_5  and  C_23 
REMARK    4  A    between atoms: N_9  and  C_23 
REMARK    5  A    between atoms: C_21  and  N_22 
REMARK       I    between atoms: N_22  and  C_24 
REMARK    6  A    between atoms: C_23  and  C_24 
ROOT
HETATM    1  C           1     -21.175  -8.095  -4.760  0.00  0.00     0.278 C 
ENDROOT
BRANCH   1   2
HETATM    2  C           1     -19.867  -8.291  -4.005  0.00  0.00     0.083 C 
BRANCH   2   3
HETATM    3  C           1     -20.139  -8.973  -2.701  0.00  0.00    -0.028 A 
HETATM    4  C           1     -19.633 -10.189  -2.300  0.00  0.00     0.096 A 
HETATM    5  N           1     -20.124 -10.454  -1.049  0.00  0.00    -0.365 N 
HETATM    6  H           1     -19.906 -11.315  -0.489  0.00  0.00     0.165 HD
HETATM    7  C           1     -20.942  -9.429  -0.631  0.00  0.00     0.042 A 
HETATM    8  C           1     -20.969  -8.482  -1.655  0.00  0.00    -0.002 A 
HETATM    9  C           1     -21.654  -9.269   0.565  0.00  0.00     0.030 A 
HETATM   10  C           1     -21.743  -7.319  -1.483  0.00  0.00     0.014 A 
HETATM   11  C           1     -22.460  -7.143  -0.294  0.00  0.00     0.001 A 
HETATM   12  C           1     -22.415  -8.105   0.713  0.00  0.00     0.002 A 
ENDBRANCH   2   3
ENDBRANCH   1   2
BRANCH   1  13
HETATM   13  N           1     -21.192  -8.983  -5.970  0.00  0.00    -0.066 N 
HETATM   14  H           1     -20.483  -9.743  -5.854  0.00  0.00     0.275 HD
HETATM   15  H           1     -22.141  -9.406  -6.078  0.00  0.00     0.275 HD
HETATM   16  H           1     -20.962  -8.418  -6.818  0.00  0.00     0.275 HD
ENDBRANCH   1  13
BRANCH   1  17
HETATM   17  C           1     -21.298  -6.655  -5.191  0.00  0.00     0.249 C 
HETATM   18  O           1     -21.900  -5.867  -4.501  0.00  0.00    -0.271 OA
HETATM   19  N           1     -20.727  -6.241  -6.364  0.00  0.00    -0.345 N 
HETATM   20  H           1     -20.223  -6.902  -6.943  0.00  0.00     0.163 HD
BRANCH  19  21
HETATM   21  C           1     -20.845  -4.856  -6.779  0.00  0.00     0.181 C 
HETATM   22  C           1     -19.574  -4.431  -7.499  0.00  0.00     0.043 C 
BRANCH  21  23
HETATM   23  C           1     -22.024  -4.711  -7.710  0.00  0.00     0.196 C 
HETATM   24  O           1     -21.879  -4.903  -8.937  0.00  0.00    -0.646 OA
HETATM   25  O           1     -23.145  -4.398  -7.255  0.00  0.00    -0.646 OA
ENDBRANCH  21  23
ENDBRANCH  19  21
ENDBRANCH   1  17
TORSDOF 6
ENDMDL
MODEL 7
REMARK VINA RESULT:      -7.0      3.279      4.681
REMARK  6 active torsions:
REMARK  status: ('A' for Active; 'I' for Inactive)
REMARK    1  A    between atoms: C_1  and  C_21 
REMARK    2  A    between atoms: C_4  and  C_5 
REMARK    3  A    between atoms: C_5  and  C_23 
REMARK    4  A    between atoms: N_9  and  C_23 
REMARK    5  A    between atoms: C_21  and  N_22 
REMARK       I    between atoms: N_22  and  C_24 
REMARK    6  A    between atoms: C_23  and  C_24 
ROOT
HETATM    1  C           1     -19.029  -9.912  -4.277  0.00  0.00     0.278 C 
ENDROOT
BRANCH   1   2
HETATM    2  C           1     -18.831  -9.205  -2.943  0.00  0.00     0.083 C 
BRANCH   2   3
HETATM    3  C           1     -19.870  -9.671  -1.971  0.00  0.00    -0.028 A 
HETATM    4  C           1     -20.018 -10.953  -1.494  0.00  0.00     0.096 A 
HETATM    5  N           1     -21.082 -10.960  -0.631  0.00  0.00    -0.365 N 
HETATM    6  H           1     -21.430 -11.803  -0.113  0.00  0.00     0.165 HD
HETATM    7  C           1     -21.629  -9.699  -0.541  0.00  0.00     0.042 A 
HETATM    8  C           1     -20.883  -8.868  -1.377  0.00  0.00    -0.002 A 
HETATM    9  C           1     -22.717  -9.236   0.209  0.00  0.00     0.030 A 
HETATM   10  C           1     -21.237  -7.508  -1.473  0.00  0.00     0.014 A 
HETATM   11  C           1     -22.322  -7.029  -0.729  0.00  0.00     0.001 A 
HETATM   12  C           1     -23.049  -7.882   0.098  0.00  0.00     0.002 A 
ENDBRANCH   2   3
ENDBRANCH   1   2
BRANCH   1  13
HETATM   13  N           1     -17.731  -9.930  -5.030  0.00  0.00    -0.066 N 
HETATM   14  H           1     -17.727  -9.161  -5.738  0.00  0.00     0.275 HD
HETATM   15  H           1     -16.939  -9.791  -4.362  0.00  0.00     0.275 HD
HETATM   16  H           1     -17.622 -10.850  -5.513  0.00  0.00     0.275 HD
ENDBRANCH   1  13
BRANCH   1  17
HETATM   17  C           1     -20.068  -9.179  -5.087  0.00  0.00     0.249 C 
HETATM   18  O           1     -20.814  -9.796  -5.812  0.00  0.00    -0.271 OA
HETATM   19  N           1     -20.168  -7.817  -5.002  0.00  0.00    -0.345 N 
HETATM   20  H           1     -19.543  -7.301  -4.396  0.00  0.00     0.163 HD
BRANCH  19  21
HETATM   21  C           1     -21.168  -7.113  -5.782  0.00  0.00     0.181 C 
HETATM   22  C           1     -22.259  -6.593  -4.857  0.00  0.00     0.043 C 
BRANCH  21  23
HETATM   23  C           1     -20.521  -5.953  -6.498  0.00  0.00     0.196 C 
HETATM   24  O           1     -20.566  -4.807  -6.000  0.00  0.00    -0.646 OA
HETATM   25  O           1     -19.937  -6.138  -7.588  0.00  0.00    -0.646 OA
ENDBRANCH  21  23
ENDBRANCH  19  21
ENDBRANCH   1  17
TORSDOF 6
ENDMDL
MODEL 8
REMARK VINA RESULT:      -7.0      2.286      4.030
REMARK  6 active torsions:
REMARK  status: ('A' for Active; 'I' for Inactive)
REMARK    1  A    between atoms: C_1  and  C_21 
REMARK    2  A    between atoms: C_4  and  C_5 
REMARK    3  A    between atoms: C_5  and  C_23 
REMARK    4  A    between atoms: N_9  and  C_23 
REMARK    5  A    between atoms: C_21  and  N_22 
REMARK       I    between atoms: N_22  and  C_24 
REMARK    6  A    between atoms: C_23  and  C_24 
ROOT
HETATM    1  C           1     -21.468  -7.941  -4.041  0.00  0.00     0.278 C 
ENDROOT
BRANCH   1   2
HETATM    2  C           1     -20.694  -8.161  -2.748  0.00  0.00     0.083 C 
BRANCH   2   3
HETATM    3  C           1     -21.645  -8.528  -1.652  0.00  0.00    -0.028 A 
HETATM    4  C           1     -21.999  -7.734  -0.586  0.00  0.00     0.096 A 
HETATM    5  N           1     -22.887  -8.438   0.184  0.00  0.00    -0.365 N 
HETATM    6  H           1     -23.330  -8.082   1.066  0.00  0.00     0.165 HD
HETATM    7  C           1     -23.114  -9.679  -0.366  0.00  0.00     0.042 A 
HETATM    8  C           1     -22.342  -9.761  -1.525  0.00  0.00    -0.002 A 
HETATM    9  C           1     -23.936 -10.725   0.070  0.00  0.00     0.030 A 
HETATM   10  C           1     -22.389 -10.944  -2.289  0.00  0.00     0.014 A 
HETATM   11  C           1     -23.206 -11.999  -1.868  0.00  0.00     0.001 A 
HETATM   12  C           1     -23.967 -11.889  -0.706  0.00  0.00     0.002 A 
ENDBRANCH   2   3
ENDBRANCH   1   2
BRANCH   1  13
HETATM   13  N           1     -20.950  -8.871  -5.098  0.00  0.00    -0.066 N 
HETATM   14  H           1     -20.599  -9.748  -4.650  0.00  0.00     0.275 HD
HETATM   15  H           1     -21.721  -9.106  -5.763  0.00  0.00     0.275 HD
HETATM   16  H           1     -20.169  -8.408  -5.617  0.00  0.00     0.275 HD
ENDBRANCH   1  13
BRANCH   1  17
HETATM   17  C           1     -21.292  -6.514  -4.498  0.00  0.00     0.249 C 
HETATM   18  O           1     -21.317  -5.614  -3.691  0.00  0.00    -0.271 OA
HETATM   19  N           1     -21.105  -6.238  -5.825  0.00  0.00    -0.345 N 
HETATM   20  H           1     -21.085  -6.992  -6.501  0.00  0.00     0.163 HD
BRANCH  19  21
HETATM   21  C           1     -20.936  -4.866  -6.263  0.00  0.00     0.181 C 
HETATM   22  C           1     -19.543  -4.688  -6.850  0.00  0.00     0.043 C 
BRANCH  21  23
HETATM   23  C           1     -21.970  -4.544  -7.315  0.00  0.00     0.196 C 
HETATM   24  O           1     -23.184  -4.547  -7.019  0.00  0.00    -0.646 OA
HETATM   25  O           1     -21.611  -4.274  -8.481  0.00  0.00    -0.646 OA
ENDBRANCH  21  23
ENDBRANCH  19  21
ENDBRANCH   1  17
TORSDOF 6
ENDMDL
MODEL 9
REMARK VINA RESULT:      -6.8     12.151     14.451
REMARK  6 active torsions:
REMARK  status: ('A' for Active; 'I' for Inactive)
REMARK    1  A    between atoms: C_1  and  C_21 
REMARK    2  A    between atoms: C_4  and  C_5 
REMARK    3  A    between atoms: C_5  and  C_23 
REMARK    4  A    between atoms: N_9  and  C_23 
REMARK    5  A    between atoms: C_21  and  N_22 
REMARK       I    between atoms: N_22  and  C_24 
REMARK    6  A    between atoms: C_23  and  C_24 
ROOT
HETATM    1  C           1     -29.504  -6.606 -16.656  0.00  0.00     0.278 C 
ENDROOT
BRANCH   1   2
HETATM    2  C           1     -28.552  -5.562 -17.225  0.00  0.00     0.083 C 
BRANCH   2   3
HETATM    3  C           1     -27.159  -6.110 -17.235  0.00  0.00    -0.028 A 
HETATM    4  C           1     -26.386  -6.384 -16.130  0.00  0.00     0.096 A 
HETATM    5  N           1     -25.182  -6.867 -16.569  0.00  0.00    -0.365 N 
HETATM    6  H           1     -24.391  -7.162 -15.946  0.00  0.00     0.165 HD
HETATM    7  C           1     -25.160  -6.910 -17.945  0.00  0.00     0.042 A 
HETATM    8  C           1     -26.395  -6.437 -18.390  0.00  0.00    -0.002 A 
HETATM    9  C           1     -24.150  -7.327 -18.821  0.00  0.00     0.030 A 
HETATM   10  C           1     -26.637  -6.375 -19.776  0.00  0.00     0.014 A 
HETATM   11  C           1     -25.640  -6.789 -20.665  0.00  0.00     0.001 A 
HETATM   12  C           1     -24.415  -7.257 -20.193  0.00  0.00     0.002 A 
ENDBRANCH   2   3
ENDBRANCH   1   2
BRANCH   1  13
HETATM   13  N           1     -29.241  -7.931 -17.310  0.00  0.00    -0.066 N 
HETATM   14  H           1     -29.991  -8.129 -18.012  0.00  0.00     0.275 HD
HETATM   15  H           1     -28.314  -7.903 -17.791  0.00  0.00     0.275 HD
HETATM   16  H           1     -29.236  -8.682 -16.583  0.00  0.00     0.275 HD
ENDBRANCH   1  13
BRANCH   1  17
HETATM   17  C           1     -30.928  -6.188 -16.924  0.00  0.00     0.249 C 
HETATM   18  O           1     -31.625  -6.852 -17.656  0.00  0.00    -0.271 OA
HETATM   19  N           1     -31.433  -5.059 -16.339  0.00  0.00    -0.345 N 
HETATM   20  H           1     -30.849  -4.503 -15.726  0.00  0.00     0.163 HD
BRANCH  19  21
HETATM   21  C           1     -32.802  -4.658 -16.597  0.00  0.00     0.181 C 
HETATM   22  C           1     -33.539  -4.488 -15.276  0.00  0.00     0.043 C 
BRANCH  21  23
HETATM   23  C           1     -32.809  -3.349 -17.348  0.00  0.00     0.196 C 
HETATM   24  O           1     -33.824  -2.620 -17.325  0.00  0.00    -0.646 OA
HETATM   25  O           1     -31.798  -2.993 -17.992  0.00  0.00    -0.646 OA
ENDBRANCH  21  23
ENDBRANCH  19  21
ENDBRANCH   1  17
TORSDOF 6
ENDMDL
