MODEL 1
REMARK VINA RESULT:      -6.6      0.000      0.000
REMARK  8 active torsions:
REMARK  status: ('A' for Active; 'I' for Inactive)
REMARK    1  A    between atoms: C_1  and  C_12 
REMARK       I    between atoms: C_1  and  N_9 
REMARK    2  A    between atoms: N_6  and  C_13 
REMARK       I    between atoms: C_7  and  N_21 
REMARK    3  A    between atoms: C_7  and  C_13 
REMARK    4  A    between atoms: C_12  and  C_13 
REMARK    5  A    between atoms: C_14  and  C_22 
REMARK    6  A    between atoms: C_14  and  C_15 
REMARK    7  A    between atoms: C_15  and  C_16 
REMARK    8  A    between atoms: C_15  and  N_21 
ROOT
HETATM    1  O           1     -37.445  -0.753 -13.140  0.00  0.00    -0.271 OA
HETATM    2  C           1     -36.323  -0.324 -13.015  0.00  0.00     0.249 C 
HETATM    3  H           1     -34.635  -0.313 -11.817  0.00  0.00     0.163 HD
HETATM    4  N           1     -35.576  -0.672 -11.923  0.00  0.00    -0.344 N 
ENDROOT
BRANCH   2   5
HETATM    5  C           1     -35.744   0.594 -14.063  0.00  0.00     0.283 C 
BRANCH   5   6
HETATM    6  N           1     -34.412   1.105 -13.602  0.00  0.00    -0.066 N 
HETATM    7  H           1     -33.673   0.813 -14.280  0.00  0.00     0.275 HD
HETATM    8  H           1     -34.440   2.148 -13.543  0.00  0.00     0.275 HD
HETATM    9  H           1     -34.196   0.708 -12.659  0.00  0.00     0.275 HD
ENDBRANCH   5   6
BRANCH   5  10
HETATM   10  C           1     -35.570  -0.171 -15.369  0.00  0.00     0.145 C 
BRANCH  10  11
HETATM   11  C           1     -36.829  -0.056 -16.192  0.00  0.00     0.217 C 
HETATM   12  N           1     -37.731   0.941 -15.928  0.00  0.00    -0.370 N 
HETATM   13  H           1     -38.575   1.018 -16.479  0.00  0.00     0.159 HD
HETATM   14  H           1     -37.552   1.599 -15.181  0.00  0.00     0.159 HD
HETATM   15  O           1     -37.042  -0.842 -17.083  0.00  0.00    -0.274 OA
ENDBRANCH  10  11
ENDBRANCH   5  10
ENDBRANCH   2   5
BRANCH   4  16
HETATM   16  C           1     -36.131  -1.555 -10.915  0.00  0.00     0.189 C 
BRANCH  16  17
HETATM   17  C           1     -35.058  -2.530 -10.448  0.00  0.00     0.014 C 
HETATM   18  C           1     -35.437  -3.942 -10.875  0.00  0.00     0.012 C 
BRANCH  17  19
HETATM   19  C           1     -33.722  -2.151 -11.073  0.00  0.00     0.002 C 
HETATM   20  C           1     -32.969  -3.415 -11.467  0.00  0.00     0.005 C 
ENDBRANCH  17  19
ENDBRANCH  16  17
BRANCH  16  21
HETATM   21  C           1     -36.614  -0.738  -9.743  0.00  0.00     0.197 C 
HETATM   22  O           1     -37.827  -0.461  -9.631  0.00  0.00    -0.646 OA
HETATM   23  O           1     -35.801  -0.337  -8.882  0.00  0.00    -0.646 OA
ENDBRANCH  16  21
ENDBRANCH   4  16
TORSDOF 8
ENDMDL
MODEL 2
REMARK VINA RESULT:      -6.4     11.640     13.135
REMARK  8 active torsions:
REMARK  status: ('A' for Active; 'I' for Inactive)
REMARK    1  A    between atoms: C_1  and  C_12 
REMARK       I    between atoms: C_1  and  N_9 
REMARK    2  A    between atoms: N_6  and  C_13 
REMARK       I    between atoms: C_7  and  N_21 
REMARK    3  A    between atoms: C_7  and  C_13 
REMARK    4  A    between atoms: C_12  and  C_13 
REMARK    5  A    between atoms: C_14  and  C_22 
REMARK    6  A    between atoms: C_14  and  C_15 
REMARK    7  A    between atoms: C_15  and  C_16 
REMARK    8  A    between atoms: C_15  and  N_21 
ROOT
HETATM    1  O           1     -24.895  -6.335 -18.415  0.00  0.00    -0.271 OA
HETATM    2  C           1     -25.917  -6.828 -18.828  0.00  0.00     0.249 C 
HETATM    3  H           1     -27.941  -7.083 -18.476  0.00  0.00     0.163 HD
HETATM    4  N           1     -27.084  -6.671 -18.130  0.00  0.00    -0.344 N 
ENDROOT
BRANCH   2   5
HETATM    5  C           1     -25.909  -7.615 -20.116  0.00  0.00     0.283 C 
BRANCH   5   6
HETATM    6  N           1     -27.294  -7.651 -20.689  0.00  0.00    -0.066 N 
HETATM    7  H           1     -27.269  -7.330 -21.683  0.00  0.00     0.275 HD
HETATM    8  H           1     -27.663  -8.628 -20.648  0.00  0.00     0.275 HD
HETATM    9  H           1     -27.916  -7.020 -20.135  0.00  0.00     0.275 HD
ENDBRANCH   5   6
BRANCH   5  10
HETATM   10  C           1     -24.965  -6.952 -21.111  0.00  0.00     0.145 C 
BRANCH  10  11
HETATM   11  C           1     -24.064  -7.996 -21.722  0.00  0.00     0.217 C 
HETATM   12  N           1     -23.149  -8.652 -20.942  0.00  0.00    -0.370 N 
HETATM   13  H           1     -22.544  -9.352 -21.353  0.00  0.00     0.159 HD
HETATM   14  H           1     -23.077  -8.436 -19.957  0.00  0.00     0.159 HD
HETATM   15  O           1     -24.150  -8.253 -22.899  0.00  0.00    -0.274 OA
ENDBRANCH  10  11
ENDBRANCH   5  10
ENDBRANCH   2   5
BRANCH   4  16
HETATM   16  C           1     -27.093  -5.913 -16.893  0.00  0.00     0.189 C 
BRANCH  16  17
HETATM   17  C           1     -28.435  -5.212 -16.737  0.00  0.00     0.014 C 
HETATM   18  C           1     -28.233  -3.705 -16.829  0.00  0.00     0.012 C 
BRANCH  17  19
HETATM   19  C           1     -29.377  -5.668 -17.843  0.00  0.00     0.002 C 
HETATM   20  C           1     -30.576  -6.377 -17.229  0.00  0.00     0.005 C 
ENDBRANCH  17  19
ENDBRANCH  16  17
BRANCH  16  21
HETATM   21  C           1     -26.875  -6.849 -15.730  0.00  0.00     0.197 C 
HETATM   22  O           1     -27.855  -7.346 -15.135  0.00  0.00    -0.646 OA
HETATM   23  O           1     -25.714  -7.129 -15.361  0.00  0.00    -0.646 OA
ENDBRANCH  16  21
ENDBRANCH   4  16
TORSDOF 8
ENDMDL
MODEL 3
REMARK VINA RESULT:      -6.3      2.930      5.511
REMARK  8 active torsions:
REMARK  status: ('A' for Active; 'I' for Inactive)
REMARK    1  A    between atoms: C_1  and  C_12 
REMARK       I    between atoms: C_1  and  N_9 
REMARK    2  A    between atoms: N_6  and  C_13 
REMARK       I    between atoms: C_7  and  N_21 
REMARK    3  A    between atoms: C_7  and  C_13 
REMARK    4  A    between atoms: C_12  and  C_13 
REMARK    5  A    between atoms: C_14  and  C_22 
REMARK    6  A    between atoms: C_14  and  C_15 
REMARK    7  A    between atoms: C_15  and  C_16 
REMARK    8  A    between atoms: C_15  and  N_21 
ROOT
HETATM    1  O           1     -33.336  -1.969 -10.854  0.00  0.00    -0.271 OA
HETATM    2  C           1     -34.000  -2.599 -11.641  0.00  0.00     0.249 C 
HETATM    3  H           1     -35.537  -2.503 -13.024  0.00  0.00     0.163 HD
HETATM    4  N           1     -34.980  -1.975 -12.363  0.00  0.00    -0.344 N 
ENDROOT
BRANCH   2   5
HETATM    5  C           1     -33.747  -4.075 -11.829  0.00  0.00     0.283 C 
BRANCH   5   6
HETATM    6  N           1     -32.309  -4.294 -12.194  0.00  0.00    -0.066 N 
HETATM    7  H           1     -31.696  -3.811 -11.501  0.00  0.00     0.275 HD
HETATM    8  H           1     -32.101  -5.319 -12.189  0.00  0.00     0.275 HD
HETATM    9  H           1     -32.130  -3.907 -13.148  0.00  0.00     0.275 HD
ENDBRANCH   5   6
BRANCH   5  10
HETATM   10  C           1     -34.060  -4.814 -10.534  0.00  0.00     0.145 C 
BRANCH  10  11
HETATM   11  C           1     -34.539  -6.208 -10.853  0.00  0.00     0.217 C 
HETATM   12  N           1     -34.938  -6.521 -12.126  0.00  0.00    -0.370 N 
HETATM   13  H           1     -35.260  -7.455 -12.340  0.00  0.00     0.159 HD
HETATM   14  H           1     -34.911  -5.816 -12.851  0.00  0.00     0.159 HD
HETATM   15  O           1     -34.572  -7.049  -9.987  0.00  0.00    -0.274 OA
ENDBRANCH  10  11
ENDBRANCH   5  10
ENDBRANCH   2   5
BRANCH   4  16
HETATM   16  C           1     -35.223  -0.557 -12.183  0.00  0.00     0.189 C 
BRANCH  16  17
HETATM   17  C           1     -35.566   0.074 -13.526  0.00  0.00     0.014 C 
HETATM   18  C           1     -34.596   1.212 -13.814  0.00  0.00     0.012 C 
BRANCH  17  19
HETATM   19  C           1     -35.456  -0.977 -14.622  0.00  0.00     0.002 C 
HETATM   20  C           1     -35.938  -0.387 -15.941  0.00  0.00     0.005 C 
ENDBRANCH  17  19
ENDBRANCH  16  17
BRANCH  16  21
HETATM   21  C           1     -36.373  -0.362 -11.226  0.00  0.00     0.197 C 
HETATM   22  O           1     -37.373  -1.108 -11.291  0.00  0.00    -0.646 OA
HETATM   23  O           1     -36.327   0.546 -10.369  0.00  0.00    -0.646 OA
ENDBRANCH  16  21
ENDBRANCH   4  16
TORSDOF 8
ENDMDL
MODEL 4
REMARK VINA RESULT:      -6.2      9.712     11.280
REMARK  8 active torsions:
REMARK  status: ('A' for Active; 'I' for Inactive)
REMARK    1  A    between atoms: C_1  and  C_12 
REMARK       I    between atoms: C_1  and  N_9 
REMARK    2  A    between atoms: N_6  and  C_13 
REMARK       I    between atoms: C_7  and  N_21 
REMARK    3  A    between atoms: C_7  and  C_13 
REMARK    4  A    between atoms: C_12  and  C_13 
REMARK    5  A    between atoms: C_14  and  C_22 
REMARK    6  A    between atoms: C_14  and  C_15 
REMARK    7  A    between atoms: C_15  and  C_16 
REMARK    8  A    between atoms: C_15  and  N_21 
ROOT
HETATM    1  O           1     -28.984  -6.993 -16.879  0.00  0.00    -0.271 OA
HETATM    2  C           1     -28.648  -5.850 -17.077  0.00  0.00     0.249 C 
HETATM    3  H           1     -27.068  -4.609 -17.575  0.00  0.00     0.163 HD
HETATM    4  N           1     -27.350  -5.567 -17.408  0.00  0.00    -0.344 N 
ENDROOT
BRANCH   2   5
HETATM    5  C           1     -29.658  -4.736 -16.961  0.00  0.00     0.283 C 
BRANCH   5   6
HETATM    6  N           1     -29.335  -3.662 -17.957  0.00  0.00    -0.066 N 
HETATM    7  H           1     -29.820  -2.778 -17.687  0.00  0.00     0.275 HD
HETATM    8  H           1     -28.302  -3.502 -17.974  0.00  0.00     0.275 HD
HETATM    9  H           1     -29.657  -3.960 -18.906  0.00  0.00     0.275 HD
ENDBRANCH   5   6
BRANCH   5  10
HETATM   10  C           1     -31.052  -5.283 -17.239  0.00  0.00     0.145 C 
BRANCH  10  11
HETATM   11  C           1     -32.082  -4.233 -16.899  0.00  0.00     0.217 C 
HETATM   12  N           1     -32.901  -4.405 -15.814  0.00  0.00    -0.370 N 
HETATM   13  H           1     -33.592  -3.701 -15.586  0.00  0.00     0.159 HD
HETATM   14  H           1     -32.816  -5.235 -15.243  0.00  0.00     0.159 HD
HETATM   15  O           1     -32.183  -3.243 -17.581  0.00  0.00    -0.274 OA
ENDBRANCH  10  11
ENDBRANCH   5  10
ENDBRANCH   2   5
BRANCH   4  16
HETATM   16  C           1     -26.379  -6.638 -17.520  0.00  0.00     0.189 C 
BRANCH  16  17
HETATM   17  C           1     -25.507  -6.405 -18.747  0.00  0.00     0.014 C 
HETATM   18  C           1     -24.273  -7.294 -18.667  0.00  0.00     0.012 C 
BRANCH  17  19
HETATM   19  C           1     -26.298  -6.746 -20.003  0.00  0.00     0.002 C 
HETATM   20  C           1     -25.456  -7.637 -20.907  0.00  0.00     0.005 C 
ENDBRANCH  17  19
ENDBRANCH  16  17
BRANCH  16  21
HETATM   21  C           1     -25.514  -6.662 -16.284  0.00  0.00     0.197 C 
HETATM   22  O           1     -24.992  -5.607 -15.865  0.00  0.00    -0.646 OA
HETATM   23  O           1     -25.319  -7.738 -15.679  0.00  0.00    -0.646 OA
ENDBRANCH  16  21
ENDBRANCH   4  16
TORSDOF 8
ENDMDL
MODEL 5
REMARK VINA RESULT:      -6.1      4.543      5.419
REMARK  8 active torsions:
REMARK  status: ('A' for Active; 'I' for Inactive)
REMARK    1  A    between atoms: C_1  and  C_12 
REMARK       I    between atoms: C_1  and  N_9 
REMARK    2  A    between atoms: N_6  and  C_13 
REMARK       I    between atoms: C_7  and  N_21 
REMARK    3  A    between atoms: C_7  and  C_13 
REMARK    4  A    between atoms: C_12  and  C_13 
REMARK    5  A    between atoms: C_14  and  C_22 
REMARK    6  A    between atoms: C_14  and  C_15 
REMARK    7  A    between atoms: C_15  and  C_16 
REMARK    8  A    between atoms: C_15  and  N_21 
ROOT
HETATM    1  O           1     -35.013  -5.007 -15.530  0.00  0.00    -0.271 OA
HETATM    2  C           1     -33.907  -4.529 -15.449  0.00  0.00     0.249 C 
HETATM    3  H           1     -32.534  -3.634 -14.184  0.00  0.00     0.163 HD
HETATM    4  N           1     -33.462  -4.034 -14.253  0.00  0.00    -0.344 N 
ENDROOT
BRANCH   2   5
HETATM    5  C           1     -33.016  -4.479 -16.665  0.00  0.00     0.283 C 
BRANCH   5   6
HETATM    6  N           1     -33.232  -3.185 -17.391  0.00  0.00    -0.066 N 
HETATM    7  H           1     -34.254  -3.042 -17.553  0.00  0.00     0.275 HD
HETATM    8  H           1     -32.857  -2.396 -16.817  0.00  0.00     0.275 HD
HETATM    9  H           1     -32.734  -3.214 -18.310  0.00  0.00     0.275 HD
ENDBRANCH   5   6
BRANCH   5  10
HETATM   10  C           1     -31.559  -4.580 -16.232  0.00  0.00     0.145 C 
BRANCH  10  11
HETATM   11  C           1     -30.671  -4.020 -17.316  0.00  0.00     0.217 C 
HETATM   12  N           1     -30.051  -4.866 -18.197  0.00  0.00    -0.370 N 
HETATM   13  H           1     -29.455  -4.490 -18.924  0.00  0.00     0.159 HD
HETATM   14  H           1     -30.188  -5.865 -18.120  0.00  0.00     0.159 HD
HETATM   15  O           1     -30.508  -2.828 -17.407  0.00  0.00    -0.274 OA
ENDBRANCH  10  11
ENDBRANCH   5  10
ENDBRANCH   2   5
BRANCH   4  16
HETATM   16  C           1     -34.318  -4.083 -13.083  0.00  0.00     0.189 C 
BRANCH  16  17
HETATM   17  C           1     -33.481  -4.416 -11.856  0.00  0.00     0.014 C 
HETATM   18  C           1     -32.816  -3.148 -11.337  0.00  0.00     0.012 C 
BRANCH  17  19
HETATM   19  C           1     -34.378  -5.000 -10.773  0.00  0.00     0.002 C 
HETATM   20  C           1     -34.125  -6.497 -10.656  0.00  0.00     0.005 C 
ENDBRANCH  17  19
ENDBRANCH  16  17
BRANCH  16  21
HETATM   21  C           1     -34.982  -2.742 -12.892  0.00  0.00     0.197 C 
HETATM   22  O           1     -34.731  -1.802 -13.676  0.00  0.00    -0.646 OA
HETATM   23  O           1     -35.784  -2.570 -11.949  0.00  0.00    -0.646 OA
ENDBRANCH  16  21
ENDBRANCH   4  16
TORSDOF 8
ENDMDL
MODEL 6
REMARK VINA RESULT:      -5.9      1.871      2.429
REMARK  8 active torsions:
REMARK  status: ('A' for Active; 'I' for Inactive)
REMARK    1  A    between atoms: C_1  and  C_12 
REMARK       I    between atoms: C_1  and  N_9 
REMARK    2  A    between atoms: N_6  and  C_13 
REMARK       I    between atoms: C_7  and  N_21 
REMARK    3  A    between atoms: C_7  and  C_13 
REMARK    4  A    between atoms: C_12  and  C_13 
REMARK    5  A    between atoms: C_14  and  C_22 
REMARK    6  A    between atoms: C_14  and  C_15 
REMARK    7  A    between atoms: C_15  and  C_16 
REMARK    8  A    between atoms: C_15  and  N_21 
ROOT
HETATM    1  O           1     -36.494  -0.462 -11.508  0.00  0.00    -0.271 OA
HETATM    2  C           1     -35.992  -0.851 -12.535  0.00  0.00     0.249 C 
HETATM    3  H           1     -34.828  -2.327 -13.402  0.00  0.00     0.163 HD
HETATM    4  N           1     -35.248  -2.000 -12.541  0.00  0.00    -0.344 N 
ENDROOT
BRANCH   2   5
HETATM    5  C           1     -36.186  -0.071 -13.812  0.00  0.00     0.283 C 
BRANCH   5   6
HETATM    6  N           1     -35.228  -0.568 -14.853  0.00  0.00    -0.066 N 
HETATM    7  H           1     -34.394   0.060 -14.888  0.00  0.00     0.275 HD
HETATM    8  H           1     -34.922  -1.539 -14.610  0.00  0.00     0.275 HD
HETATM    9  H           1     -35.699  -0.574 -15.785  0.00  0.00     0.275 HD
ENDBRANCH   5   6
BRANCH   5  10
HETATM   10  C           1     -37.615  -0.257 -14.308  0.00  0.00     0.145 C 
BRANCH  10  11
HETATM   11  C           1     -37.720   0.230 -15.733  0.00  0.00     0.217 C 
HETATM   12  N           1     -37.988   1.549 -15.987  0.00  0.00    -0.370 N 
HETATM   13  H           1     -38.059   1.875 -16.942  0.00  0.00     0.159 HD
HETATM   14  H           1     -38.116   2.196 -15.220  0.00  0.00     0.159 HD
HETATM   15  O           1     -37.567  -0.542 -16.648  0.00  0.00    -0.274 OA
ENDBRANCH  10  11
ENDBRANCH   5  10
ENDBRANCH   2   5
BRANCH   4  16
HETATM   16  C           1     -35.062  -2.750 -11.313  0.00  0.00     0.189 C 
BRANCH  16  17
HETATM   17  C           1     -34.934  -4.232 -11.639  0.00  0.00     0.014 C 
HETATM   18  C           1     -34.340  -4.394 -13.032  0.00  0.00     0.012 C 
BRANCH  17  19
HETATM   19  C           1     -34.024  -4.899 -10.618  0.00  0.00     0.002 C 
HETATM   20  C           1     -34.629  -6.230 -10.190  0.00  0.00     0.005 C 
ENDBRANCH  17  19
ENDBRANCH  16  17
BRANCH  16  21
HETATM   21  C           1     -33.809  -2.276 -10.621  0.00  0.00     0.197 C 
HETATM   22  O           1     -33.890  -1.633  -9.552  0.00  0.00    -0.646 OA
HETATM   23  O           1     -32.688  -2.524 -11.116  0.00  0.00    -0.646 OA
ENDBRANCH  16  21
ENDBRANCH   4  16
TORSDOF 8
ENDMDL
MODEL 7
REMARK VINA RESULT:      -5.9     11.374     12.946
REMARK  8 active torsions:
REMARK  status: ('A' for Active; 'I' for Inactive)
REMARK    1  A    between atoms: C_1  and  C_12 
REMARK       I    between atoms: C_1  and  N_9 
REMARK    2  A    between atoms: N_6  and  C_13 
REMARK       I    between atoms: C_7  and  N_21 
REMARK    3  A    between atoms: C_7  and  C_13 
REMARK    4  A    between atoms: C_12  and  C_13 
REMARK    5  A    between atoms: C_14  and  C_22 
REMARK    6  A    between atoms: C_14  and  C_15 
REMARK    7  A    between atoms: C_15  and  C_16 
REMARK    8  A    between atoms: C_15  and  N_21 
ROOT
HETATM    1  O           1     -27.208  -5.848 -20.428  0.00  0.00    -0.271 OA
HETATM    2  C           1     -26.515  -6.312 -19.555  0.00  0.00     0.249 C 
HETATM    3  H           1     -26.369  -6.688 -17.525  0.00  0.00     0.163 HD
HETATM    4  N           1     -26.950  -6.299 -18.257  0.00  0.00    -0.344 N 
ENDROOT
BRANCH   2   5
HETATM    5  C           1     -25.170  -6.906 -19.894  0.00  0.00     0.283 C 
BRANCH   5   6
HETATM    6  N           1     -24.527  -7.434 -18.647  0.00  0.00    -0.066 N 
HETATM    7  H           1     -24.562  -8.478 -18.650  0.00  0.00     0.275 HD
HETATM    8  H           1     -23.531  -7.119 -18.608  0.00  0.00     0.275 HD
HETATM    9  H           1     -25.040  -7.071 -17.811  0.00  0.00     0.275 HD
ENDBRANCH   5   6
BRANCH   5  10
HETATM   10  C           1     -25.355  -8.044 -20.890  0.00  0.00     0.145 C 
BRANCH  10  11
HETATM   11  C           1     -24.104  -8.193 -21.721  0.00  0.00     0.217 C 
HETATM   12  N           1     -23.005  -8.821 -21.197  0.00  0.00    -0.370 N 
HETATM   13  H           1     -22.167  -8.920 -21.755  0.00  0.00     0.159 HD
HETATM   14  H           1     -23.033  -9.184 -20.254  0.00  0.00     0.159 HD
HETATM   15  O           1     -24.073  -7.760 -22.847  0.00  0.00    -0.274 OA
ENDBRANCH  10  11
ENDBRANCH   5  10
ENDBRANCH   2   5
BRANCH   4  16
HETATM   16  C           1     -28.243  -5.728 -17.930  0.00  0.00     0.189 C 
BRANCH  16  17
HETATM   17  C           1     -29.137  -6.807 -17.335  0.00  0.00     0.014 C 
HETATM   18  C           1     -30.370  -6.159 -16.719  0.00  0.00     0.012 C 
BRANCH  17  19
HETATM   19  C           1     -29.565  -7.773 -18.431  0.00  0.00     0.002 C 
HETATM   20  C           1     -31.075  -7.700 -18.612  0.00  0.00     0.005 C 
ENDBRANCH  17  19
ENDBRANCH  16  17
BRANCH  16  21
HETATM   21  C           1     -28.061  -4.615 -16.929  0.00  0.00     0.197 C 
HETATM   22  O           1     -28.436  -3.456 -17.208  0.00  0.00    -0.646 OA
HETATM   23  O           1     -27.534  -4.850 -15.821  0.00  0.00    -0.646 OA
ENDBRANCH  16  21
ENDBRANCH   4  16
TORSDOF 8
ENDMDL
MODEL 8
REMARK VINA RESULT:      -5.7     13.154     15.955
REMARK  8 active torsions:
REMARK  status: ('A' for Active; 'I' for Inactive)
REMARK    1  A    between atoms: C_1  and  C_12 
REMARK       I    between atoms: C_1  and  N_9 
REMARK    2  A    between atoms: N_6  and  C_13 
REMARK       I    between atoms: C_7  and  N_21 
REMARK    3  A    between atoms: C_7  and  C_13 
REMARK    4  A    between atoms: C_12  and  C_13 
REMARK    5  A    between atoms: C_14  and  C_22 
REMARK    6  A    between atoms: C_14  and  C_15 
REMARK    7  A    between atoms: C_15  and  C_16 
REMARK    8  A    between atoms: C_15  and  N_21 
ROOT
HETATM    1  O           1     -21.652  -3.462  -7.456  0.00  0.00    -0.271 OA
HETATM    2  C           1     -21.816  -4.600  -7.827  0.00  0.00     0.249 C 
HETATM    3  H           1     -22.560  -5.799  -9.341  0.00  0.00     0.163 HD
HETATM    4  N           1     -22.424  -4.846  -9.028  0.00  0.00    -0.344 N 
ENDROOT
BRANCH   2   5
HETATM    5  C           1     -21.348  -5.749  -6.968  0.00  0.00     0.283 C 
BRANCH   5   6
HETATM    6  N           1     -20.003  -6.213  -7.442  0.00  0.00    -0.066 N 
HETATM    7  H           1     -19.304  -6.096  -6.675  0.00  0.00     0.275 HD
HETATM    8  H           1     -20.058  -7.221  -7.712  0.00  0.00     0.275 HD
HETATM    9  H           1     -19.711  -5.645  -8.269  0.00  0.00     0.275 HD
ENDBRANCH   5   6
BRANCH   5  10
HETATM   10  C           1     -21.246  -5.291  -5.519  0.00  0.00     0.145 C 
BRANCH  10  11
HETATM   11  C           1     -21.678  -6.412  -4.606  0.00  0.00     0.217 C 
HETATM   12  N           1     -22.035  -6.140  -3.311  0.00  0.00    -0.370 N 
HETATM   13  H           1     -22.325  -6.892  -2.699  0.00  0.00     0.159 HD
HETATM   14  H           1     -22.009  -5.189  -2.969  0.00  0.00     0.159 HD
HETATM   15  O           1     -21.709  -7.547  -5.015  0.00  0.00    -0.274 OA
ENDBRANCH  10  11
ENDBRANCH   5  10
ENDBRANCH   2   5
BRANCH   4  16
HETATM   16  C           1     -22.873  -3.742  -9.855  0.00  0.00     0.189 C 
BRANCH  16  17
HETATM   17  C           1     -22.081  -3.728 -11.156  0.00  0.00     0.014 C 
HETATM   18  C           1     -21.286  -2.433 -11.251  0.00  0.00     0.012 C 
BRANCH  17  19
HETATM   19  C           1     -21.127  -4.913 -11.182  0.00  0.00     0.002 C 
HETATM   20  C           1     -19.726  -4.447 -10.807  0.00  0.00     0.005 C 
ENDBRANCH  17  19
ENDBRANCH  16  17
BRANCH  16  21
HETATM   21  C           1     -24.341  -3.908 -10.159  0.00  0.00     0.197 C 
HETATM   22  O           1     -24.967  -4.889  -9.704  0.00  0.00    -0.646 OA
HETATM   23  O           1     -24.932  -3.064 -10.867  0.00  0.00    -0.646 OA
ENDBRANCH  16  21
ENDBRANCH   4  16
TORSDOF 8
ENDMDL
MODEL 9
REMARK VINA RESULT:      -5.7     14.685     16.948
REMARK  8 active torsions:
REMARK  status: ('A' for Active; 'I' for Inactive)
REMARK    1  A    between atoms: C_1  and  C_12 
REMARK       I    between atoms: C_1  and  N_9 
REMARK    2  A    between atoms: N_6  and  C_13 
REMARK       I    between atoms: C_7  and  N_21 
REMARK    3  A    between atoms: C_7  and  C_13 
REMARK    4  A    between atoms: C_12  and  C_13 
REMARK    5  A    between atoms: C_14  and  C_22 
REMARK    6  A    between atoms: C_14  and  C_15 
REMARK    7  A    between atoms: C_15  and  C_16 
REMARK    8  A    between atoms: C_15  and  N_21 
ROOT
HETATM    1  O           1     -19.965  -4.907  -6.037  0.00  0.00    -0.271 OA
HETATM    2  C           1     -21.122  -5.235  -6.143  0.00  0.00     0.249 C 
HETATM    3  H           1     -22.552  -6.619  -5.573  0.00  0.00     0.163 HD
HETATM    4  N           1     -21.582  -6.344  -5.485  0.00  0.00    -0.344 N 
ENDROOT
BRANCH   2   5
HETATM    5  C           1     -22.062  -4.422  -6.999  0.00  0.00     0.283 C 
BRANCH   5   6
HETATM    6  N           1     -21.570  -3.008  -7.079  0.00  0.00    -0.066 N 
HETATM    7  H           1     -22.122  -2.485  -7.794  0.00  0.00     0.275 HD
HETATM    8  H           1     -21.682  -2.547  -6.147  0.00  0.00     0.275 HD
HETATM    9  H           1     -20.560  -3.006  -7.348  0.00  0.00     0.275 HD
ENDBRANCH   5   6
BRANCH   5  10
HETATM   10  C           1     -22.117  -5.019  -8.400  0.00  0.00     0.145 C 
BRANCH  10  11
HETATM   11  C           1     -22.986  -4.155  -9.281  0.00  0.00     0.217 C 
HETATM   12  N           1     -24.348  -4.186  -9.140  0.00  0.00    -0.370 N 
HETATM   13  H           1     -24.930  -3.607  -9.731  0.00  0.00     0.159 HD
HETATM   14  H           1     -24.771  -4.788  -8.446  0.00  0.00     0.159 HD
HETATM   15  O           1     -22.481  -3.437 -10.109  0.00  0.00    -0.274 OA
ENDBRANCH  10  11
ENDBRANCH   5  10
ENDBRANCH   2   5
BRANCH   4  16
HETATM   16  C           1     -20.680  -7.125  -4.661  0.00  0.00     0.189 C 
BRANCH  16  17
HETATM   17  C           1     -21.379  -7.507  -3.364  0.00  0.00     0.014 C 
HETATM   18  C           1     -20.401  -8.242  -2.457  0.00  0.00     0.012 C 
BRANCH  17  19
HETATM   19  C           1     -21.873  -6.248  -2.664  0.00  0.00     0.002 C 
HETATM   20  C           1     -22.306  -6.591  -1.245  0.00  0.00     0.005 C 
ENDBRANCH  17  19
ENDBRANCH  16  17
BRANCH  16  21
HETATM   21  C           1     -20.278  -8.375  -5.404  0.00  0.00     0.197 C 
HETATM   22  O           1     -19.077  -8.575  -5.689  0.00  0.00    -0.646 OA
HETATM   23  O           1     -21.145  -9.212  -5.735  0.00  0.00    -0.646 OA
ENDBRANCH  16  21
ENDBRANCH   4  16
TORSDOF 8
ENDMDL
