MODEL 1
REMARK VINA RESULT:      -7.1      0.000      0.000
REMARK  10 active torsions:
REMARK  status: ('A' for Active; 'I' for Inactive)
REMARK       I    between atoms: N_3  and  C_24 
REMARK       I    between atoms: N_4  and  C_24 
REMARK    1  A    between atoms: N_4  and  C_18 
REMARK    2  A    between atoms: N_7  and  C_16 
REMARK       I    between atoms: N_7  and  C_9 
REMARK    3  A    between atoms: C_9  and  C_10 
REMARK    4  A    between atoms: C_10  and  C_11 
REMARK    5  A    between atoms: C_10  and  N_15 
REMARK    6  A    between atoms: C_11  and  C_12 
REMARK       I    between atoms: C_12  and  N_13 
REMARK    7  A    between atoms: C_16  and  C_22 
REMARK    8  A    between atoms: C_16  and  C_25 
REMARK    9  A    between atoms: C_17  and  C_18 
REMARK   10  A    between atoms: C_17  and  C_22 
ROOT
HETATM    1  C           1     -27.312  -5.926 -16.774  0.00  0.00     0.185 C 
ENDROOT
BRANCH   1   2
HETATM    2  N           1     -27.016  -6.324 -18.136  0.00  0.00    -0.345 N 
HETATM    3  C           1     -25.738  -6.666 -18.487  0.00  0.00     0.249 C 
HETATM    4  O           1     -24.856  -6.636 -17.662  0.00  0.00    -0.271 OA
HETATM    5  H           1     -27.755  -6.349 -18.828  0.00  0.00     0.163 HD
BRANCH   3   6
HETATM    6  C           1     -25.430  -7.081 -19.905  0.00  0.00     0.283 C 
BRANCH   6   7
HETATM    7  C           1     -23.959  -7.457 -20.016  0.00  0.00     0.145 C 
BRANCH   7   8
HETATM    8  C           1     -23.746  -8.297 -21.252  0.00  0.00     0.217 C 
HETATM    9  N           1     -22.714  -9.196 -21.299  0.00  0.00    -0.370 N 
HETATM   10  H           1     -22.571  -9.759 -22.128  0.00  0.00     0.159 HD
HETATM   11  H           1     -22.095  -9.298 -20.505  0.00  0.00     0.159 HD
HETATM   12  O           1     -24.484  -8.175 -22.199  0.00  0.00    -0.274 OA
ENDBRANCH   7   8
ENDBRANCH   6   7
BRANCH   6  13
HETATM   13  N           1     -25.725  -5.941 -20.834  0.00  0.00    -0.066 N 
HETATM   14  H           1     -26.207  -5.177 -20.309  0.00  0.00     0.275 HD
HETATM   15  H           1     -24.831  -5.577 -21.234  0.00  0.00     0.275 HD
HETATM   16  H           1     -26.342  -6.274 -21.609  0.00  0.00     0.275 HD
ENDBRANCH   6  13
ENDBRANCH   3   6
ENDBRANCH   1   2
BRANCH   1  17
HETATM   17  C           1     -28.003  -4.569 -16.781  0.00  0.00     0.038 C 
BRANCH  17  18
HETATM   18  C           1     -28.962  -4.492 -17.961  0.00  0.00     0.023 C 
BRANCH  18  19
HETATM   19  C           1     -30.211  -3.720 -17.552  0.00  0.00     0.138 C 
BRANCH  19  20
HETATM   20  N           1     -31.192  -4.647 -16.970  0.00  0.00    -0.227 N 
HETATM   21  C           1     -32.422  -4.350 -16.971  0.00  0.00     0.665 C 
HETATM   22  N           1     -32.808  -3.254 -17.474  0.00  0.00    -0.235 N 
HETATM   23  N           1     -33.289  -5.170 -16.455  0.00  0.00    -0.235 N 
HETATM   24  H           1     -32.108  -2.592 -17.890  0.00  0.00     0.174 HD
HETATM   25  H           1     -33.829  -3.007 -17.474  0.00  0.00     0.174 HD
HETATM   26  H           1     -34.305  -4.924 -16.456  0.00  0.00     0.174 HD
HETATM   27  H           1     -32.970  -6.074 -16.040  0.00  0.00     0.174 HD
HETATM   28  H           1     -30.872  -5.556 -16.553  0.00  0.00     0.177 HD
ENDBRANCH  19  20
ENDBRANCH  18  19
ENDBRANCH  17  18
ENDBRANCH   1  17
BRANCH   1  29
HETATM   29  C           1     -28.219  -6.949 -16.137  0.00  0.00     0.196 C 
HETATM   30  O           1     -29.261  -7.314 -16.724  0.00  0.00    -0.646 OA
HETATM   31  O           1     -27.929  -7.434 -15.022  0.00  0.00    -0.646 OA
ENDBRANCH   1  29
TORSDOF 10
ENDMDL
MODEL 2
REMARK VINA RESULT:      -7.1      1.828      2.034
REMARK  10 active torsions:
REMARK  status: ('A' for Active; 'I' for Inactive)
REMARK       I    between atoms: N_3  and  C_24 
REMARK       I    between atoms: N_4  and  C_24 
REMARK    1  A    between atoms: N_4  and  C_18 
REMARK    2  A    between atoms: N_7  and  C_16 
REMARK       I    between atoms: N_7  and  C_9 
REMARK    3  A    between atoms: C_9  and  C_10 
REMARK    4  A    between atoms: C_10  and  C_11 
REMARK    5  A    between atoms: C_10  and  N_15 
REMARK    6  A    between atoms: C_11  and  C_12 
REMARK       I    between atoms: C_12  and  N_13 
REMARK    7  A    between atoms: C_16  and  C_22 
REMARK    8  A    between atoms: C_16  and  C_25 
REMARK    9  A    between atoms: C_17  and  C_18 
REMARK   10  A    between atoms: C_17  and  C_22 
ROOT
HETATM    1  C           1     -27.987  -5.740 -17.876  0.00  0.00     0.185 C 
ENDROOT
BRANCH   1   2
HETATM    2  N           1     -26.700  -6.298 -18.241  0.00  0.00    -0.345 N 
HETATM    3  C           1     -26.333  -6.368 -19.558  0.00  0.00     0.249 C 
HETATM    4  O           1     -27.081  -5.966 -20.416  0.00  0.00    -0.271 OA
HETATM    5  H           1     -26.073  -6.636 -17.522  0.00  0.00     0.163 HD
BRANCH   3   6
HETATM    6  C           1     -24.993  -6.949 -19.938  0.00  0.00     0.283 C 
BRANCH   6   7
HETATM    7  C           1     -25.189  -8.040 -20.982  0.00  0.00     0.145 C 
BRANCH   7   8
HETATM    8  C           1     -23.930  -8.187 -21.800  0.00  0.00     0.217 C 
HETATM    9  N           1     -22.918  -8.999 -21.360  0.00  0.00    -0.370 N 
HETATM   10  H           1     -22.073  -9.096 -21.908  0.00  0.00     0.159 HD
HETATM   11  H           1     -23.016  -9.500 -20.488  0.00  0.00     0.159 HD
HETATM   12  O           1     -23.813  -7.586 -22.841  0.00  0.00    -0.274 OA
ENDBRANCH   7   8
ENDBRANCH   6   7
BRANCH   6  13
HETATM   13  N           1     -24.339  -7.534 -18.721  0.00  0.00    -0.066 N 
HETATM   14  H           1     -24.597  -6.970 -17.880  0.00  0.00     0.275 HD
HETATM   15  H           1     -24.662  -8.519 -18.592  0.00  0.00     0.275 HD
HETATM   16  H           1     -23.301  -7.521 -18.844  0.00  0.00     0.275 HD
ENDBRANCH   6  13
ENDBRANCH   3   6
ENDBRANCH   1   2
BRANCH   1  17
HETATM   17  C           1     -28.937  -6.867 -17.490  0.00  0.00     0.038 C 
BRANCH  17  18
HETATM   18  C           1     -30.376  -6.411 -17.692  0.00  0.00     0.023 C 
BRANCH  18  19
HETATM   19  C           1     -30.802  -5.538 -16.518  0.00  0.00     0.138 C 
BRANCH  19  20
HETATM   20  N           1     -32.097  -4.910 -16.818  0.00  0.00    -0.227 N 
HETATM   21  C           1     -32.137  -3.749 -17.320  0.00  0.00     0.665 C 
HETATM   22  N           1     -31.060  -3.127 -17.563  0.00  0.00    -0.235 N 
HETATM   23  N           1     -33.282  -3.194 -17.585  0.00  0.00    -0.235 N 
HETATM   24  H           1     -30.135  -3.575 -17.349  0.00  0.00     0.174 HD
HETATM   25  H           1     -31.093  -2.164 -17.979  0.00  0.00     0.174 HD
HETATM   26  H           1     -33.314  -2.235 -17.999  0.00  0.00     0.174 HD
HETATM   27  H           1     -34.170  -3.707 -17.384  0.00  0.00     0.174 HD
HETATM   28  H           1     -32.989  -5.425 -16.617  0.00  0.00     0.177 HD
ENDBRANCH  19  20
ENDBRANCH  18  19
ENDBRANCH  17  18
ENDBRANCH   1  17
BRANCH   1  29
HETATM   29  C           1     -27.816  -4.803 -16.706  0.00  0.00     0.196 C 
HETATM   30  O           1     -28.029  -3.579 -16.849  0.00  0.00    -0.646 OA
HETATM   31  O           1     -27.461  -5.250 -15.594  0.00  0.00    -0.646 OA
ENDBRANCH   1  29
TORSDOF 10
ENDMDL
MODEL 3
REMARK VINA RESULT:      -6.8      9.918     11.708
REMARK  10 active torsions:
REMARK  status: ('A' for Active; 'I' for Inactive)
REMARK       I    between atoms: N_3  and  C_24 
REMARK       I    between atoms: N_4  and  C_24 
REMARK    1  A    between atoms: N_4  and  C_18 
REMARK    2  A    between atoms: N_7  and  C_16 
REMARK       I    between atoms: N_7  and  C_9 
REMARK    3  A    between atoms: C_9  and  C_10 
REMARK    4  A    between atoms: C_10  and  C_11 
REMARK    5  A    between atoms: C_10  and  N_15 
REMARK    6  A    between atoms: C_11  and  C_12 
REMARK       I    between atoms: C_12  and  N_13 
REMARK    7  A    between atoms: C_16  and  C_22 
REMARK    8  A    between atoms: C_16  and  C_25 
REMARK    9  A    between atoms: C_17  and  C_18 
REMARK   10  A    between atoms: C_17  and  C_22 
ROOT
HETATM    1  C           1     -34.989  -2.349 -11.554  0.00  0.00     0.185 C 
ENDROOT
BRANCH   1   2
HETATM    2  N           1     -35.231  -1.031 -12.107  0.00  0.00    -0.345 N 
HETATM    3  C           1     -35.301  -0.862 -13.464  0.00  0.00     0.249 C 
HETATM    4  O           1     -35.162  -1.810 -14.200  0.00  0.00    -0.271 OA
HETATM    5  H           1     -35.347  -0.237 -11.492  0.00  0.00     0.163 HD
BRANCH   3   6
HETATM    6  C           1     -35.553   0.510 -14.041  0.00  0.00     0.283 C 
BRANCH   6   7
HETATM    7  C           1     -35.667   0.411 -15.556  0.00  0.00     0.145 C 
BRANCH   7   8
HETATM    8  C           1     -36.763   1.328 -16.040  0.00  0.00     0.217 C 
HETATM    9  N           1     -36.473   2.624 -16.376  0.00  0.00    -0.370 N 
HETATM   10  H           1     -37.209   3.239 -16.700  0.00  0.00     0.159 HD
HETATM   11  H           1     -35.524   2.965 -16.301  0.00  0.00     0.159 HD
HETATM   12  O           1     -37.897   0.920 -16.129  0.00  0.00    -0.274 OA
ENDBRANCH   7   8
ENDBRANCH   6   7
BRANCH   6  13
HETATM   13  N           1     -34.414   1.419 -13.684  0.00  0.00    -0.066 N 
HETATM   14  H           1     -34.773   2.391 -13.548  0.00  0.00     0.275 HD
HETATM   15  H           1     -33.967   1.086 -12.801  0.00  0.00     0.275 HD
HETATM   16  H           1     -33.709   1.412 -14.456  0.00  0.00     0.275 HD
ENDBRANCH   6  13
ENDBRANCH   3   6
ENDBRANCH   1   2
BRANCH   1  17
HETATM   17  C           1     -33.753  -2.306 -10.665  0.00  0.00     0.038 C 
BRANCH  17  18
HETATM   18  C           1     -32.658  -3.171 -11.275  0.00  0.00     0.023 C 
BRANCH  18  19
HETATM   19  C           1     -33.289  -4.348 -12.009  0.00  0.00     0.138 C 
BRANCH  19  20
HETATM   20  N           1     -33.481  -5.465 -11.072  0.00  0.00    -0.227 N 
HETATM   21  C           1     -34.351  -6.351 -11.314  0.00  0.00     0.665 C 
HETATM   22  N           1     -35.057  -6.276 -12.364  0.00  0.00    -0.235 N 
HETATM   23  N           1     -34.522  -7.338 -10.486  0.00  0.00    -0.235 N 
HETATM   24  H           1     -34.920  -5.478 -13.032  0.00  0.00     0.174 HD
HETATM   25  H           1     -35.779  -7.011 -12.564  0.00  0.00     0.174 HD
HETATM   26  H           1     -35.240  -8.070 -10.687  0.00  0.00     0.174 HD
HETATM   27  H           1     -33.939  -7.400  -9.621  0.00  0.00     0.174 HD
HETATM   28  H           1     -32.896  -5.527 -10.203  0.00  0.00     0.177 HD
ENDBRANCH  19  20
ENDBRANCH  18  19
ENDBRANCH  17  18
ENDBRANCH   1  17
BRANCH   1  29
HETATM   29  C           1     -36.182  -2.777 -10.736  0.00  0.00     0.196 C 
HETATM   30  O           1     -36.954  -1.917 -10.258  0.00  0.00    -0.646 OA
HETATM   31  O           1     -36.401  -3.992 -10.537  0.00  0.00    -0.646 OA
ENDBRANCH   1  29
TORSDOF 10
ENDMDL
MODEL 4
REMARK VINA RESULT:      -6.6      9.646     11.750
REMARK  10 active torsions:
REMARK  status: ('A' for Active; 'I' for Inactive)
REMARK       I    between atoms: N_3  and  C_24 
REMARK       I    between atoms: N_4  and  C_24 
REMARK    1  A    between atoms: N_4  and  C_18 
REMARK    2  A    between atoms: N_7  and  C_16 
REMARK       I    between atoms: N_7  and  C_9 
REMARK    3  A    between atoms: C_9  and  C_10 
REMARK    4  A    between atoms: C_10  and  C_11 
REMARK    5  A    between atoms: C_10  and  N_15 
REMARK    6  A    between atoms: C_11  and  C_12 
REMARK       I    between atoms: C_12  and  N_13 
REMARK    7  A    between atoms: C_16  and  C_22 
REMARK    8  A    between atoms: C_16  and  C_25 
REMARK    9  A    between atoms: C_17  and  C_18 
REMARK   10  A    between atoms: C_17  and  C_22 
ROOT
HETATM    1  C           1     -36.519  -1.001 -11.104  0.00  0.00     0.185 C 
ENDROOT
BRANCH   1   2
HETATM    2  N           1     -35.936  -0.311 -12.238  0.00  0.00    -0.345 N 
HETATM    3  C           1     -36.632  -0.218 -13.413  0.00  0.00     0.249 C 
HETATM    4  O           1     -37.731  -0.711 -13.505  0.00  0.00    -0.271 OA
HETATM    5  H           1     -35.016   0.102 -12.161  0.00  0.00     0.163 HD
BRANCH   3   6
HETATM    6  C           1     -36.027   0.501 -14.593  0.00  0.00     0.283 C 
BRANCH   6   7
HETATM    7  C           1     -36.177  -0.357 -15.843  0.00  0.00     0.145 C 
BRANCH   7   8
HETATM    8  C           1     -35.219  -1.521 -15.772  0.00  0.00     0.217 C 
HETATM    9  N           1     -34.637  -1.999 -16.917  0.00  0.00    -0.370 N 
HETATM   10  H           1     -33.995  -2.780 -16.870  0.00  0.00     0.159 HD
HETATM   11  H           1     -34.850  -1.572 -17.808  0.00  0.00     0.159 HD
HETATM   12  O           1     -34.966  -2.032 -14.708  0.00  0.00    -0.274 OA
ENDBRANCH   7   8
ENDBRANCH   6   7
BRANCH   6  13
HETATM   13  N           1     -34.571   0.752 -14.332  0.00  0.00    -0.066 N 
HETATM   14  H           1     -34.107  -0.141 -14.049  0.00  0.00     0.275 HD
HETATM   15  H           1     -34.119   1.117 -15.201  0.00  0.00     0.275 HD
HETATM   16  H           1     -34.471   1.455 -13.566  0.00  0.00     0.275 HD
ENDBRANCH   6  13
ENDBRANCH   3   6
ENDBRANCH   1   2
BRANCH   1  17
HETATM   17  C           1     -35.552  -2.070 -10.610  0.00  0.00     0.038 C 
BRANCH  17  18
HETATM   18  C           1     -34.165  -1.805 -11.180  0.00  0.00     0.023 C 
BRANCH  18  19
HETATM   19  C           1     -33.414  -3.122 -11.323  0.00  0.00     0.138 C 
BRANCH  19  20
HETATM   20  N           1     -34.159  -4.019 -12.218  0.00  0.00    -0.227 N 
HETATM   21  C           1     -34.319  -5.235 -11.906  0.00  0.00     0.665 C 
HETATM   22  N           1     -33.835  -5.680 -10.824  0.00  0.00    -0.235 N 
HETATM   23  N           1     -34.978  -6.028 -12.698  0.00  0.00    -0.235 N 
HETATM   24  H           1     -33.302  -5.040 -10.184  0.00  0.00     0.174 HD
HETATM   25  H           1     -33.967  -6.689 -10.565  0.00  0.00     0.174 HD
HETATM   26  H           1     -35.109  -7.032 -12.440  0.00  0.00     0.174 HD
HETATM   27  H           1     -35.377  -5.661 -13.591  0.00  0.00     0.174 HD
HETATM   28  H           1     -34.560  -3.650 -13.115  0.00  0.00     0.177 HD
ENDBRANCH  19  20
ENDBRANCH  18  19
ENDBRANCH  17  18
ENDBRANCH   1  17
BRANCH   1  29
HETATM   29  C           1     -36.785  -0.012  -9.996  0.00  0.00     0.196 C 
HETATM   30  O           1     -37.527   0.973 -10.202  0.00  0.00    -0.646 OA
HETATM   31  O           1     -36.265  -0.178  -8.871  0.00  0.00    -0.646 OA
ENDBRANCH   1  29
TORSDOF 10
ENDMDL
MODEL 5
REMARK VINA RESULT:      -6.3     13.824     15.420
REMARK  10 active torsions:
REMARK  status: ('A' for Active; 'I' for Inactive)
REMARK       I    between atoms: N_3  and  C_24 
REMARK       I    between atoms: N_4  and  C_24 
REMARK    1  A    between atoms: N_4  and  C_18 
REMARK    2  A    between atoms: N_7  and  C_16 
REMARK       I    between atoms: N_7  and  C_9 
REMARK    3  A    between atoms: C_9  and  C_10 
REMARK    4  A    between atoms: C_10  and  C_11 
REMARK    5  A    between atoms: C_10  and  N_15 
REMARK    6  A    between atoms: C_11  and  C_12 
REMARK       I    between atoms: C_12  and  N_13 
REMARK    7  A    between atoms: C_16  and  C_22 
REMARK    8  A    between atoms: C_16  and  C_25 
REMARK    9  A    between atoms: C_17  and  C_18 
REMARK   10  A    between atoms: C_17  and  C_22 
ROOT
HETATM    1  C           1     -21.250  -6.771  -4.640  0.00  0.00     0.185 C 
ENDROOT
BRANCH   1   2
HETATM    2  N           1     -21.536  -6.026  -5.849  0.00  0.00    -0.345 N 
HETATM    3  C           1     -20.830  -4.889  -6.136  0.00  0.00     0.249 C 
HETATM    4  O           1     -19.967  -4.507  -5.381  0.00  0.00    -0.271 OA
HETATM    5  H           1     -22.259  -6.345  -6.482  0.00  0.00     0.163 HD
BRANCH   3   6
HETATM    6  C           1     -21.127  -4.113  -7.395  0.00  0.00     0.283 C 
BRANCH   6   7
HETATM    7  C           1     -22.184  -4.850  -8.209  0.00  0.00     0.145 C 
BRANCH   7   8
HETATM    8  C           1     -22.932  -3.864  -9.072  0.00  0.00     0.217 C 
HETATM    9  N           1     -24.231  -3.544  -8.777  0.00  0.00    -0.370 N 
HETATM   10  H           1     -24.733  -2.884  -9.356  0.00  0.00     0.159 HD
HETATM   11  H           1     -24.688  -3.968  -7.980  0.00  0.00     0.159 HD
HETATM   12  O           1     -22.387  -3.359 -10.024  0.00  0.00    -0.274 OA
ENDBRANCH   7   8
ENDBRANCH   6   7
BRANCH   6  13
HETATM   13  N           1     -19.874  -3.980  -8.209  0.00  0.00    -0.066 N 
HETATM   14  H           1     -19.737  -2.979  -8.479  0.00  0.00     0.275 HD
HETATM   15  H           1     -19.056  -4.302  -7.643  0.00  0.00     0.275 HD
HETATM   16  H           1     -19.954  -4.567  -9.070  0.00  0.00     0.275 HD
ENDBRANCH   6  13
ENDBRANCH   3   6
ENDBRANCH   1   2
BRANCH   1  17
HETATM   17  C           1     -22.249  -6.385  -3.557  0.00  0.00     0.038 C 
BRANCH  17  18
HETATM   18  C           1     -21.508  -6.092  -2.260  0.00  0.00     0.023 C 
BRANCH  18  19
HETATM   19  C           1     -22.306  -6.638  -1.083  0.00  0.00     0.138 C 
BRANCH  19  20
HETATM   20  N           1     -22.129  -8.096  -1.004  0.00  0.00    -0.227 N 
HETATM   21  C           1     -22.779  -8.767  -0.150  0.00  0.00     0.665 C 
HETATM   22  N           1     -23.583  -8.183   0.636  0.00  0.00    -0.235 N 
HETATM   23  N           1     -22.623 -10.055  -0.080  0.00  0.00    -0.235 N 
HETATM   24  H           1     -23.709  -7.142   0.580  0.00  0.00     0.174 HD
HETATM   25  H           1     -24.122  -8.740   1.344  0.00  0.00     0.174 HD
HETATM   26  H           1     -23.160 -10.609   0.625  0.00  0.00     0.174 HD
HETATM   27  H           1     -21.960 -10.537  -0.729  0.00  0.00     0.174 HD
HETATM   28  H           1     -21.464  -8.580  -1.655  0.00  0.00     0.177 HD
ENDBRANCH  19  20
ENDBRANCH  18  19
ENDBRANCH  17  18
ENDBRANCH   1  17
BRANCH   1  29
HETATM   29  C           1     -21.359  -8.249  -4.922  0.00  0.00     0.196 C 
HETATM   30  O           1     -21.102  -8.688  -6.064  0.00  0.00    -0.646 OA
HETATM   31  O           1     -21.706  -9.035  -4.014  0.00  0.00    -0.646 OA
ENDBRANCH   1  29
TORSDOF 10
ENDMDL
MODEL 6
REMARK VINA RESULT:      -6.2     13.239     15.214
REMARK  10 active torsions:
REMARK  status: ('A' for Active; 'I' for Inactive)
REMARK       I    between atoms: N_3  and  C_24 
REMARK       I    between atoms: N_4  and  C_24 
REMARK    1  A    between atoms: N_4  and  C_18 
REMARK    2  A    between atoms: N_7  and  C_16 
REMARK       I    between atoms: N_7  and  C_9 
REMARK    3  A    between atoms: C_9  and  C_10 
REMARK    4  A    between atoms: C_10  and  C_11 
REMARK    5  A    between atoms: C_10  and  N_15 
REMARK    6  A    between atoms: C_11  and  C_12 
REMARK       I    between atoms: C_12  and  N_13 
REMARK    7  A    between atoms: C_16  and  C_22 
REMARK    8  A    between atoms: C_16  and  C_25 
REMARK    9  A    between atoms: C_17  and  C_18 
REMARK   10  A    between atoms: C_17  and  C_22 
ROOT
HETATM    1  C           1     -21.523  -5.851  -6.029  0.00  0.00     0.185 C 
ENDROOT
BRANCH   1   2
HETATM    2  N           1     -21.536  -5.777  -4.581  0.00  0.00    -0.345 N 
HETATM    3  C           1     -21.413  -6.919  -3.836  0.00  0.00     0.249 C 
HETATM    4  O           1     -21.295  -7.989  -4.385  0.00  0.00    -0.271 OA
HETATM    5  H           1     -21.635  -4.881  -4.121  0.00  0.00     0.163 HD
BRANCH   3   6
HETATM    6  C           1     -21.426  -6.842  -2.330  0.00  0.00     0.283 C 
BRANCH   6   7
HETATM    7  C           1     -21.912  -8.167  -1.756  0.00  0.00     0.145 C 
BRANCH   7   8
HETATM    8  C           1     -22.194  -8.005  -0.283  0.00  0.00     0.217 C 
HETATM    9  N           1     -21.266  -8.410   0.640  0.00  0.00    -0.370 N 
HETATM   10  H           1     -21.455  -8.302   1.628  0.00  0.00     0.159 HD
HETATM   11  H           1     -20.392  -8.817   0.333  0.00  0.00     0.159 HD
HETATM   12  O           1     -23.237  -7.520   0.083  0.00  0.00    -0.274 OA
ENDBRANCH   7   8
ENDBRANCH   6   7
BRANCH   6  13
HETATM   13  N           1     -22.348  -5.741  -1.893  0.00  0.00    -0.066 N 
HETATM   14  H           1     -23.266  -5.840  -2.382  0.00  0.00     0.275 HD
HETATM   15  H           1     -22.496  -5.800  -0.860  0.00  0.00     0.275 HD
HETATM   16  H           1     -21.923  -4.817  -2.132  0.00  0.00     0.275 HD
ENDBRANCH   6  13
ENDBRANCH   3   6
ENDBRANCH   1   2
BRANCH   1  17
HETATM   17  C           1     -22.469  -4.802  -6.599  0.00  0.00     0.038 C 
BRANCH  17  18
HETATM   18  C           1     -21.741  -3.980  -7.653  0.00  0.00     0.023 C 
BRANCH  18  19
HETATM   19  C           1     -22.473  -4.098  -8.985  0.00  0.00     0.138 C 
BRANCH  19  20
HETATM   20  N           1     -23.880  -3.713  -8.807  0.00  0.00    -0.227 N 
HETATM   21  C           1     -24.686  -3.794  -9.779  0.00  0.00     0.665 C 
HETATM   22  N           1     -24.280  -4.206 -10.906  0.00  0.00    -0.235 N 
HETATM   23  N           1     -25.931  -3.454  -9.622  0.00  0.00    -0.235 N 
HETATM   24  H           1     -23.275  -4.480 -11.033  0.00  0.00     0.174 HD
HETATM   25  H           1     -24.949  -4.273 -11.713  0.00  0.00     0.174 HD
HETATM   26  H           1     -26.596  -3.521 -10.425  0.00  0.00     0.174 HD
HETATM   27  H           1     -26.266  -3.115  -8.693  0.00  0.00     0.174 HD
HETATM   28  H           1     -24.217  -3.372  -7.873  0.00  0.00     0.177 HD
ENDBRANCH  19  20
ENDBRANCH  18  19
ENDBRANCH  17  18
ENDBRANCH   1  17
BRANCH   1  29
HETATM   29  C           1     -20.125  -5.596  -6.533  0.00  0.00     0.196 C 
HETATM   30  O           1     -19.439  -4.676  -6.037  0.00  0.00    -0.646 OA
HETATM   31  O           1     -19.650  -6.305  -7.447  0.00  0.00    -0.646 OA
ENDBRANCH   1  29
TORSDOF 10
ENDMDL
MODEL 7
REMARK VINA RESULT:      -6.1     13.685     15.242
REMARK  10 active torsions:
REMARK  status: ('A' for Active; 'I' for Inactive)
REMARK       I    between atoms: N_3  and  C_24 
REMARK       I    between atoms: N_4  and  C_24 
REMARK    1  A    between atoms: N_4  and  C_18 
REMARK    2  A    between atoms: N_7  and  C_16 
REMARK       I    between atoms: N_7  and  C_9 
REMARK    3  A    between atoms: C_9  and  C_10 
REMARK    4  A    between atoms: C_10  and  C_11 
REMARK    5  A    between atoms: C_10  and  N_15 
REMARK    6  A    between atoms: C_11  and  C_12 
REMARK       I    between atoms: C_12  and  N_13 
REMARK    7  A    between atoms: C_16  and  C_22 
REMARK    8  A    between atoms: C_16  and  C_25 
REMARK    9  A    between atoms: C_17  and  C_18 
REMARK   10  A    between atoms: C_17  and  C_22 
ROOT
HETATM    1  C           1     -20.944  -6.524  -4.798  0.00  0.00     0.185 C 
ENDROOT
BRANCH   1   2
HETATM    2  N           1     -21.522  -6.203  -6.089  0.00  0.00    -0.345 N 
HETATM    3  C           1     -21.094  -5.098  -6.774  0.00  0.00     0.249 C 
HETATM    4  O           1     -20.236  -4.390  -6.304  0.00  0.00    -0.271 OA
HETATM    5  H           1     -22.241  -6.796  -6.483  0.00  0.00     0.163 HD
BRANCH   3   6
HETATM    6  C           1     -21.695  -4.764  -8.117  0.00  0.00     0.283 C 
BRANCH   6   7
HETATM    7  C           1     -20.619  -4.184  -9.026  0.00  0.00     0.145 C 
BRANCH   7   8
HETATM    8  C           1     -21.152  -4.078 -10.433  0.00  0.00     0.217 C 
HETATM    9  N           1     -20.452  -3.376 -11.379  0.00  0.00    -0.370 N 
HETATM   10  H           1     -20.810  -3.305 -12.323  0.00  0.00     0.159 HD
HETATM   11  H           1     -19.578  -2.930 -11.134  0.00  0.00     0.159 HD
HETATM   12  O           1     -22.196  -4.610 -10.726  0.00  0.00    -0.274 OA
ENDBRANCH   7   8
ENDBRANCH   6   7
BRANCH   6  13
HETATM   13  N           1     -22.793  -3.758  -7.938  0.00  0.00    -0.066 N 
HETATM   14  H           1     -23.720  -4.228  -8.046  0.00  0.00     0.275 HD
HETATM   15  H           1     -22.726  -3.336  -6.983  0.00  0.00     0.275 HD
HETATM   16  H           1     -22.697  -3.006  -8.657  0.00  0.00     0.275 HD
ENDBRANCH   6  13
ENDBRANCH   3   6
ENDBRANCH   1   2
BRANCH   1  17
HETATM   17  C           1     -22.059  -6.764  -3.789  0.00  0.00     0.038 C 
BRANCH  17  18
HETATM   18  C           1     -21.752  -6.011  -2.502  0.00  0.00     0.023 C 
BRANCH  18  19
HETATM   19  C           1     -22.170  -6.857  -1.306  0.00  0.00     0.138 C 
BRANCH  19  20
HETATM   20  N           1     -21.235  -7.980  -1.148  0.00  0.00    -0.227 N 
HETATM   21  C           1     -21.646  -9.086  -0.687  0.00  0.00     0.665 C 
HETATM   22  N           1     -22.862  -9.224  -0.362  0.00  0.00    -0.235 N 
HETATM   23  N           1     -20.819 -10.079  -0.548  0.00  0.00    -0.235 N 
HETATM   24  H           1     -23.530  -8.421  -0.474  0.00  0.00     0.174 HD
HETATM   25  H           1     -23.202 -10.140   0.020  0.00  0.00     0.174 HD
HETATM   26  H           1     -21.158 -10.991  -0.168  0.00  0.00     0.174 HD
HETATM   27  H           1     -19.816  -9.965  -0.817  0.00  0.00     0.174 HD
HETATM   28  H           1     -20.227  -7.866  -1.418  0.00  0.00     0.177 HD
ENDBRANCH  19  20
ENDBRANCH  18  19
ENDBRANCH  17  18
ENDBRANCH   1  17
BRANCH   1  29
HETATM   29  C           1     -20.099  -7.768  -4.921  0.00  0.00     0.196 C 
HETATM   30  O           1     -19.946  -8.519  -3.934  0.00  0.00    -0.646 OA
HETATM   31  O           1     -19.552  -8.048  -6.010  0.00  0.00    -0.646 OA
ENDBRANCH   1  29
TORSDOF 10
ENDMDL
MODEL 8
REMARK VINA RESULT:      -5.9     14.601     16.684
REMARK  10 active torsions:
REMARK  status: ('A' for Active; 'I' for Inactive)
REMARK       I    between atoms: N_3  and  C_24 
REMARK       I    between atoms: N_4  and  C_24 
REMARK    1  A    between atoms: N_4  and  C_18 
REMARK    2  A    between atoms: N_7  and  C_16 
REMARK       I    between atoms: N_7  and  C_9 
REMARK    3  A    between atoms: C_9  and  C_10 
REMARK    4  A    between atoms: C_10  and  C_11 
REMARK    5  A    between atoms: C_10  and  N_15 
REMARK    6  A    between atoms: C_11  and  C_12 
REMARK       I    between atoms: C_12  and  N_13 
REMARK    7  A    between atoms: C_16  and  C_22 
REMARK    8  A    between atoms: C_16  and  C_25 
REMARK    9  A    between atoms: C_17  and  C_18 
REMARK   10  A    between atoms: C_17  and  C_22 
ROOT
HETATM    1  C           1     -20.863  -7.983  -4.201  0.00  0.00     0.185 C 
ENDROOT
BRANCH   1   2
HETATM    2  N           1     -20.815  -8.300  -2.787  0.00  0.00    -0.345 N 
HETATM    3  C           1     -21.492  -9.389  -2.306  0.00  0.00     0.249 C 
HETATM    4  O           1     -22.129 -10.086  -3.060  0.00  0.00    -0.271 OA
HETATM    5  H           1     -20.282  -7.717  -2.155  0.00  0.00     0.163 HD
BRANCH   3   6
HETATM    6  C           1     -21.442  -9.719  -0.835  0.00  0.00     0.283 C 
BRANCH   6   7
HETATM    7  C           1     -21.300  -8.434  -0.030  0.00  0.00     0.145 C 
BRANCH   7   8
HETATM    8  C           1     -22.589  -7.652  -0.098  0.00  0.00     0.217 C 
HETATM    9  N           1     -23.662  -8.034   0.663  0.00  0.00    -0.370 N 
HETATM   10  H           1     -24.527  -7.510   0.616  0.00  0.00     0.159 HD
HETATM   11  H           1     -23.590  -8.839   1.270  0.00  0.00     0.159 HD
HETATM   12  O           1     -22.675  -6.691  -0.825  0.00  0.00    -0.274 OA
ENDBRANCH   7   8
ENDBRANCH   6   7
BRANCH   6  13
HETATM   13  N           1     -20.267 -10.611  -0.562  0.00  0.00    -0.066 N 
HETATM   14  H           1     -20.505 -11.277   0.207  0.00  0.00     0.275 HD
HETATM   15  H           1     -20.030 -11.149  -1.427  0.00  0.00     0.275 HD
HETATM   16  H           1     -19.446 -10.028  -0.279  0.00  0.00     0.275 HD
ENDBRANCH   6  13
ENDBRANCH   3   6
ENDBRANCH   1   2
BRANCH   1  17
HETATM   17  C           1     -21.038  -6.481  -4.378  0.00  0.00     0.038 C 
BRANCH  17  18
HETATM   18  C           1     -22.212  -6.211  -5.309  0.00  0.00     0.023 C 
BRANCH  18  19
HETATM   19  C           1     -21.783  -5.238  -6.400  0.00  0.00     0.138 C 
BRANCH  19  20
HETATM   20  N           1     -22.958  -4.504  -6.893  0.00  0.00    -0.227 N 
HETATM   21  C           1     -23.078  -4.258  -8.129  0.00  0.00     0.665 C 
HETATM   22  N           1     -22.186  -4.645  -8.941  0.00  0.00    -0.235 N 
HETATM   23  N           1     -24.117  -3.610  -8.565  0.00  0.00    -0.235 N 
HETATM   24  H           1     -21.347  -5.169  -8.589  0.00  0.00     0.174 HD
HETATM   25  H           1     -22.286  -4.441  -9.966  0.00  0.00     0.174 HD
HETATM   26  H           1     -24.215  -3.407  -9.585  0.00  0.00     0.174 HD
HETATM   27  H           1     -24.852  -3.291  -7.895  0.00  0.00     0.174 HD
HETATM   28  H           1     -23.697  -4.183  -6.220  0.00  0.00     0.177 HD
ENDBRANCH  19  20
ENDBRANCH  18  19
ENDBRANCH  17  18
ENDBRANCH   1  17
BRANCH   1  29
HETATM   29  C           1     -19.578  -8.421  -4.858  0.00  0.00     0.196 C 
HETATM   30  O           1     -18.707  -9.021  -4.190  0.00  0.00    -0.646 OA
HETATM   31  O           1     -19.383  -8.186  -6.070  0.00  0.00    -0.646 OA
ENDBRANCH   1  29
TORSDOF 10
ENDMDL
MODEL 9
REMARK VINA RESULT:      -5.9      9.922     12.427
REMARK  10 active torsions:
REMARK  status: ('A' for Active; 'I' for Inactive)
REMARK       I    between atoms: N_3  and  C_24 
REMARK       I    between atoms: N_4  and  C_24 
REMARK    1  A    between atoms: N_4  and  C_18 
REMARK    2  A    between atoms: N_7  and  C_16 
REMARK       I    between atoms: N_7  and  C_9 
REMARK    3  A    between atoms: C_9  and  C_10 
REMARK    4  A    between atoms: C_10  and  C_11 
REMARK    5  A    between atoms: C_10  and  N_15 
REMARK    6  A    between atoms: C_11  and  C_12 
REMARK       I    between atoms: C_12  and  N_13 
REMARK    7  A    between atoms: C_16  and  C_22 
REMARK    8  A    between atoms: C_16  and  C_25 
REMARK    9  A    between atoms: C_17  and  C_18 
REMARK   10  A    between atoms: C_17  and  C_22 
ROOT
HETATM    1  C           1     -36.767  -1.093 -10.853  0.00  0.00     0.185 C 
ENDROOT
BRANCH   1   2
HETATM    2  N           1     -36.036  -0.455 -11.930  0.00  0.00    -0.345 N 
HETATM    3  C           1     -36.608  -0.336 -13.168  0.00  0.00     0.249 C 
HETATM    4  O           1     -37.721  -0.762 -13.364  0.00  0.00    -0.271 OA
HETATM    5  H           1     -35.104  -0.098 -11.767  0.00  0.00     0.163 HD
BRANCH   3   6
HETATM    6  C           1     -35.848   0.328 -14.290  0.00  0.00     0.283 C 
BRANCH   6   7
HETATM    7  C           1     -36.830   0.857 -15.327  0.00  0.00     0.145 C 
BRANCH   7   8
HETATM    8  C           1     -36.264   2.099 -15.969  0.00  0.00     0.217 C 
HETATM    9  N           1     -37.101   3.001 -16.571  0.00  0.00    -0.370 N 
HETATM   10  H           1     -36.721   3.834 -17.002  0.00  0.00     0.159 HD
HETATM   11  H           1     -38.098   2.835 -16.583  0.00  0.00     0.159 HD
HETATM   12  O           1     -35.072   2.297 -15.955  0.00  0.00    -0.274 OA
ENDBRANCH   7   8
ENDBRANCH   6   7
BRANCH   6  13
HETATM   13  N           1     -34.932  -0.671 -14.933  0.00  0.00    -0.066 N 
HETATM   14  H           1     -34.726  -1.442 -14.258  0.00  0.00     0.275 HD
HETATM   15  H           1     -35.392  -1.068 -15.784  0.00  0.00     0.275 HD
HETATM   16  H           1     -34.041  -0.199 -15.208  0.00  0.00     0.275 HD
ENDBRANCH   6  13
ENDBRANCH   3   6
ENDBRANCH   1   2
BRANCH   1  17
HETATM   17  C           1     -36.074  -2.394 -10.471  0.00  0.00     0.038 C 
BRANCH  17  18
HETATM   18  C           1     -34.572  -2.161 -10.374  0.00  0.00     0.023 C 
BRANCH  18  19
HETATM   19  C           1     -33.832  -3.375 -10.924  0.00  0.00     0.138 C 
BRANCH  19  20
HETATM   20  N           1     -33.648  -3.221 -12.374  0.00  0.00    -0.227 N 
HETATM   21  C           1     -34.054  -4.124 -13.163  0.00  0.00     0.665 C 
HETATM   22  N           1     -34.619  -5.160 -12.703  0.00  0.00    -0.235 N 
HETATM   23  N           1     -33.890  -3.989 -14.445  0.00  0.00    -0.235 N 
HETATM   24  H           1     -34.751  -5.269 -11.667  0.00  0.00     0.174 HD
HETATM   25  H           1     -34.956  -5.908 -13.357  0.00  0.00     0.174 HD
HETATM   26  H           1     -34.226  -4.734 -15.096  0.00  0.00     0.174 HD
HETATM   27  H           1     -33.424  -3.134 -14.825  0.00  0.00     0.174 HD
HETATM   28  H           1     -33.179  -2.363 -12.756  0.00  0.00     0.177 HD
ENDBRANCH  19  20
ENDBRANCH  18  19
ENDBRANCH  17  18
ENDBRANCH   1  17
BRANCH   1  29
HETATM   29  C           1     -36.806  -0.173  -9.658  0.00  0.00     0.196 C 
HETATM   30  O           1     -37.271  -0.579  -8.571  0.00  0.00    -0.646 OA
HETATM   31  O           1     -36.372   0.995  -9.754  0.00  0.00    -0.646 OA
ENDBRANCH   1  29
TORSDOF 10
ENDMDL
