MODEL 1
REMARK VINA RESULT:      -6.1      0.000      0.000
REMARK  10 active torsions:
REMARK  status: ('A' for Active; 'I' for Inactive)
REMARK    1  A    between atoms: N_2  and  C_9 
REMARK    2  A    between atoms: O_5  and  P_6 
REMARK    3  A    between atoms: P_6  and  O_7 
REMARK    4  A    between atoms: O_7  and  C_8 
REMARK    5  A    between atoms: C_8  and  C_9 
REMARK    6  A    between atoms: C_9  and  C_10 
REMARK       I    between atoms: C_10  and  N_11 
REMARK    7  A    between atoms: N_11  and  C_15 
REMARK    8  A    between atoms: C_14  and  C_15 
REMARK    9  A    between atoms: C_15  and  C_17 
REMARK   10  A    between atoms: C_17  and  C_18 
ROOT
HETATM    1  C           1     -25.669  -6.359 -16.588  0.00  0.00     0.298 C 
ENDROOT
BRANCH   1   2
HETATM    2  N           1     -24.972  -6.857 -15.357  0.00  0.00    -0.064 N 
HETATM    3  H           1     -25.646  -7.395 -14.767  0.00  0.00     0.275 HD
HETATM    4  H           1     -24.177  -7.477 -15.633  0.00  0.00     0.275 HD
HETATM    5  H           1     -24.606  -6.043 -14.811  0.00  0.00     0.275 HD
ENDBRANCH   1   2
BRANCH   1   6
HETATM    6  C           1     -25.068  -7.030 -17.816  0.00  0.00     0.224 C 
BRANCH   6   7
HETATM    7  O           1     -25.471  -6.342 -18.969  0.00  0.00    -0.287 OA
BRANCH   7   8
HETATM    8  P           1     -25.196  -7.090 -20.374  0.00  0.00     0.406 P 
HETATM    9  O           1     -23.932  -7.856 -20.284  0.00  0.00    -0.624 OA
HETATM   10  O           1     -25.090  -6.086 -21.455  0.00  0.00    -0.624 OA
BRANCH   8  11
HETATM   11  O           1     -26.414  -8.101 -20.695  0.00  0.00    -0.300 OA
HETATM   12  H           1     -26.245  -8.418 -21.565  0.00  0.00     0.223 HD
ENDBRANCH   8  11
ENDBRANCH   7   8
ENDBRANCH   6   7
ENDBRANCH   1   6
BRANCH   1  13
HETATM   13  C           1     -27.138  -6.690 -16.502  0.00  0.00     0.251 C 
HETATM   14  O           1     -27.614  -7.061 -15.456  0.00  0.00    -0.271 OA
HETATM   15  N           1     -27.933  -6.570 -17.610  0.00  0.00    -0.344 N 
HETATM   16  H           1     -27.535  -6.258 -18.487  0.00  0.00     0.163 HD
BRANCH  15  17
HETATM   17  C           1     -29.346  -6.887 -17.528  0.00  0.00     0.189 C 
BRANCH  17  18
HETATM   18  C           1     -29.722  -7.800 -18.670  0.00  0.00     0.197 C 
HETATM   19  O           1     -30.913  -8.145 -18.828  0.00  0.00    -0.646 OA
HETATM   20  O           1     -28.842  -8.212 -19.456  0.00  0.00    -0.646 OA
ENDBRANCH  17  18
BRANCH  17  21
HETATM   21  C           1     -30.160  -5.603 -17.617  0.00  0.00     0.014 C 
HETATM   22  C           1     -30.523  -5.136 -16.213  0.00  0.00     0.012 C 
BRANCH  21  23
HETATM   23  C           1     -29.336  -4.527 -18.312  0.00  0.00     0.002 C 
HETATM   24  C           1     -29.168  -3.333 -17.382  0.00  0.00     0.005 C 
ENDBRANCH  21  23
ENDBRANCH  17  21
ENDBRANCH  15  17
ENDBRANCH   1  13
TORSDOF 10
ENDMDL
MODEL 2
REMARK VINA RESULT:      -5.5     11.450     13.694
REMARK  10 active torsions:
REMARK  status: ('A' for Active; 'I' for Inactive)
REMARK    1  A    between atoms: N_2  and  C_9 
REMARK    2  A    between atoms: O_5  and  P_6 
REMARK    3  A    between atoms: P_6  and  O_7 
REMARK    4  A    between atoms: O_7  and  C_8 
REMARK    5  A    between atoms: C_8  and  C_9 
REMARK    6  A    between atoms: C_9  and  C_10 
REMARK       I    between atoms: C_10  and  N_11 
REMARK    7  A    between atoms: N_11  and  C_15 
REMARK    8  A    between atoms: C_14  and  C_15 
REMARK    9  A    between atoms: C_15  and  C_17 
REMARK   10  A    between atoms: C_17  and  C_18 
ROOT
HETATM    1  C           1     -22.157  -5.138  -7.594  0.00  0.00     0.298 C 
ENDROOT
BRANCH   1   2
HETATM    2  N           1     -23.280  -4.474  -6.855  0.00  0.00    -0.064 N 
HETATM    3  H           1     -23.907  -3.986  -7.535  0.00  0.00     0.275 HD
HETATM    4  H           1     -23.827  -5.194  -6.331  0.00  0.00     0.275 HD
HETATM    5  H           1     -22.889  -3.776  -6.181  0.00  0.00     0.275 HD
ENDBRANCH   1   2
BRANCH   1   6
HETATM    6  C           1     -21.436  -4.108  -8.455  0.00  0.00     0.224 C 
BRANCH   6   7
HETATM    7  O           1     -21.461  -4.518  -9.795  0.00  0.00    -0.287 OA
BRANCH   7   8
HETATM    8  P           1     -22.539  -3.778 -10.742  0.00  0.00     0.406 P 
HETATM    9  O           1     -23.047  -4.734 -11.753  0.00  0.00    -0.624 OA
HETATM   10  O           1     -21.892  -2.635 -11.424  0.00  0.00    -0.624 OA
BRANCH   8  11
HETATM   11  O           1     -23.769  -3.242  -9.843  0.00  0.00    -0.300 OA
HETATM   12  H           1     -23.671  -2.306  -9.829  0.00  0.00     0.223 HD
ENDBRANCH   8  11
ENDBRANCH   7   8
ENDBRANCH   6   7
ENDBRANCH   1   6
BRANCH   1  13
HETATM   13  C           1     -21.187  -5.734  -6.605  0.00  0.00     0.251 C 
HETATM   14  O           1     -20.068  -5.288  -6.512  0.00  0.00    -0.271 OA
HETATM   15  N           1     -21.574  -6.781  -5.812  0.00  0.00    -0.344 N 
HETATM   16  H           1     -22.512  -7.155  -5.889  0.00  0.00     0.163 HD
BRANCH  15  17
HETATM   17  C           1     -20.642  -7.354  -4.861  0.00  0.00     0.189 C 
BRANCH  17  18
HETATM   18  C           1     -20.125  -8.668  -5.394  0.00  0.00     0.197 C 
HETATM   19  O           1     -20.920  -9.605  -5.625  0.00  0.00    -0.646 OA
HETATM   20  O           1     -18.903  -8.820  -5.603  0.00  0.00    -0.646 OA
ENDBRANCH  17  18
BRANCH  17  21
HETATM   21  C           1     -21.352  -7.589  -3.534  0.00  0.00     0.014 C 
HETATM   22  C           1     -20.384  -8.231  -2.549  0.00  0.00     0.012 C 
BRANCH  21  23
HETATM   23  C           1     -21.836  -6.257  -2.976  0.00  0.00     0.002 C 
HETATM   24  C           1     -22.251  -6.435  -1.521  0.00  0.00     0.005 C 
ENDBRANCH  21  23
ENDBRANCH  17  21
ENDBRANCH  15  17
ENDBRANCH   1  13
TORSDOF 10
ENDMDL
MODEL 3
REMARK VINA RESULT:      -5.4     11.797     14.290
REMARK  10 active torsions:
REMARK  status: ('A' for Active; 'I' for Inactive)
REMARK    1  A    between atoms: N_2  and  C_9 
REMARK    2  A    between atoms: O_5  and  P_6 
REMARK    3  A    between atoms: P_6  and  O_7 
REMARK    4  A    between atoms: O_7  and  C_8 
REMARK    5  A    between atoms: C_8  and  C_9 
REMARK    6  A    between atoms: C_9  and  C_10 
REMARK       I    between atoms: C_10  and  N_11 
REMARK    7  A    between atoms: N_11  and  C_15 
REMARK    8  A    between atoms: C_14  and  C_15 
REMARK    9  A    between atoms: C_15  and  C_17 
REMARK   10  A    between atoms: C_17  and  C_18 
ROOT
HETATM    1  C           1     -21.192  -5.075  -6.646  0.00  0.00     0.298 C 
ENDROOT
BRANCH   1   2
HETATM    2  N           1     -20.384  -5.928  -7.578  0.00  0.00    -0.064 N 
HETATM    3  H           1     -20.362  -5.488  -8.525  0.00  0.00     0.275 HD
HETATM    4  H           1     -19.409  -6.017  -7.211  0.00  0.00     0.275 HD
HETATM    5  H           1     -20.819  -6.877  -7.646  0.00  0.00     0.275 HD
ENDBRANCH   1   2
BRANCH   1   6
HETATM    6  C           1     -22.278  -4.352  -7.433  0.00  0.00     0.224 C 
BRANCH   6   7
HETATM    7  O           1     -22.159  -4.669  -8.794  0.00  0.00    -0.287 OA
BRANCH   7   8
HETATM    8  P           1     -23.345  -4.135  -9.751  0.00  0.00     0.406 P 
HETATM    9  O           1     -23.947  -5.278 -10.474  0.00  0.00    -0.624 OA
HETATM   10  O           1     -22.794  -3.169 -10.726  0.00  0.00    -0.624 OA
BRANCH   8  11
HETATM   11  O           1     -24.476  -3.410  -8.855  0.00  0.00    -0.300 OA
HETATM   12  H           1     -24.394  -2.493  -9.054  0.00  0.00     0.223 HD
ENDBRANCH   8  11
ENDBRANCH   7   8
ENDBRANCH   6   7
ENDBRANCH   1   6
BRANCH   1  13
HETATM   13  C           1     -21.829  -5.945  -5.592  0.00  0.00     0.251 C 
HETATM   14  O           1     -23.029  -5.945  -5.453  0.00  0.00    -0.271 OA
HETATM   15  N           1     -21.048  -6.735  -4.792  0.00  0.00    -0.344 N 
HETATM   16  H           1     -20.043  -6.736  -4.909  0.00  0.00     0.163 HD
BRANCH  15  17
HETATM   17  C           1     -21.661  -7.573  -3.779  0.00  0.00     0.189 C 
BRANCH  17  18
HETATM   18  C           1     -21.574  -6.883  -2.439  0.00  0.00     0.197 C 
HETATM   19  O           1     -22.290  -5.887  -2.201  0.00  0.00    -0.646 OA
HETATM   20  O           1     -20.785  -7.309  -1.568  0.00  0.00    -0.646 OA
ENDBRANCH  17  18
BRANCH  17  21
HETATM   21  C           1     -20.928  -8.906  -3.712  0.00  0.00     0.014 C 
HETATM   22  C           1     -21.939 -10.043  -3.786  0.00  0.00     0.012 C 
BRANCH  21  23
HETATM   23  C           1     -19.960  -9.011  -4.883  0.00  0.00     0.002 C 
HETATM   24  C           1     -19.893 -10.455  -5.361  0.00  0.00     0.005 C 
ENDBRANCH  21  23
ENDBRANCH  17  21
ENDBRANCH  15  17
ENDBRANCH   1  13
TORSDOF 10
ENDMDL
MODEL 4
REMARK VINA RESULT:      -5.3     19.760     21.553
REMARK  10 active torsions:
REMARK  status: ('A' for Active; 'I' for Inactive)
REMARK    1  A    between atoms: N_2  and  C_9 
REMARK    2  A    between atoms: O_5  and  P_6 
REMARK    3  A    between atoms: P_6  and  O_7 
REMARK    4  A    between atoms: O_7  and  C_8 
REMARK    5  A    between atoms: C_8  and  C_9 
REMARK    6  A    between atoms: C_9  and  C_10 
REMARK       I    between atoms: C_10  and  N_11 
REMARK    7  A    between atoms: N_11  and  C_15 
REMARK    8  A    between atoms: C_14  and  C_15 
REMARK    9  A    between atoms: C_15  and  C_17 
REMARK   10  A    between atoms: C_17  and  C_18 
ROOT
HETATM    1  C           1     -13.482   5.794 -20.804  0.00  0.00     0.298 C 
ENDROOT
BRANCH   1   2
HETATM    2  N           1     -13.990   5.267 -22.113  0.00  0.00    -0.064 N 
HETATM    3  H           1     -14.911   4.795 -21.967  0.00  0.00     0.275 HD
HETATM    4  H           1     -14.107   6.059 -22.786  0.00  0.00     0.275 HD
HETATM    5  H           1     -13.305   4.578 -22.501  0.00  0.00     0.275 HD
ENDBRANCH   1   2
BRANCH   1   6
HETATM    6  C           1     -12.496   4.799 -20.206  0.00  0.00     0.224 C 
BRANCH   6   7
HETATM    7  O           1     -11.760   5.424 -19.189  0.00  0.00    -0.287 OA
BRANCH   7   8
HETATM    8  P           1     -10.162   5.188 -19.224  0.00  0.00     0.406 P 
HETATM    9  O           1      -9.586   5.898 -20.388  0.00  0.00    -0.624 OA
HETATM   10  O           1      -9.880   3.740 -19.338  0.00  0.00    -0.624 OA
BRANCH   8  11
HETATM   11  O           1      -9.503   5.760 -17.865  0.00  0.00    -0.300 OA
HETATM   12  H           1      -8.684   6.140 -18.132  0.00  0.00     0.223 HD
ENDBRANCH   8  11
ENDBRANCH   7   8
ENDBRANCH   6   7
ENDBRANCH   1   6
BRANCH   1  13
HETATM   13  C           1     -12.790   7.115 -21.029  0.00  0.00     0.251 C 
HETATM   14  O           1     -12.401   7.413 -22.132  0.00  0.00    -0.271 OA
HETATM   15  N           1     -12.602   7.976 -19.981  0.00  0.00    -0.344 N 
HETATM   16  H           1     -12.929   7.727 -19.056  0.00  0.00     0.163 HD
BRANCH  15  17
HETATM   17  C           1     -11.938   9.247 -20.196  0.00  0.00     0.189 C 
BRANCH  17  18
HETATM   18  C           1     -10.535   9.179 -19.643  0.00  0.00     0.197 C 
HETATM   19  O           1      -9.576   9.616 -20.316  0.00  0.00    -0.646 OA
HETATM   20  O           1     -10.333   8.686 -18.513  0.00  0.00    -0.646 OA
ENDBRANCH  17  18
BRANCH  17  21
HETATM   21  C           1     -12.711  10.350 -19.486  0.00  0.00     0.014 C 
HETATM   22  C           1     -13.601  11.071 -20.490  0.00  0.00     0.012 C 
BRANCH  21  23
HETATM   23  C           1     -13.572   9.740 -18.389  0.00  0.00     0.002 C 
HETATM   24  C           1     -14.613  10.755 -17.936  0.00  0.00     0.005 C 
ENDBRANCH  21  23
ENDBRANCH  17  21
ENDBRANCH  15  17
ENDBRANCH   1  13
TORSDOF 10
ENDMDL
MODEL 5
REMARK VINA RESULT:      -5.1      2.599      4.654
REMARK  10 active torsions:
REMARK  status: ('A' for Active; 'I' for Inactive)
REMARK    1  A    between atoms: N_2  and  C_9 
REMARK    2  A    between atoms: O_5  and  P_6 
REMARK    3  A    between atoms: P_6  and  O_7 
REMARK    4  A    between atoms: O_7  and  C_8 
REMARK    5  A    between atoms: C_8  and  C_9 
REMARK    6  A    between atoms: C_9  and  C_10 
REMARK       I    between atoms: C_10  and  N_11 
REMARK    7  A    between atoms: N_11  and  C_15 
REMARK    8  A    between atoms: C_14  and  C_15 
REMARK    9  A    between atoms: C_15  and  C_17 
REMARK   10  A    between atoms: C_17  and  C_18 
ROOT
HETATM    1  C           1     -28.499  -5.754 -17.219  0.00  0.00     0.298 C 
ENDROOT
BRANCH   1   2
HETATM    2  N           1     -28.824  -7.092 -16.624  0.00  0.00    -0.064 N 
HETATM    3  H           1     -28.074  -7.776 -16.871  0.00  0.00     0.275 HD
HETATM    4  H           1     -28.888  -7.005 -15.584  0.00  0.00     0.275 HD
HETATM    5  H           1     -29.740  -7.428 -17.003  0.00  0.00     0.275 HD
ENDBRANCH   1   2
BRANCH   1   6
HETATM    6  C           1     -27.290  -5.163 -16.507  0.00  0.00     0.224 C 
BRANCH   6   7
HETATM    7  O           1     -26.141  -5.888 -16.855  0.00  0.00    -0.287 OA
BRANCH   7   8
HETATM    8  P           1     -25.523  -6.831 -15.699  0.00  0.00     0.406 P 
HETATM    9  O           1     -24.538  -7.761 -16.296  0.00  0.00    -0.624 OA
HETATM   10  O           1     -26.610  -7.606 -15.061  0.00  0.00    -0.624 OA
BRANCH   8  11
HETATM   11  O           1     -24.792  -5.915 -14.588  0.00  0.00    -0.300 OA
HETATM   12  H           1     -23.885  -6.169 -14.621  0.00  0.00     0.223 HD
ENDBRANCH   8  11
ENDBRANCH   7   8
ENDBRANCH   6   7
ENDBRANCH   1   6
BRANCH   1  13
HETATM   13  C           1     -28.188  -5.918 -18.686  0.00  0.00     0.251 C 
HETATM   14  O           1     -28.634  -5.134 -19.489  0.00  0.00    -0.271 OA
HETATM   15  N           1     -27.401  -6.956 -19.107  0.00  0.00    -0.344 N 
HETATM   16  H           1     -27.027  -7.613 -18.434  0.00  0.00     0.163 HD
BRANCH  15  17
HETATM   17  C           1     -27.101  -7.114 -20.517  0.00  0.00     0.189 C 
BRANCH  17  18
HETATM   18  C           1     -27.635  -8.441 -20.998  0.00  0.00     0.197 C 
HETATM   19  O           1     -28.753  -8.844 -20.608  0.00  0.00    -0.646 OA
HETATM   20  O           1     -26.960  -9.138 -21.785  0.00  0.00    -0.646 OA
ENDBRANCH  17  18
BRANCH  17  21
HETATM   21  C           1     -25.593  -7.069 -20.723  0.00  0.00     0.014 C 
HETATM   22  C           1     -25.234  -5.856 -21.571  0.00  0.00     0.012 C 
BRANCH  21  23
HETATM   23  C           1     -24.900  -6.967 -19.371  0.00  0.00     0.002 C 
HETATM   24  C           1     -23.425  -7.315 -19.527  0.00  0.00     0.005 C 
ENDBRANCH  21  23
ENDBRANCH  17  21
ENDBRANCH  15  17
ENDBRANCH   1  13
TORSDOF 10
ENDMDL
MODEL 6
REMARK VINA RESULT:      -5.0     15.273     17.415
REMARK  10 active torsions:
REMARK  status: ('A' for Active; 'I' for Inactive)
REMARK    1  A    between atoms: N_2  and  C_9 
REMARK    2  A    between atoms: O_5  and  P_6 
REMARK    3  A    between atoms: P_6  and  O_7 
REMARK    4  A    between atoms: O_7  and  C_8 
REMARK    5  A    between atoms: C_8  and  C_9 
REMARK    6  A    between atoms: C_9  and  C_10 
REMARK       I    between atoms: C_10  and  N_11 
REMARK    7  A    between atoms: N_11  and  C_15 
REMARK    8  A    between atoms: C_14  and  C_15 
REMARK    9  A    between atoms: C_15  and  C_17 
REMARK   10  A    between atoms: C_17  and  C_18 
ROOT
HETATM    1  C           1     -21.820  -7.701  -4.315  0.00  0.00     0.298 C 
ENDROOT
BRANCH   1   2
HETATM    2  N           1     -22.305  -6.292  -4.483  0.00  0.00    -0.064 N 
HETATM    3  H           1     -22.096  -5.963  -5.452  0.00  0.00     0.275 HD
HETATM    4  H           1     -23.337  -6.257  -4.318  0.00  0.00     0.275 HD
HETATM    5  H           1     -21.821  -5.673  -3.793  0.00  0.00     0.275 HD
ENDBRANCH   1   2
BRANCH   1   6
HETATM    6  C           1     -20.644  -7.948  -5.251  0.00  0.00     0.224 C 
BRANCH   6   7
HETATM    7  O           1     -20.390  -9.324  -5.331  0.00  0.00    -0.287 OA
BRANCH   7   8
HETATM    8  P           1     -18.840  -9.766  -5.217  0.00  0.00     0.406 P 
HETATM    9  O           1     -18.082  -9.203  -6.357  0.00  0.00    -0.624 OA
HETATM   10  O           1     -18.746 -11.242  -5.241  0.00  0.00    -0.624 OA
BRANCH   8  11
HETATM   11  O           1     -18.221  -9.210  -3.833  0.00  0.00    -0.300 OA
HETATM   12  H           1     -18.550  -9.790  -3.168  0.00  0.00     0.223 HD
ENDBRANCH   8  11
ENDBRANCH   7   8
ENDBRANCH   6   7
ENDBRANCH   1   6
BRANCH   1  13
HETATM   13  C           1     -21.379  -7.915  -2.888  0.00  0.00     0.251 C 
HETATM   14  O           1     -20.840  -7.020  -2.282  0.00  0.00    -0.271 OA
HETATM   15  N           1     -21.591  -9.123  -2.279  0.00  0.00    -0.344 N 
HETATM   16  H           1     -22.044  -9.872  -2.786  0.00  0.00     0.163 HD
BRANCH  15  17
HETATM   17  C           1     -21.168  -9.328  -0.907  0.00  0.00     0.189 C 
BRANCH  17  18
HETATM   18  C           1     -20.242 -10.518  -0.841  0.00  0.00     0.197 C 
HETATM   19  O           1     -20.028 -11.083   0.254  0.00  0.00    -0.646 OA
HETATM   20  O           1     -19.689 -10.938  -1.880  0.00  0.00    -0.646 OA
ENDBRANCH  17  18
BRANCH  17  21
HETATM   21  C           1     -22.389  -9.585  -0.034  0.00  0.00     0.014 C 
HETATM   22  C           1     -23.030  -8.256   0.344  0.00  0.00     0.012 C 
BRANCH  21  23
HETATM   23  C           1     -23.393 -10.433  -0.803  0.00  0.00     0.002 C 
HETATM   24  C           1     -23.759 -11.661   0.021  0.00  0.00     0.005 C 
ENDBRANCH  21  23
ENDBRANCH  17  21
ENDBRANCH  15  17
ENDBRANCH   1  13
TORSDOF 10
ENDMDL
MODEL 7
REMARK VINA RESULT:      -4.9     15.275     17.428
REMARK  10 active torsions:
REMARK  status: ('A' for Active; 'I' for Inactive)
REMARK    1  A    between atoms: N_2  and  C_9 
REMARK    2  A    between atoms: O_5  and  P_6 
REMARK    3  A    between atoms: P_6  and  O_7 
REMARK    4  A    between atoms: O_7  and  C_8 
REMARK    5  A    between atoms: C_8  and  C_9 
REMARK    6  A    between atoms: C_9  and  C_10 
REMARK       I    between atoms: C_10  and  N_11 
REMARK    7  A    between atoms: N_11  and  C_15 
REMARK    8  A    between atoms: C_14  and  C_15 
REMARK    9  A    between atoms: C_15  and  C_17 
REMARK   10  A    between atoms: C_17  and  C_18 
ROOT
HETATM    1  C           1     -20.370  -9.854  -3.976  0.00  0.00     0.298 C 
ENDROOT
BRANCH   1   2
HETATM    2  N           1     -20.796 -10.345  -5.328  0.00  0.00    -0.064 N 
HETATM    3  H           1     -21.538 -11.072  -5.218  0.00  0.00     0.275 HD
HETATM    4  H           1     -21.171  -9.545  -5.887  0.00  0.00     0.275 HD
HETATM    5  H           1     -19.973 -10.760  -5.822  0.00  0.00     0.275 HD
ENDBRANCH   1   2
BRANCH   1   6
HETATM    6  C           1     -19.847  -8.428  -4.096  0.00  0.00     0.224 C 
BRANCH   6   7
HETATM    7  O           1     -20.890  -7.525  -3.845  0.00  0.00    -0.287 OA
BRANCH   7   8
HETATM    8  P           1     -21.344  -6.604  -5.091  0.00  0.00     0.406 P 
HETATM    9  O           1     -21.114  -7.337  -6.356  0.00  0.00    -0.624 OA
HETATM   10  O           1     -20.553  -5.353  -5.094  0.00  0.00    -0.624 OA
BRANCH   8  11
HETATM   11  O           1     -22.914  -6.247  -4.955  0.00  0.00    -0.300 OA
HETATM   12  H           1     -23.069  -6.182  -4.029  0.00  0.00     0.223 HD
ENDBRANCH   8  11
ENDBRANCH   7   8
ENDBRANCH   6   7
ENDBRANCH   1   6
BRANCH   1  13
HETATM   13  C           1     -21.550  -9.880  -3.037  0.00  0.00     0.251 C 
HETATM   14  O           1     -22.602 -10.347  -3.402  0.00  0.00    -0.271 OA
HETATM   15  N           1     -21.429  -9.374  -1.771  0.00  0.00    -0.344 N 
HETATM   16  H           1     -20.546  -8.984  -1.464  0.00  0.00     0.163 HD
BRANCH  15  17
HETATM   17  C           1     -22.562  -9.400  -0.867  0.00  0.00     0.189 C 
BRANCH  17  18
HETATM   18  C           1     -22.773  -8.022  -0.288  0.00  0.00     0.197 C 
HETATM   19  O           1     -22.440  -7.011  -0.943  0.00  0.00    -0.646 OA
HETATM   20  O           1     -23.281  -7.893   0.846  0.00  0.00    -0.646 OA
ENDBRANCH  17  18
BRANCH  17  21
HETATM   21  C           1     -22.291 -10.388   0.260  0.00  0.00     0.014 C 
HETATM   22  C           1     -22.890 -11.741  -0.099  0.00  0.00     0.012 C 
BRANCH  21  23
HETATM   23  C           1     -20.788 -10.533   0.455  0.00  0.00     0.002 C 
HETATM   24  C           1     -20.372  -9.828   1.739  0.00  0.00     0.005 C 
ENDBRANCH  21  23
ENDBRANCH  17  21
ENDBRANCH  15  17
ENDBRANCH   1  13
TORSDOF 10
ENDMDL
MODEL 8
REMARK VINA RESULT:      -4.9     14.542     16.718
REMARK  10 active torsions:
REMARK  status: ('A' for Active; 'I' for Inactive)
REMARK    1  A    between atoms: N_2  and  C_9 
REMARK    2  A    between atoms: O_5  and  P_6 
REMARK    3  A    between atoms: P_6  and  O_7 
REMARK    4  A    between atoms: O_7  and  C_8 
REMARK    5  A    between atoms: C_8  and  C_9 
REMARK    6  A    between atoms: C_9  and  C_10 
REMARK       I    between atoms: C_10  and  N_11 
REMARK    7  A    between atoms: N_11  and  C_15 
REMARK    8  A    between atoms: C_14  and  C_15 
REMARK    9  A    between atoms: C_15  and  C_17 
REMARK   10  A    between atoms: C_17  and  C_18 
ROOT
HETATM    1  C           1     -21.787  -7.520  -4.426  0.00  0.00     0.298 C 
ENDROOT
BRANCH   1   2
HETATM    2  N           1     -22.657  -6.300  -4.472  0.00  0.00    -0.064 N 
HETATM    3  H           1     -23.344  -6.389  -5.254  0.00  0.00     0.275 HD
HETATM    4  H           1     -23.170  -6.203  -3.566  0.00  0.00     0.275 HD
HETATM    5  H           1     -22.062  -5.453  -4.628  0.00  0.00     0.275 HD
ENDBRANCH   1   2
BRANCH   1   6
HETATM    6  C           1     -20.575  -7.314  -5.325  0.00  0.00     0.224 C 
BRANCH   6   7
HETATM    7  O           1     -21.003  -6.967  -6.615  0.00  0.00    -0.287 OA
BRANCH   7   8
HETATM    8  P           1     -20.849  -5.410  -7.017  0.00  0.00     0.406 P 
HETATM    9  O           1     -20.131  -4.691  -5.940  0.00  0.00    -0.624 OA
HETATM   10  O           1     -22.191  -4.814  -7.200  0.00  0.00    -0.624 OA
BRANCH   8  11
HETATM   11  O           1     -20.014  -5.289  -8.394  0.00  0.00    -0.300 OA
HETATM   12  H           1     -19.235  -4.812  -8.165  0.00  0.00     0.223 HD
ENDBRANCH   8  11
ENDBRANCH   7   8
ENDBRANCH   6   7
ENDBRANCH   1   6
BRANCH   1  13
HETATM   13  C           1     -21.327  -7.756  -3.009  0.00  0.00     0.251 C 
HETATM   14  O           1     -20.800  -6.864  -2.388  0.00  0.00    -0.271 OA
HETATM   15  N           1     -21.506  -8.982  -2.426  0.00  0.00    -0.344 N 
HETATM   16  H           1     -21.948  -9.730  -2.946  0.00  0.00     0.163 HD
BRANCH  15  17
HETATM   17  C           1     -21.064  -9.209  -1.063  0.00  0.00     0.189 C 
BRANCH  17  18
HETATM   18  C           1     -20.034 -10.312  -1.047  0.00  0.00     0.197 C 
HETATM   19  O           1     -19.963 -11.087  -0.069  0.00  0.00    -0.646 OA
HETATM   20  O           1     -19.251 -10.449  -2.012  0.00  0.00    -0.646 OA
ENDBRANCH  17  18
BRANCH  17  21
HETATM   21  C           1     -22.256  -9.615  -0.205  0.00  0.00     0.014 C 
HETATM   22  C           1     -22.977  -8.365   0.282  0.00  0.00     0.012 C 
BRANCH  21  23
HETATM   23  C           1     -23.211 -10.463  -1.034  0.00  0.00     0.002 C 
HETATM   24  C           1     -24.117 -11.262  -0.106  0.00  0.00     0.005 C 
ENDBRANCH  21  23
ENDBRANCH  17  21
ENDBRANCH  15  17
ENDBRANCH   1  13
TORSDOF 10
ENDMDL
MODEL 9
REMARK VINA RESULT:      -4.9      4.221      6.958
REMARK  10 active torsions:
REMARK  status: ('A' for Active; 'I' for Inactive)
REMARK    1  A    between atoms: N_2  and  C_9 
REMARK    2  A    between atoms: O_5  and  P_6 
REMARK    3  A    between atoms: P_6  and  O_7 
REMARK    4  A    between atoms: O_7  and  C_8 
REMARK    5  A    between atoms: C_8  and  C_9 
REMARK    6  A    between atoms: C_9  and  C_10 
REMARK       I    between atoms: C_10  and  N_11 
REMARK    7  A    between atoms: N_11  and  C_15 
REMARK    8  A    between atoms: C_14  and  C_15 
REMARK    9  A    between atoms: C_15  and  C_17 
REMARK   10  A    between atoms: C_17  and  C_18 
ROOT
HETATM    1  C           1     -31.909  -5.880 -17.473  0.00  0.00     0.298 C 
ENDROOT
BRANCH   1   2
HETATM    2  N           1     -33.018  -6.851 -17.201  0.00  0.00    -0.064 N 
HETATM    3  H           1     -32.708  -7.545 -16.483  0.00  0.00     0.275 HD
HETATM    4  H           1     -33.855  -6.335 -16.847  0.00  0.00     0.275 HD
HETATM    5  H           1     -33.265  -7.353 -18.085  0.00  0.00     0.275 HD
ENDBRANCH   1   2
BRANCH   1   6
HETATM    6  C           1     -31.904  -4.801 -16.397  0.00  0.00     0.224 C 
BRANCH   6   7
HETATM    7  O           1     -32.925  -3.876 -16.659  0.00  0.00    -0.287 OA
BRANCH   7   8
HETATM    8  P           1     -34.172  -3.888 -15.632  0.00  0.00     0.406 P 
HETATM    9  O           1     -35.048  -2.727 -15.908  0.00  0.00    -0.624 OA
HETATM   10  O           1     -33.666  -3.807 -14.243  0.00  0.00    -0.624 OA
BRANCH   8  11
HETATM   11  O           1     -35.012  -5.254 -15.820  0.00  0.00    -0.300 OA
HETATM   12  H           1     -35.906  -5.016 -15.641  0.00  0.00     0.223 HD
ENDBRANCH   8  11
ENDBRANCH   7   8
ENDBRANCH   6   7
ENDBRANCH   1   6
BRANCH   1  13
HETATM   13  C           1     -30.588  -6.608 -17.460  0.00  0.00     0.251 C 
HETATM   14  O           1     -30.538  -7.774 -17.768  0.00  0.00    -0.271 OA
HETATM   15  N           1     -29.445  -5.947 -17.098  0.00  0.00    -0.344 N 
HETATM   16  H           1     -29.486  -4.968 -16.841  0.00  0.00     0.163 HD
BRANCH  15  17
HETATM   17  C           1     -28.174  -6.646 -17.086  0.00  0.00     0.189 C 
BRANCH  17  18
HETATM   18  C           1     -27.588  -6.597 -15.697  0.00  0.00     0.197 C 
HETATM   19  O           1     -27.256  -5.500 -15.197  0.00  0.00    -0.646 OA
HETATM   20  O           1     -27.434  -7.653 -15.046  0.00  0.00    -0.646 OA
ENDBRANCH  17  18
BRANCH  17  21
HETATM   21  C           1     -27.218  -5.977 -18.065  0.00  0.00     0.014 C 
HETATM   22  C           1     -25.821  -6.555 -17.882  0.00  0.00     0.012 C 
BRANCH  21  23
HETATM   23  C           1     -27.690  -6.233 -19.490  0.00  0.00     0.002 C 
HETATM   24  C           1     -26.525  -6.740 -20.329  0.00  0.00     0.005 C 
ENDBRANCH  21  23
ENDBRANCH  17  21
ENDBRANCH  15  17
ENDBRANCH   1  13
TORSDOF 10
ENDMDL
