MODEL 1
REMARK VINA RESULT:      -6.4      0.000      0.000
REMARK  8 active torsions:
REMARK  status: ('A' for Active; 'I' for Inactive)
REMARK    1  A    between atoms: N_2  and  C_11 
REMARK       I    between atoms: N_2  and  C_14 
REMARK       I    between atoms: N_5  and  C_18 
REMARK    2  A    between atoms: C_6  and  C_18 
REMARK    3  A    between atoms: C_6  and  C_11 
REMARK    4  A    between atoms: O_7  and  C_12 
REMARK    5  A    between atoms: N_9  and  C_13 
REMARK    6  A    between atoms: C_11  and  C_20 
REMARK    7  A    between atoms: C_12  and  C_13 
REMARK    8  A    between atoms: C_13  and  C_14 
ROOT
HETATM    1  N           1     -27.731  -6.497 -19.110  0.00  0.00    -0.344 N 
HETATM    2  O           1     -26.000  -6.190 -17.733  0.00  0.00    -0.271 OA
HETATM    3  C           1     -26.391  -6.508 -18.831  0.00  0.00     0.251 C 
HETATM    4  H           1     -28.058  -6.764 -20.030  0.00  0.00     0.163 HD
ENDROOT
BRANCH   1   5
HETATM    5  C           1     -28.681  -6.102 -18.089  0.00  0.00     0.194 C 
BRANCH   5   6
HETATM    6  C           1     -29.291  -4.755 -18.457  0.00  0.00     0.138 C 
BRANCH   6   7
HETATM    7  C           1     -28.890  -3.724 -17.431  0.00  0.00     0.217 C 
HETATM    8  O           1     -28.083  -4.003 -16.577  0.00  0.00    -0.274 OA
HETATM    9  N           1     -29.442  -2.471 -17.469  0.00  0.00    -0.370 N 
HETATM   10  H           1     -30.118  -2.237 -18.185  0.00  0.00     0.159 HD
HETATM   11  H           1     -29.173  -1.779 -16.782  0.00  0.00     0.159 HD
ENDBRANCH   6   7
ENDBRANCH   5   6
BRANCH   5  12
HETATM   12  C           1     -29.773  -7.139 -17.991  0.00  0.00     0.197 C 
HETATM   13  O           1     -30.741  -6.957 -17.221  0.00  0.00    -0.646 OA
HETATM   14  O           1     -29.709  -8.181 -18.678  0.00  0.00    -0.646 OA
ENDBRANCH   5  12
ENDBRANCH   1   5
BRANCH   3  15
HETATM   15  C           1     -25.402  -6.919 -19.894  0.00  0.00     0.297 C 
BRANCH  15  16
HETATM   16  N           1     -24.248  -7.634 -19.253  0.00  0.00    -0.064 N 
HETATM   17  H           1     -24.230  -8.626 -19.577  0.00  0.00     0.275 HD
HETATM   18  H           1     -23.355  -7.163 -19.521  0.00  0.00     0.275 HD
HETATM   19  H           1     -24.358  -7.608 -18.213  0.00  0.00     0.275 HD
ENDBRANCH  15  16
BRANCH  15  20
HETATM   20  C           1     -26.082  -7.847 -20.891  0.00  0.00     0.206 C 
BRANCH  20  21
HETATM   21  O           1     -25.108  -8.542 -21.622  0.00  0.00    -0.398 OA
HETATM   22  H           1     -25.419  -8.598 -22.510  0.00  0.00     0.209 HD
ENDBRANCH  20  21
ENDBRANCH  15  20
ENDBRANCH   3  15
TORSDOF 8
ENDMDL
MODEL 2
REMARK VINA RESULT:      -6.2     10.598     11.853
REMARK  8 active torsions:
REMARK  status: ('A' for Active; 'I' for Inactive)
REMARK    1  A    between atoms: N_2  and  C_11 
REMARK       I    between atoms: N_2  and  C_14 
REMARK       I    between atoms: N_5  and  C_18 
REMARK    2  A    between atoms: C_6  and  C_18 
REMARK    3  A    between atoms: C_6  and  C_11 
REMARK    4  A    between atoms: O_7  and  C_12 
REMARK    5  A    between atoms: N_9  and  C_13 
REMARK    6  A    between atoms: C_11  and  C_20 
REMARK    7  A    between atoms: C_12  and  C_13 
REMARK    8  A    between atoms: C_13  and  C_14 
ROOT
HETATM    1  N           1     -22.954  -4.537  -8.621  0.00  0.00    -0.344 N 
HETATM    2  O           1     -21.472  -3.219  -7.596  0.00  0.00    -0.271 OA
HETATM    3  C           1     -22.167  -4.206  -7.551  0.00  0.00     0.251 C 
HETATM    4  H           1     -23.536  -5.363  -8.584  0.00  0.00     0.163 HD
ENDROOT
BRANCH   1   5
HETATM    5  C           1     -22.952  -3.703  -9.808  0.00  0.00     0.194 C 
BRANCH   5   6
HETATM    6  C           1     -22.249  -4.437 -10.943  0.00  0.00     0.138 C 
BRANCH   6   7
HETATM    7  C           1     -20.777  -4.108 -10.920  0.00  0.00     0.217 C 
HETATM    8  O           1     -20.009  -4.814 -10.310  0.00  0.00    -0.274 OA
HETATM    9  N           1     -20.312  -3.008 -11.590  0.00  0.00    -0.370 N 
HETATM   10  H           1     -20.955  -2.417 -12.100  0.00  0.00     0.159 HD
HETATM   11  H           1     -19.325  -2.787 -11.574  0.00  0.00     0.159 HD
ENDBRANCH   6   7
ENDBRANCH   5   6
BRANCH   5  12
HETATM   12  C           1     -24.375  -3.400 -10.210  0.00  0.00     0.197 C 
HETATM   13  O           1     -25.140  -2.820  -9.409  0.00  0.00    -0.646 OA
HETATM   14  O           1     -24.788  -3.728 -11.342  0.00  0.00    -0.646 OA
ENDBRANCH   5  12
ENDBRANCH   1   5
BRANCH   3  15
HETATM   15  C           1     -22.168  -5.072  -6.316  0.00  0.00     0.297 C 
BRANCH  15  16
HETATM   16  N           1     -23.572  -5.504  -6.010  0.00  0.00    -0.064 N 
HETATM   17  H           1     -24.245  -4.890  -6.522  0.00  0.00     0.275 HD
HETATM   18  H           1     -23.705  -6.495  -6.313  0.00  0.00     0.275 HD
HETATM   19  H           1     -23.742  -5.428  -4.982  0.00  0.00     0.275 HD
ENDBRANCH  15  16
BRANCH  15  20
HETATM   20  C           1     -21.301  -6.300  -6.555  0.00  0.00     0.206 C 
BRANCH  20  21
HETATM   21  O           1     -20.459  -6.073  -7.653  0.00  0.00    -0.398 OA
HETATM   22  H           1     -19.793  -5.470  -7.368  0.00  0.00     0.209 HD
ENDBRANCH  20  21
ENDBRANCH  15  20
ENDBRANCH   3  15
TORSDOF 8
ENDMDL
MODEL 3
REMARK VINA RESULT:      -6.1      1.682      2.927
REMARK  8 active torsions:
REMARK  status: ('A' for Active; 'I' for Inactive)
REMARK    1  A    between atoms: N_2  and  C_11 
REMARK       I    between atoms: N_2  and  C_14 
REMARK       I    between atoms: N_5  and  C_18 
REMARK    2  A    between atoms: C_6  and  C_18 
REMARK    3  A    between atoms: C_6  and  C_11 
REMARK    4  A    between atoms: O_7  and  C_12 
REMARK    5  A    between atoms: N_9  and  C_13 
REMARK    6  A    between atoms: C_11  and  C_20 
REMARK    7  A    between atoms: C_12  and  C_13 
REMARK    8  A    between atoms: C_13  and  C_14 
ROOT
HETATM    1  N           1     -26.981  -6.625 -18.466  0.00  0.00    -0.344 N 
HETATM    2  O           1     -27.106  -5.917 -20.579  0.00  0.00    -0.271 OA
HETATM    3  C           1     -26.449  -6.444 -19.714  0.00  0.00     0.251 C 
HETATM    4  H           1     -26.430  -7.067 -17.740  0.00  0.00     0.163 HD
ENDROOT
BRANCH   1   5
HETATM    5  C           1     -28.333  -6.185 -18.183  0.00  0.00     0.194 C 
BRANCH   5   6
HETATM    6  C           1     -29.062  -7.262 -17.389  0.00  0.00     0.138 C 
BRANCH   6   7
HETATM    7  C           1     -30.492  -7.353 -17.860  0.00  0.00     0.217 C 
HETATM    8  O           1     -30.775  -8.058 -18.800  0.00  0.00    -0.274 OA
HETATM    9  N           1     -31.470  -6.637 -17.222  0.00  0.00    -0.370 N 
HETATM   10  H           1     -31.233  -6.047 -16.435  0.00  0.00     0.159 HD
HETATM   11  H           1     -32.429  -6.699 -17.538  0.00  0.00     0.159 HD
ENDBRANCH   6   7
ENDBRANCH   5   6
BRANCH   5  12
HETATM   12  C           1     -28.288  -4.909 -17.378  0.00  0.00     0.197 C 
HETATM   13  O           1     -29.231  -4.092 -17.449  0.00  0.00    -0.646 OA
HETATM   14  O           1     -27.307  -4.670 -16.641  0.00  0.00    -0.646 OA
ENDBRANCH   5  12
ENDBRANCH   1   5
BRANCH   3  15
HETATM   15  C           1     -25.042  -6.902 -20.008  0.00  0.00     0.297 C 
BRANCH  15  16
HETATM   16  N           1     -24.423  -7.451 -18.756  0.00  0.00    -0.064 N 
HETATM   17  H           1     -23.384  -7.480 -18.865  0.00  0.00     0.275 HD
HETATM   18  H           1     -24.672  -6.839 -17.947  0.00  0.00     0.275 HD
HETATM   19  H           1     -24.783  -8.418 -18.586  0.00  0.00     0.275 HD
ENDBRANCH  15  16
BRANCH  15  20
HETATM   20  C           1     -25.072  -7.987 -21.076  0.00  0.00     0.206 C 
BRANCH  20  21
HETATM   21  O           1     -26.365  -8.522 -21.162  0.00  0.00    -0.398 OA
HETATM   22  H           1     -26.944  -7.910 -20.741  0.00  0.00     0.209 HD
ENDBRANCH  20  21
ENDBRANCH  15  20
ENDBRANCH   3  15
TORSDOF 8
ENDMDL
MODEL 4
REMARK VINA RESULT:      -5.8     10.832     12.049
REMARK  8 active torsions:
REMARK  status: ('A' for Active; 'I' for Inactive)
REMARK    1  A    between atoms: N_2  and  C_11 
REMARK       I    between atoms: N_2  and  C_14 
REMARK       I    between atoms: N_5  and  C_18 
REMARK    2  A    between atoms: C_6  and  C_18 
REMARK    3  A    between atoms: C_6  and  C_11 
REMARK    4  A    between atoms: O_7  and  C_12 
REMARK    5  A    between atoms: N_9  and  C_13 
REMARK    6  A    between atoms: C_11  and  C_20 
REMARK    7  A    between atoms: C_12  and  C_13 
REMARK    8  A    between atoms: C_13  and  C_14 
ROOT
HETATM    1  N           1     -21.315  -4.394  -8.694  0.00  0.00    -0.344 N 
HETATM    2  O           1     -23.036  -4.714  -7.308  0.00  0.00    -0.271 OA
HETATM    3  C           1     -21.845  -4.560  -7.444  0.00  0.00     0.251 C 
HETATM    4  H           1     -20.317  -4.266  -8.808  0.00  0.00     0.163 HD
ENDROOT
BRANCH   1   5
HETATM    5  C           1     -22.181  -4.403  -9.857  0.00  0.00     0.194 C 
BRANCH   5   6
HETATM    6  C           1     -23.119  -3.203  -9.800  0.00  0.00     0.138 C 
BRANCH   6   7
HETATM    7  C           1     -24.518  -3.640 -10.154  0.00  0.00     0.217 C 
HETATM    8  O           1     -25.134  -3.057 -11.014  0.00  0.00    -0.274 OA
HETATM    9  N           1     -25.090  -4.699  -9.500  0.00  0.00    -0.370 N 
HETATM   10  H           1     -24.573  -5.188  -8.780  0.00  0.00     0.159 HD
HETATM   11  H           1     -26.028  -4.993  -9.738  0.00  0.00     0.159 HD
ENDBRANCH   6   7
ENDBRANCH   5   6
BRANCH   5  12
HETATM   12  C           1     -21.342  -4.327 -11.109  0.00  0.00     0.197 C 
HETATM   13  O           1     -21.878  -4.054 -12.205  0.00  0.00    -0.646 OA
HETATM   14  O           1     -20.112  -4.539 -11.051  0.00  0.00    -0.646 OA
ENDBRANCH   5  12
ENDBRANCH   1   5
BRANCH   3  15
HETATM   15  C           1     -20.944  -4.551  -6.234  0.00  0.00     0.297 C 
BRANCH  15  16
HETATM   16  N           1     -21.518  -5.448  -5.177  0.00  0.00    -0.064 N 
HETATM   17  H           1     -21.660  -6.405  -5.571  0.00  0.00     0.275 HD
HETATM   18  H           1     -20.859  -5.498  -4.368  0.00  0.00     0.275 HD
HETATM   19  H           1     -22.436  -5.063  -4.856  0.00  0.00     0.275 HD
ENDBRANCH  15  16
BRANCH  15  20
HETATM   20  C           1     -19.560  -5.051  -6.626  0.00  0.00     0.206 C 
BRANCH  20  21
HETATM   21  O           1     -19.666  -6.338  -7.173  0.00  0.00    -0.398 OA
HETATM   22  H           1     -19.300  -6.935  -6.542  0.00  0.00     0.209 HD
ENDBRANCH  20  21
ENDBRANCH  15  20
ENDBRANCH   3  15
TORSDOF 8
ENDMDL
MODEL 5
REMARK VINA RESULT:      -5.4      2.030      3.337
REMARK  8 active torsions:
REMARK  status: ('A' for Active; 'I' for Inactive)
REMARK    1  A    between atoms: N_2  and  C_11 
REMARK       I    between atoms: N_2  and  C_14 
REMARK       I    between atoms: N_5  and  C_18 
REMARK    2  A    between atoms: C_6  and  C_18 
REMARK    3  A    between atoms: C_6  and  C_11 
REMARK    4  A    between atoms: O_7  and  C_12 
REMARK    5  A    between atoms: N_9  and  C_13 
REMARK    6  A    between atoms: C_11  and  C_20 
REMARK    7  A    between atoms: C_12  and  C_13 
REMARK    8  A    between atoms: C_13  and  C_14 
ROOT
HETATM    1  N           1     -27.286  -6.660 -18.771  0.00  0.00    -0.344 N 
HETATM    2  O           1     -26.732  -5.631 -20.674  0.00  0.00    -0.271 OA
HETATM    3  C           1     -26.565  -6.569 -19.931  0.00  0.00     0.251 C 
HETATM    4  H           1     -27.146  -7.445 -18.149  0.00  0.00     0.163 HD
ENDROOT
BRANCH   1   5
HETATM    5  C           1     -28.249  -5.630 -18.433  0.00  0.00     0.194 C 
BRANCH   5   6
HETATM    6  C           1     -29.636  -6.251 -18.321  0.00  0.00     0.138 C 
BRANCH   6   7
HETATM    7  C           1     -29.506  -7.726 -18.034  0.00  0.00     0.217 C 
HETATM    8  O           1     -29.332  -8.109 -16.901  0.00  0.00    -0.274 OA
HETATM    9  N           1     -29.586  -8.631 -19.058  0.00  0.00    -0.370 N 
HETATM   10  H           1     -29.732  -8.311 -20.007  0.00  0.00     0.159 HD
HETATM   11  H           1     -29.499  -9.621 -18.866  0.00  0.00     0.159 HD
ENDBRANCH   6   7
ENDBRANCH   5   6
BRANCH   5  12
HETATM   12  C           1     -27.871  -5.001 -17.115  0.00  0.00     0.197 C 
HETATM   13  O           1     -26.713  -5.139 -16.666  0.00  0.00    -0.646 OA
HETATM   14  O           1     -28.716  -4.341 -16.472  0.00  0.00    -0.646 OA
ENDBRANCH   5  12
ENDBRANCH   1   5
BRANCH   3  15
HETATM   15  C           1     -25.562  -7.640 -20.283  0.00  0.00     0.297 C 
BRANCH  15  16
HETATM   16  N           1     -25.289  -7.603 -21.757  0.00  0.00    -0.064 N 
HETATM   17  H           1     -24.738  -8.447 -22.031  0.00  0.00     0.275 HD
HETATM   18  H           1     -26.194  -7.593 -22.279  0.00  0.00     0.275 HD
HETATM   19  H           1     -24.744  -6.741 -21.988  0.00  0.00     0.275 HD
ENDBRANCH  15  16
BRANCH  15  20
HETATM   20  C           1     -24.267  -7.394 -19.521  0.00  0.00     0.206 C 
BRANCH  20  21
HETATM   21  O           1     -24.505  -6.497 -18.470  0.00  0.00    -0.398 OA
HETATM   22  H           1     -23.816  -6.623 -17.840  0.00  0.00     0.209 HD
ENDBRANCH  20  21
ENDBRANCH  15  20
ENDBRANCH   3  15
TORSDOF 8
ENDMDL
MODEL 6
REMARK VINA RESULT:      -5.4     11.397     12.718
REMARK  8 active torsions:
REMARK  status: ('A' for Active; 'I' for Inactive)
REMARK    1  A    between atoms: N_2  and  C_11 
REMARK       I    between atoms: N_2  and  C_14 
REMARK       I    between atoms: N_5  and  C_18 
REMARK    2  A    between atoms: C_6  and  C_18 
REMARK    3  A    between atoms: C_6  and  C_11 
REMARK    4  A    between atoms: O_7  and  C_12 
REMARK    5  A    between atoms: N_9  and  C_13 
REMARK    6  A    between atoms: C_11  and  C_20 
REMARK    7  A    between atoms: C_12  and  C_13 
REMARK    8  A    between atoms: C_13  and  C_14 
ROOT
HETATM    1  N           1     -22.208  -5.295  -8.472  0.00  0.00    -0.344 N 
HETATM    2  O           1     -22.918  -3.184  -8.624  0.00  0.00    -0.271 OA
HETATM    3  C           1     -23.051  -4.336  -8.963  0.00  0.00     0.251 C 
HETATM    4  H           1     -22.320  -6.260  -8.756  0.00  0.00     0.163 HD
ENDROOT
BRANCH   1   5
HETATM    5  C           1     -21.156  -4.930  -7.544  0.00  0.00     0.194 C 
BRANCH   5   6
HETATM    6  C           1     -20.935  -6.067  -6.554  0.00  0.00     0.138 C 
BRANCH   6   7
HETATM    7  C           1     -21.890  -5.918  -5.396  0.00  0.00     0.217 C 
HETATM    8  O           1     -23.076  -5.807  -5.600  0.00  0.00    -0.274 OA
HETATM    9  N           1     -21.413  -5.910  -4.112  0.00  0.00    -0.370 N 
HETATM   10  H           1     -20.420  -6.003  -3.940  0.00  0.00     0.159 HD
HETATM   11  H           1     -22.053  -5.810  -3.335  0.00  0.00     0.159 HD
ENDBRANCH   6   7
ENDBRANCH   5   6
BRANCH   5  12
HETATM   12  C           1     -19.880  -4.673  -8.308  0.00  0.00     0.197 C 
HETATM   13  O           1     -19.860  -4.797  -9.551  0.00  0.00    -0.646 OA
HETATM   14  O           1     -18.843  -4.337  -7.697  0.00  0.00    -0.646 OA
ENDBRANCH   5  12
ENDBRANCH   1   5
BRANCH   3  15
HETATM   15  C           1     -24.147  -4.715  -9.928  0.00  0.00     0.297 C 
BRANCH  15  16
HETATM   16  N           1     -25.243  -3.692  -9.867  0.00  0.00    -0.064 N 
HETATM   17  H           1     -25.336  -3.225 -10.796  0.00  0.00     0.275 HD
HETATM   18  H           1     -26.144  -4.162  -9.621  0.00  0.00     0.275 HD
HETATM   19  H           1     -25.012  -2.979  -9.139  0.00  0.00     0.275 HD
ENDBRANCH  15  16
BRANCH  15  20
HETATM   20  C           1     -23.583  -4.770 -11.342  0.00  0.00     0.206 C 
BRANCH  20  21
HETATM   21  O           1     -22.217  -4.457 -11.313  0.00  0.00    -0.398 OA
HETATM   22  H           1     -21.795  -5.117 -10.789  0.00  0.00     0.209 HD
ENDBRANCH  20  21
ENDBRANCH  15  20
ENDBRANCH   3  15
TORSDOF 8
ENDMDL
MODEL 7
REMARK VINA RESULT:      -5.2      1.786      2.490
REMARK  8 active torsions:
REMARK  status: ('A' for Active; 'I' for Inactive)
REMARK    1  A    between atoms: N_2  and  C_11 
REMARK       I    between atoms: N_2  and  C_14 
REMARK       I    between atoms: N_5  and  C_18 
REMARK    2  A    between atoms: C_6  and  C_18 
REMARK    3  A    between atoms: C_6  and  C_11 
REMARK    4  A    between atoms: O_7  and  C_12 
REMARK    5  A    between atoms: N_9  and  C_13 
REMARK    6  A    between atoms: C_11  and  C_20 
REMARK    7  A    between atoms: C_12  and  C_13 
REMARK    8  A    between atoms: C_13  and  C_14 
ROOT
HETATM    1  N           1     -26.227  -6.674 -18.077  0.00  0.00    -0.344 N 
HETATM    2  O           1     -27.213  -5.850 -19.903  0.00  0.00    -0.271 OA
HETATM    3  C           1     -26.292  -6.472 -19.429  0.00  0.00     0.251 C 
HETATM    4  H           1     -25.456  -7.195 -17.679  0.00  0.00     0.163 HD
ENDROOT
BRANCH   1   5
HETATM    5  C           1     -27.264  -6.142 -17.214  0.00  0.00     0.194 C 
BRANCH   5   6
HETATM    6  C           1     -28.621  -6.668 -17.666  0.00  0.00     0.138 C 
BRANCH   6   7
HETATM    7  C           1     -29.625  -5.542 -17.658  0.00  0.00     0.217 C 
HETATM    8  O           1     -30.622  -5.626 -16.980  0.00  0.00    -0.274 OA
HETATM    9  N           1     -29.406  -4.425 -18.419  0.00  0.00    -0.370 N 
HETATM   10  H           1     -28.571  -4.355 -18.987  0.00  0.00     0.159 HD
HETATM   11  H           1     -30.079  -3.670 -18.414  0.00  0.00     0.159 HD
ENDBRANCH   6   7
ENDBRANCH   5   6
BRANCH   5  12
HETATM   12  C           1     -27.005  -6.576 -15.792  0.00  0.00     0.197 C 
HETATM   13  O           1     -25.952  -6.228 -15.214  0.00  0.00    -0.646 OA
HETATM   14  O           1     -27.842  -7.284 -15.192  0.00  0.00    -0.646 OA
ENDBRANCH   5  12
ENDBRANCH   1   5
BRANCH   3  15
HETATM   15  C           1     -25.214  -7.025 -20.327  0.00  0.00     0.297 C 
BRANCH  15  16
HETATM   16  N           1     -24.096  -7.571 -19.488  0.00  0.00    -0.064 N 
HETATM   17  H           1     -23.342  -7.939 -20.110  0.00  0.00     0.275 HD
HETATM   18  H           1     -23.710  -6.810 -18.885  0.00  0.00     0.275 HD
HETATM   19  H           1     -24.460  -8.344 -18.886  0.00  0.00     0.275 HD
ENDBRANCH  15  16
BRANCH  15  20
HETATM   20  C           1     -25.791  -8.138 -21.190  0.00  0.00     0.206 C 
BRANCH  20  21
HETATM   21  O           1     -24.817  -8.581 -22.096  0.00  0.00    -0.398 OA
HETATM   22  H           1     -25.274  -8.928 -22.843  0.00  0.00     0.209 HD
ENDBRANCH  20  21
ENDBRANCH  15  20
ENDBRANCH   3  15
TORSDOF 8
ENDMDL
MODEL 8
REMARK VINA RESULT:      -5.1     12.071     13.225
REMARK  8 active torsions:
REMARK  status: ('A' for Active; 'I' for Inactive)
REMARK    1  A    between atoms: N_2  and  C_11 
REMARK       I    between atoms: N_2  and  C_14 
REMARK       I    between atoms: N_5  and  C_18 
REMARK    2  A    between atoms: C_6  and  C_18 
REMARK    3  A    between atoms: C_6  and  C_11 
REMARK    4  A    between atoms: O_7  and  C_12 
REMARK    5  A    between atoms: N_9  and  C_13 
REMARK    6  A    between atoms: C_11  and  C_20 
REMARK    7  A    between atoms: C_12  and  C_13 
REMARK    8  A    between atoms: C_13  and  C_14 
ROOT
HETATM    1  N           1     -21.839  -4.835  -7.050  0.00  0.00    -0.344 N 
HETATM    2  O           1     -20.877  -6.848  -7.137  0.00  0.00    -0.271 OA
HETATM    3  C           1     -21.322  -5.955  -6.457  0.00  0.00     0.251 C 
HETATM    4  H           1     -22.212  -4.087  -6.481  0.00  0.00     0.163 HD
ENDROOT
BRANCH   1   5
HETATM    5  C           1     -21.853  -4.722  -8.496  0.00  0.00     0.194 C 
BRANCH   5   6
HETATM    6  C           1     -22.864  -3.661  -8.912  0.00  0.00     0.138 C 
BRANCH   6   7
HETATM    7  C           1     -23.961  -4.302  -9.726  0.00  0.00     0.217 C 
HETATM    8  O           1     -23.703  -5.214 -10.475  0.00  0.00    -0.274 OA
HETATM    9  N           1     -25.249  -3.850  -9.615  0.00  0.00    -0.370 N 
HETATM   10  H           1     -25.465  -3.087  -8.987  0.00  0.00     0.159 HD
HETATM   11  H           1     -25.984  -4.280 -10.160  0.00  0.00     0.159 HD
ENDBRANCH   6   7
ENDBRANCH   5   6
BRANCH   5  12
HETATM   12  C           1     -20.480  -4.327  -8.982  0.00  0.00     0.197 C 
HETATM   13  O           1     -19.733  -3.640  -8.252  0.00  0.00    -0.646 OA
HETATM   14  O           1     -20.091  -4.686 -10.114  0.00  0.00    -0.646 OA
ENDBRANCH   5  12
ENDBRANCH   1   5
BRANCH   3  15
HETATM   15  C           1     -21.307  -6.073  -4.953  0.00  0.00     0.297 C 
BRANCH  15  16
HETATM   16  N           1     -22.717  -6.134  -4.443  0.00  0.00    -0.064 N 
HETATM   17  H           1     -22.875  -5.359  -3.761  0.00  0.00     0.275 HD
HETATM   18  H           1     -23.381  -6.035  -5.243  0.00  0.00     0.275 HD
HETATM   19  H           1     -22.876  -7.053  -3.969  0.00  0.00     0.275 HD
ENDBRANCH  15  16
BRANCH  15  20
HETATM   20  C           1     -20.567  -7.341  -4.549  0.00  0.00     0.206 C 
BRANCH  20  21
HETATM   21  O           1     -21.380  -8.456  -4.797  0.00  0.00    -0.398 OA
HETATM   22  H           1     -22.168  -8.136  -5.204  0.00  0.00     0.209 HD
ENDBRANCH  20  21
ENDBRANCH  15  20
ENDBRANCH   3  15
TORSDOF 8
ENDMDL
MODEL 9
REMARK VINA RESULT:      -5.0     17.204     17.917
REMARK  8 active torsions:
REMARK  status: ('A' for Active; 'I' for Inactive)
REMARK    1  A    between atoms: N_2  and  C_11 
REMARK       I    between atoms: N_2  and  C_14 
REMARK       I    between atoms: N_5  and  C_18 
REMARK    2  A    between atoms: C_6  and  C_18 
REMARK    3  A    between atoms: C_6  and  C_11 
REMARK    4  A    between atoms: O_7  and  C_12 
REMARK    5  A    between atoms: N_9  and  C_13 
REMARK    6  A    between atoms: C_11  and  C_20 
REMARK    7  A    between atoms: C_12  and  C_13 
REMARK    8  A    between atoms: C_13  and  C_14 
ROOT
HETATM    1  N           1     -21.472  -8.701  -2.497  0.00  0.00    -0.344 N 
HETATM    2  O           1     -19.329  -8.767  -3.120  0.00  0.00    -0.271 OA
HETATM    3  C           1     -20.463  -8.446  -3.385  0.00  0.00     0.251 C 
HETATM    4  H           1     -22.422  -8.433  -2.719  0.00  0.00     0.163 HD
ENDROOT
BRANCH   1   5
HETATM    5  C           1     -21.180  -9.356  -1.236  0.00  0.00     0.194 C 
BRANCH   5   6
HETATM    6  C           1     -21.238  -8.334  -0.108  0.00  0.00     0.138 C 
BRANCH   6   7
HETATM    7  C           1     -22.551  -7.593  -0.166  0.00  0.00     0.217 C 
HETATM    8  O           1     -22.692  -6.672  -0.935  0.00  0.00    -0.274 OA
HETATM    9  N           1     -23.583  -7.966   0.653  0.00  0.00    -0.370 N 
HETATM   10  H           1     -23.466  -8.738   1.297  0.00  0.00     0.159 HD
HETATM   11  H           1     -24.464  -7.469   0.614  0.00  0.00     0.159 HD
ENDBRANCH   6   7
ENDBRANCH   5   6
BRANCH   5  12
HETATM   12  C           1     -22.199 -10.441  -0.986  0.00  0.00     0.197 C 
HETATM   13  O           1     -22.296 -10.958   0.148  0.00  0.00    -0.646 OA
HETATM   14  O           1     -22.947 -10.822  -1.913  0.00  0.00    -0.646 OA
ENDBRANCH   5  12
ENDBRANCH   1   5
BRANCH   3  15
HETATM   15  C           1     -20.766  -7.765  -4.697  0.00  0.00     0.297 C 
BRANCH  15  16
HETATM   16  N           1     -21.070  -8.800  -5.739  0.00  0.00    -0.064 N 
HETATM   17  H           1     -20.602  -8.540  -6.636  0.00  0.00     0.275 HD
HETATM   18  H           1     -20.716  -9.730  -5.419  0.00  0.00     0.275 HD
HETATM   19  H           1     -22.104  -8.852  -5.886  0.00  0.00     0.275 HD
ENDBRANCH  15  16
BRANCH  15  20
HETATM   20  C           1     -21.969  -6.848  -4.528  0.00  0.00     0.206 C 
BRANCH  20  21
HETATM   21  O           1     -21.737  -5.961  -3.467  0.00  0.00    -0.398 OA
HETATM   22  H           1     -22.170  -6.320  -2.710  0.00  0.00     0.209 HD
ENDBRANCH  20  21
ENDBRANCH  15  20
ENDBRANCH   3  15
TORSDOF 8
ENDMDL
