MODEL 1
REMARK VINA RESULT:      -5.4      0.000      0.000
REMARK  8 active torsions:
REMARK  status: ('A' for Active; 'I' for Inactive)
REMARK    1  A    between atoms: C_1  and  C_9 
REMARK    2  A    between atoms: C_1  and  C_20 
REMARK    3  A    between atoms: C_1  and  N_15 
REMARK    4  A    between atoms: N_6  and  C_19 
REMARK    5  A    between atoms: O_7  and  C_11 
REMARK    6  A    between atoms: C_9  and  S_17 
REMARK       I    between atoms: C_10  and  N_15 
REMARK    7  A    between atoms: C_10  and  C_19 
REMARK    8  A    between atoms: C_11  and  C_19 
ROOT
HETATM    1  H           1     -35.315  -2.041 -13.753  0.00  0.00     0.163 HD
HETATM    2  C           1     -34.118  -2.556 -12.145  0.00  0.00     0.251 C 
HETATM    3  O           1     -33.580  -2.152 -11.141  0.00  0.00    -0.271 OA
HETATM    4  N           1     -34.865  -1.702 -12.912  0.00  0.00    -0.344 N 
ENDROOT
BRANCH   2   5
HETATM    5  C           1     -33.968  -4.001 -12.553  0.00  0.00     0.302 C 
BRANCH   5   6
HETATM    6  N           1     -32.556  -4.444 -12.310  0.00  0.00    -0.064 N 
HETATM    7  H           1     -32.522  -5.487 -12.257  0.00  0.00     0.275 HD
HETATM    8  H           1     -31.948  -4.116 -13.095  0.00  0.00     0.275 HD
HETATM    9  H           1     -32.212  -4.036 -11.411  0.00  0.00     0.275 HD
ENDBRANCH   5   6
BRANCH   5  10
HETATM   10  C           1     -34.917  -4.863 -11.731  0.00  0.00     0.153 C 
HETATM   11  C           1     -34.118  -5.678 -10.723  0.00  0.00     0.042 C 
BRANCH  10  12
HETATM   12  O           1     -35.826  -4.040 -11.050  0.00  0.00    -0.393 OA
HETATM   13  H           1     -35.526  -3.153 -11.158  0.00  0.00     0.210 HD
ENDBRANCH  10  12
ENDBRANCH   5  10
ENDBRANCH   2   5
BRANCH   4  14
HETATM   14  C           1     -35.010  -0.314 -12.521  0.00  0.00     0.194 C 
BRANCH  14  15
HETATM   15  C           1     -35.094   0.558 -13.766  0.00  0.00     0.106 C 
BRANCH  15  16
HETATM   16  S           1     -35.637  -0.449 -15.175  0.00  0.00    -0.180 SA
HETATM   17  H           1     -36.897  -0.631 -14.739  0.00  0.00     0.101 HD
ENDBRANCH  15  16
ENDBRANCH  14  15
BRANCH  14  18
HETATM   18  C           1     -36.270  -0.151 -11.705  0.00  0.00     0.197 C 
HETATM   19  O           1     -37.333  -0.687 -12.086  0.00  0.00    -0.646 OA
HETATM   20  O           1     -36.249   0.517 -10.650  0.00  0.00    -0.646 OA
ENDBRANCH  14  18
ENDBRANCH   4  14
TORSDOF 8
ENDMDL
MODEL 2
REMARK VINA RESULT:      -5.2      2.520      4.737
REMARK  8 active torsions:
REMARK  status: ('A' for Active; 'I' for Inactive)
REMARK    1  A    between atoms: C_1  and  C_9 
REMARK    2  A    between atoms: C_1  and  C_20 
REMARK    3  A    between atoms: C_1  and  N_15 
REMARK    4  A    between atoms: N_6  and  C_19 
REMARK    5  A    between atoms: O_7  and  C_11 
REMARK    6  A    between atoms: C_9  and  S_17 
REMARK       I    between atoms: C_10  and  N_15 
REMARK    7  A    between atoms: C_10  and  C_19 
REMARK    8  A    between atoms: C_11  and  C_19 
ROOT
HETATM    1  H           1     -33.991  -1.260 -13.725  0.00  0.00     0.163 HD
HETATM    2  C           1     -35.987  -0.730 -13.573  0.00  0.00     0.251 C 
HETATM    3  O           1     -37.028  -0.946 -12.999  0.00  0.00    -0.271 OA
HETATM    4  N           1     -34.863  -1.440 -13.243  0.00  0.00    -0.344 N 
ENDROOT
BRANCH   2   5
HETATM    5  C           1     -35.924   0.320 -14.655  0.00  0.00     0.302 C 
BRANCH   5   6
HETATM    6  N           1     -34.492   0.663 -14.936  0.00  0.00    -0.064 N 
HETATM    7  H           1     -34.345   1.688 -14.798  0.00  0.00     0.275 HD
HETATM    8  H           1     -33.872   0.133 -14.282  0.00  0.00     0.275 HD
HETATM    9  H           1     -34.259   0.405 -15.922  0.00  0.00     0.275 HD
ENDBRANCH   5   6
BRANCH   5  10
HETATM   10  C           1     -36.575  -0.218 -15.923  0.00  0.00     0.153 C 
HETATM   11  C           1     -35.623  -1.189 -16.609  0.00  0.00     0.042 C 
BRANCH  10  12
HETATM   12  O           1     -37.764  -0.883 -15.593  0.00  0.00    -0.393 OA
HETATM   13  H           1     -37.812  -1.647 -16.143  0.00  0.00     0.210 HD
ENDBRANCH  10  12
ENDBRANCH   5  10
ENDBRANCH   2   5
BRANCH   4  14
HETATM   14  C           1     -34.922  -2.449 -12.204  0.00  0.00     0.194 C 
BRANCH  14  15
HETATM   15  C           1     -34.024  -3.619 -12.581  0.00  0.00     0.106 C 
BRANCH  15  16
HETATM   16  S           1     -34.595  -5.119 -11.733  0.00  0.00    -0.180 SA
HETATM   17  H           1     -34.393  -4.659 -10.485  0.00  0.00     0.101 HD
ENDBRANCH  15  16
ENDBRANCH  14  15
BRANCH  14  18
HETATM   18  C           1     -34.452  -1.854 -10.899  0.00  0.00     0.197 C 
HETATM   19  O           1     -33.237  -1.874 -10.605  0.00  0.00    -0.646 OA
HETATM   20  O           1     -35.277  -1.341 -10.113  0.00  0.00    -0.646 OA
ENDBRANCH  14  18
ENDBRANCH   4  14
TORSDOF 8
ENDMDL
MODEL 3
REMARK VINA RESULT:      -5.1      2.263      2.521
REMARK  8 active torsions:
REMARK  status: ('A' for Active; 'I' for Inactive)
REMARK    1  A    between atoms: C_1  and  C_9 
REMARK    2  A    between atoms: C_1  and  C_20 
REMARK    3  A    between atoms: C_1  and  N_15 
REMARK    4  A    between atoms: N_6  and  C_19 
REMARK    5  A    between atoms: O_7  and  C_11 
REMARK    6  A    between atoms: C_9  and  S_17 
REMARK       I    between atoms: C_10  and  N_15 
REMARK    7  A    between atoms: C_10  and  C_19 
REMARK    8  A    between atoms: C_11  and  C_19 
ROOT
HETATM    1  H           1     -35.244  -1.211 -11.658  0.00  0.00     0.163 HD
HETATM    2  C           1     -34.608  -2.665 -12.987  0.00  0.00     0.251 C 
HETATM    3  O           1     -34.595  -3.011 -14.145  0.00  0.00    -0.271 OA
HETATM    4  N           1     -35.233  -1.500 -12.628  0.00  0.00    -0.344 N 
ENDROOT
BRANCH   2   5
HETATM    5  C           1     -33.937  -3.516 -11.937  0.00  0.00     0.302 C 
BRANCH   5   6
HETATM    6  N           1     -33.477  -2.643 -10.807  0.00  0.00    -0.064 N 
HETATM    7  H           1     -33.853  -3.014  -9.905  0.00  0.00     0.275 HD
HETATM    8  H           1     -32.433  -2.640 -10.773  0.00  0.00     0.275 HD
HETATM    9  H           1     -33.824  -1.669 -10.956  0.00  0.00     0.275 HD
ENDBRANCH   5   6
BRANCH   5  10
HETATM   10  C           1     -34.927  -4.547 -11.411  0.00  0.00     0.153 C 
HETATM   11  C           1     -34.230  -5.447 -10.398  0.00  0.00     0.042 C 
BRANCH  10  12
HETATM   12  O           1     -36.001  -3.892 -10.792  0.00  0.00    -0.393 OA
HETATM   13  H           1     -35.639  -3.368 -10.097  0.00  0.00     0.210 HD
ENDBRANCH  10  12
ENDBRANCH   5  10
ENDBRANCH   2   5
BRANCH   4  14
HETATM   14  C           1     -35.878  -0.682 -13.637  0.00  0.00     0.194 C 
BRANCH  14  15
HETATM   15  C           1     -37.140  -0.061 -13.055  0.00  0.00     0.106 C 
BRANCH  15  16
HETATM   16  S           1     -37.159  -0.302 -11.256  0.00  0.00    -0.180 SA
HETATM   17  H           1     -36.072   0.449 -11.003  0.00  0.00     0.101 HD
ENDBRANCH  15  16
ENDBRANCH  14  15
BRANCH  14  18
HETATM   18  C           1     -34.933   0.410 -14.076  0.00  0.00     0.197 C 
HETATM   19  O           1     -34.693   1.371 -13.313  0.00  0.00    -0.646 OA
HETATM   20  O           1     -34.392   0.355 -15.200  0.00  0.00    -0.646 OA
ENDBRANCH  14  18
ENDBRANCH   4  14
TORSDOF 8
ENDMDL
MODEL 4
REMARK VINA RESULT:      -5.1     12.589     13.913
REMARK  8 active torsions:
REMARK  status: ('A' for Active; 'I' for Inactive)
REMARK    1  A    between atoms: C_1  and  C_9 
REMARK    2  A    between atoms: C_1  and  C_20 
REMARK    3  A    between atoms: C_1  and  N_15 
REMARK    4  A    between atoms: N_6  and  C_19 
REMARK    5  A    between atoms: O_7  and  C_11 
REMARK    6  A    between atoms: C_9  and  S_17 
REMARK       I    between atoms: C_10  and  N_15 
REMARK    7  A    between atoms: C_10  and  C_19 
REMARK    8  A    between atoms: C_11  and  C_19 
ROOT
HETATM    1  H           1     -22.379  -5.687  -9.457  0.00  0.00     0.163 HD
HETATM    2  C           1     -21.811  -4.614  -7.780  0.00  0.00     0.251 C 
HETATM    3  O           1     -21.774  -3.520  -7.270  0.00  0.00    -0.271 OA
HETATM    4  N           1     -22.349  -4.769  -9.030  0.00  0.00    -0.344 N 
ENDROOT
BRANCH   2   5
HETATM    5  C           1     -21.263  -5.811  -7.041  0.00  0.00     0.302 C 
BRANCH   5   6
HETATM    6  N           1     -19.864  -6.087  -7.505  0.00  0.00    -0.064 N 
HETATM    7  H           1     -19.221  -5.355  -7.128  0.00  0.00     0.275 HD
HETATM    8  H           1     -19.563  -7.026  -7.161  0.00  0.00     0.275 HD
HETATM    9  H           1     -19.835  -6.073  -8.550  0.00  0.00     0.275 HD
ENDBRANCH   5   6
BRANCH   5  10
HETATM   10  C           1     -21.254  -5.523  -5.546  0.00  0.00     0.153 C 
HETATM   11  C           1     -21.084  -6.828  -4.779  0.00  0.00     0.042 C 
BRANCH  10  12
HETATM   12  O           1     -20.190  -4.662  -5.242  0.00  0.00    -0.393 OA
HETATM   13  H           1     -19.868  -4.324  -6.060  0.00  0.00     0.210 HD
ENDBRANCH  10  12
ENDBRANCH   5  10
ENDBRANCH   2   5
BRANCH   4  14
HETATM   14  C           1     -22.875  -3.620  -9.741  0.00  0.00     0.194 C 
BRANCH  14  15
HETATM   15  C           1     -22.012  -3.342 -10.963  0.00  0.00     0.106 C 
BRANCH  15  16
HETATM   16  S           1     -20.488  -4.324 -10.866  0.00  0.00    -0.180 SA
HETATM   17  H           1     -21.055  -5.496 -11.206  0.00  0.00     0.101 HD
ENDBRANCH  15  16
ENDBRANCH  14  15
BRANCH  14  18
HETATM   18  C           1     -24.291  -3.906 -10.178  0.00  0.00     0.197 C 
HETATM   19  O           1     -24.892  -3.097 -10.918  0.00  0.00    -0.646 OA
HETATM   20  O           1     -24.863  -4.951  -9.800  0.00  0.00    -0.646 OA
ENDBRANCH  14  18
ENDBRANCH   4  14
TORSDOF 8
ENDMDL
MODEL 5
REMARK VINA RESULT:      -5.0     10.559     12.069
REMARK  8 active torsions:
REMARK  status: ('A' for Active; 'I' for Inactive)
REMARK    1  A    between atoms: C_1  and  C_9 
REMARK    2  A    between atoms: C_1  and  C_20 
REMARK    3  A    between atoms: C_1  and  N_15 
REMARK    4  A    between atoms: N_6  and  C_19 
REMARK    5  A    between atoms: O_7  and  C_11 
REMARK    6  A    between atoms: C_9  and  S_17 
REMARK       I    between atoms: C_10  and  N_15 
REMARK    7  A    between atoms: C_10  and  C_19 
REMARK    8  A    between atoms: C_11  and  C_19 
ROOT
HETATM    1  H           1     -27.036  -7.916 -18.650  0.00  0.00     0.163 HD
HETATM    2  C           1     -28.184  -6.194 -18.658  0.00  0.00     0.251 C 
HETATM    3  O           1     -28.472  -5.198 -19.278  0.00  0.00    -0.271 OA
HETATM    4  N           1     -27.277  -7.082 -19.171  0.00  0.00    -0.344 N 
ENDROOT
BRANCH   2   5
HETATM    5  C           1     -28.825  -6.460 -17.318  0.00  0.00     0.302 C 
BRANCH   5   6
HETATM    6  N           1     -29.098  -7.928 -17.177  0.00  0.00    -0.064 N 
HETATM    7  H           1     -30.127  -8.084 -17.091  0.00  0.00     0.275 HD
HETATM    8  H           1     -28.739  -8.431 -18.019  0.00  0.00     0.275 HD
HETATM    9  H           1     -28.616  -8.291 -16.323  0.00  0.00     0.275 HD
ENDBRANCH   5   6
BRANCH   5  10
HETATM   10  C           1     -27.884  -6.010 -16.207  0.00  0.00     0.153 C 
HETATM   11  C           1     -27.232  -7.230 -15.570  0.00  0.00     0.042 C 
BRANCH  10  12
HETATM   12  O           1     -26.892  -5.178 -16.743  0.00  0.00    -0.393 OA
HETATM   13  H           1     -26.470  -5.662 -17.433  0.00  0.00     0.210 HD
ENDBRANCH  10  12
ENDBRANCH   5  10
ENDBRANCH   2   5
BRANCH   4  14
HETATM   14  C           1     -26.661  -6.828 -20.459  0.00  0.00     0.194 C 
BRANCH  14  15
HETATM   15  C           1     -25.259  -6.274 -20.250  0.00  0.00     0.106 C 
BRANCH  15  16
HETATM   16  S           1     -24.512  -7.053 -18.790  0.00  0.00    -0.180 SA
HETATM   17  H           1     -25.610  -6.984 -18.017  0.00  0.00     0.101 HD
ENDBRANCH  15  16
ENDBRANCH  14  15
BRANCH  14  18
HETATM   18  C           1     -26.584  -8.116 -21.241  0.00  0.00     0.197 C 
HETATM   19  O           1     -25.503  -8.465 -21.764  0.00  0.00    -0.646 OA
HETATM   20  O           1     -27.599  -8.834 -21.366  0.00  0.00    -0.646 OA
ENDBRANCH  14  18
ENDBRANCH   4  14
TORSDOF 8
ENDMDL
MODEL 6
REMARK VINA RESULT:      -4.9      2.569      2.965
REMARK  8 active torsions:
REMARK  status: ('A' for Active; 'I' for Inactive)
REMARK    1  A    between atoms: C_1  and  C_9 
REMARK    2  A    between atoms: C_1  and  C_20 
REMARK    3  A    between atoms: C_1  and  N_15 
REMARK    4  A    between atoms: N_6  and  C_19 
REMARK    5  A    between atoms: O_7  and  C_11 
REMARK    6  A    between atoms: C_9  and  S_17 
REMARK       I    between atoms: C_10  and  N_15 
REMARK    7  A    between atoms: C_10  and  C_19 
REMARK    8  A    between atoms: C_11  and  C_19 
ROOT
HETATM    1  H           1     -34.602  -0.780 -10.952  0.00  0.00     0.163 HD
HETATM    2  C           1     -35.356  -2.703 -10.811  0.00  0.00     0.251 C 
HETATM    3  O           1     -36.357  -3.379 -10.839  0.00  0.00    -0.271 OA
HETATM    4  N           1     -35.441  -1.346 -10.977  0.00  0.00    -0.344 N 
ENDROOT
BRANCH   2   5
HETATM    5  C           1     -34.012  -3.353 -10.593  0.00  0.00     0.302 C 
BRANCH   5   6
HETATM    6  N           1     -34.206  -4.804 -10.265  0.00  0.00    -0.064 N 
HETATM    7  H           1     -35.131  -5.123 -10.634  0.00  0.00     0.275 HD
HETATM    8  H           1     -33.443  -5.366 -10.705  0.00  0.00     0.275 HD
HETATM    9  H           1     -34.180  -4.933  -9.228  0.00  0.00     0.275 HD
ENDBRANCH   5   6
BRANCH   5  10
HETATM   10  C           1     -33.175  -3.227 -11.859  0.00  0.00     0.153 C 
HETATM   11  C           1     -32.379  -4.509 -12.070  0.00  0.00     0.042 C 
BRANCH  10  12
HETATM   12  O           1     -34.018  -3.016 -12.958  0.00  0.00    -0.393 OA
HETATM   13  H           1     -34.879  -2.843 -12.615  0.00  0.00     0.210 HD
ENDBRANCH  10  12
ENDBRANCH   5  10
ENDBRANCH   2   5
BRANCH   4  14
HETATM   14  C           1     -36.732  -0.721 -11.187  0.00  0.00     0.194 C 
BRANCH  14  15
HETATM   15  C           1     -36.851   0.507 -10.295  0.00  0.00     0.106 C 
BRANCH  15  16
HETATM   16  S           1     -36.956  -0.012  -8.559  0.00  0.00    -0.180 SA
HETATM   17  H           1     -36.256   1.023  -8.061  0.00  0.00     0.101 HD
ENDBRANCH  15  16
ENDBRANCH  14  15
BRANCH  14  18
HETATM   18  C           1     -36.861  -0.309 -12.633  0.00  0.00     0.197 C 
HETATM   19  O           1     -37.837  -0.699 -13.309  0.00  0.00    -0.646 OA
HETATM   20  O           1     -35.992   0.423 -13.154  0.00  0.00    -0.646 OA
ENDBRANCH  14  18
ENDBRANCH   4  14
TORSDOF 8
ENDMDL
MODEL 7
REMARK VINA RESULT:      -4.6      3.473      4.841
REMARK  8 active torsions:
REMARK  status: ('A' for Active; 'I' for Inactive)
REMARK    1  A    between atoms: C_1  and  C_9 
REMARK    2  A    between atoms: C_1  and  C_20 
REMARK    3  A    between atoms: C_1  and  N_15 
REMARK    4  A    between atoms: N_6  and  C_19 
REMARK    5  A    between atoms: O_7  and  C_11 
REMARK    6  A    between atoms: C_9  and  S_17 
REMARK       I    between atoms: C_10  and  N_15 
REMARK    7  A    between atoms: C_10  and  C_19 
REMARK    8  A    between atoms: C_11  and  C_19 
ROOT
HETATM    1  H           1     -37.828  -0.610 -12.549  0.00  0.00     0.163 HD
HETATM    2  C           1     -36.082   0.277 -13.220  0.00  0.00     0.251 C 
HETATM    3  O           1     -35.006   0.719 -12.893  0.00  0.00    -0.271 OA
HETATM    4  N           1     -36.926  -0.241 -12.274  0.00  0.00    -0.344 N 
ENDROOT
BRANCH   2   5
HETATM    5  C           1     -36.497   0.297 -14.671  0.00  0.00     0.302 C 
BRANCH   5   6
HETATM    6  N           1     -35.743   1.375 -15.390  0.00  0.00    -0.064 N 
HETATM    7  H           1     -34.805   1.013 -15.677  0.00  0.00     0.275 HD
HETATM    8  H           1     -36.277   1.666 -16.240  0.00  0.00     0.275 HD
HETATM    9  H           1     -35.622   2.198 -14.757  0.00  0.00     0.275 HD
ENDBRANCH   5   6
BRANCH   5  10
HETATM   10  C           1     -36.185  -1.051 -15.307  0.00  0.00     0.153 C 
HETATM   11  C           1     -35.731  -0.840 -16.745  0.00  0.00     0.042 C 
BRANCH  10  12
HETATM   12  O           1     -35.164  -1.684 -14.584  0.00  0.00    -0.393 OA
HETATM   13  H           1     -35.282  -2.612 -14.699  0.00  0.00     0.210 HD
ENDBRANCH  10  12
ENDBRANCH   5  10
ENDBRANCH   2   5
BRANCH   4  14
HETATM   14  C           1     -36.528  -0.260 -10.880  0.00  0.00     0.194 C 
BRANCH  14  15
HETATM   15  C           1     -37.762  -0.122  -9.999  0.00  0.00     0.106 C 
BRANCH  15  16
HETATM   16  S           1     -37.251   0.077  -8.268  0.00  0.00    -0.180 SA
HETATM   17  H           1     -36.282  -0.855  -8.300  0.00  0.00     0.101 HD
ENDBRANCH  15  16
ENDBRANCH  14  15
BRANCH  14  18
HETATM   18  C           1     -35.834  -1.565 -10.574  0.00  0.00     0.197 C 
HETATM   19  O           1     -34.634  -1.567 -10.225  0.00  0.00    -0.646 OA
HETATM   20  O           1     -36.459  -2.643 -10.670  0.00  0.00    -0.646 OA
ENDBRANCH  14  18
ENDBRANCH   4  14
TORSDOF 8
ENDMDL
MODEL 8
REMARK VINA RESULT:      -4.5      7.777      9.473
REMARK  8 active torsions:
REMARK  status: ('A' for Active; 'I' for Inactive)
REMARK    1  A    between atoms: C_1  and  C_9 
REMARK    2  A    between atoms: C_1  and  C_20 
REMARK    3  A    between atoms: C_1  and  N_15 
REMARK    4  A    between atoms: N_6  and  C_19 
REMARK    5  A    between atoms: O_7  and  C_11 
REMARK    6  A    between atoms: C_9  and  S_17 
REMARK       I    between atoms: C_10  and  N_15 
REMARK    7  A    between atoms: C_10  and  C_19 
REMARK    8  A    between atoms: C_11  and  C_19 
ROOT
HETATM    1  H           1     -28.523  -4.972 -15.678  0.00  0.00     0.163 HD
HETATM    2  C           1     -29.675  -5.089 -17.394  0.00  0.00     0.251 C 
HETATM    3  O           1     -29.835  -5.668 -18.442  0.00  0.00    -0.271 OA
HETATM    4  N           1     -28.657  -5.458 -16.556  0.00  0.00    -0.344 N 
ENDROOT
BRANCH   2   5
HETATM    5  C           1     -30.596  -3.958 -17.008  0.00  0.00     0.302 C 
BRANCH   5   6
HETATM    6  N           1     -30.827  -3.074 -18.197  0.00  0.00    -0.064 N 
HETATM    7  H           1     -31.740  -3.320 -18.642  0.00  0.00     0.275 HD
HETATM    8  H           1     -30.849  -2.075 -17.890  0.00  0.00     0.275 HD
HETATM    9  H           1     -30.054  -3.209 -18.887  0.00  0.00     0.275 HD
ENDBRANCH   5   6
BRANCH   5  10
HETATM   10  C           1     -31.927  -4.526 -16.533  0.00  0.00     0.153 C 
HETATM   11  C           1     -33.068  -3.791 -17.224  0.00  0.00     0.042 C 
BRANCH  10  12
HETATM   12  O           1     -31.993  -5.891 -16.849  0.00  0.00    -0.393 OA
HETATM   13  H           1     -31.464  -6.345 -16.215  0.00  0.00     0.210 HD
ENDBRANCH  10  12
ENDBRANCH   5  10
ENDBRANCH   2   5
BRANCH   4  14
HETATM   14  C           1     -27.771  -6.545 -16.927  0.00  0.00     0.194 C 
BRANCH  14  15
HETATM   15  C           1     -26.585  -5.990 -17.703  0.00  0.00     0.106 C 
BRANCH  15  16
HETATM   16  S           1     -26.668  -6.559 -19.425  0.00  0.00    -0.180 SA
HETATM   17  H           1     -25.455  -6.099 -19.783  0.00  0.00     0.101 HD
ENDBRANCH  15  16
ENDBRANCH  14  15
BRANCH  14  18
HETATM   18  C           1     -27.278  -7.237 -15.679  0.00  0.00     0.197 C 
HETATM   19  O           1     -28.097  -7.660 -14.835  0.00  0.00    -0.646 OA
HETATM   20  O           1     -26.052  -7.387 -15.491  0.00  0.00    -0.646 OA
ENDBRANCH  14  18
ENDBRANCH   4  14
TORSDOF 8
ENDMDL
MODEL 9
REMARK VINA RESULT:      -4.5      9.329     11.067
REMARK  8 active torsions:
REMARK  status: ('A' for Active; 'I' for Inactive)
REMARK    1  A    between atoms: C_1  and  C_9 
REMARK    2  A    between atoms: C_1  and  C_20 
REMARK    3  A    between atoms: C_1  and  N_15 
REMARK    4  A    between atoms: N_6  and  C_19 
REMARK    5  A    between atoms: O_7  and  C_11 
REMARK    6  A    between atoms: C_9  and  S_17 
REMARK       I    between atoms: C_10  and  N_15 
REMARK    7  A    between atoms: C_10  and  C_19 
REMARK    8  A    between atoms: C_11  and  C_19 
ROOT
HETATM    1  H           1     -26.105  -5.027 -16.688  0.00  0.00     0.163 HD
HETATM    2  C           1     -27.784  -5.765 -17.647  0.00  0.00     0.251 C 
HETATM    3  O           1     -28.245  -6.698 -18.261  0.00  0.00    -0.271 OA
HETATM    4  N           1     -26.490  -5.810 -17.202  0.00  0.00    -0.344 N 
ENDROOT
BRANCH   2   5
HETATM    5  C           1     -28.635  -4.550 -17.370  0.00  0.00     0.302 C 
BRANCH   5   6
HETATM    6  N           1     -29.455  -4.228 -18.584  0.00  0.00    -0.064 N 
HETATM    7  H           1     -28.833  -3.859 -19.337  0.00  0.00     0.275 HD
HETATM    8  H           1     -29.933  -5.094 -18.921  0.00  0.00     0.275 HD
HETATM    9  H           1     -30.172  -3.509 -18.339  0.00  0.00     0.275 HD
ENDBRANCH   5   6
BRANCH   5  10
HETATM   10  C           1     -29.561  -4.835 -16.194  0.00  0.00     0.153 C 
HETATM   11  C           1     -30.981  -5.037 -16.704  0.00  0.00     0.042 C 
BRANCH  10  12
HETATM   12  O           1     -29.133  -5.995 -15.533  0.00  0.00    -0.393 OA
HETATM   13  H           1     -29.376  -5.900 -14.627  0.00  0.00     0.210 HD
ENDBRANCH  10  12
ENDBRANCH   5  10
ENDBRANCH   2   5
BRANCH   4  14
HETATM   14  C           1     -25.671  -6.977 -17.468  0.00  0.00     0.194 C 
BRANCH  14  15
HETATM   15  C           1     -24.596  -6.621 -18.485  0.00  0.00     0.106 C 
BRANCH  15  16
HETATM   16  S           1     -25.175  -7.046 -20.152  0.00  0.00    -0.180 SA
HETATM   17  H           1     -24.562  -8.241 -20.213  0.00  0.00     0.101 HD
ENDBRANCH  15  16
ENDBRANCH  14  15
BRANCH  14  18
HETATM   18  C           1     -25.021  -7.436 -16.186  0.00  0.00     0.197 C 
HETATM   19  O           1     -25.374  -6.939 -15.094  0.00  0.00    -0.646 OA
HETATM   20  O           1     -24.130  -8.311 -16.215  0.00  0.00    -0.646 OA
ENDBRANCH  14  18
ENDBRANCH   4  14
TORSDOF 8
ENDMDL
