MODEL 1
REMARK VINA RESULT:      -8.7      0.000      0.000
REMARK  8 active torsions:
REMARK  status: ('A' for Active; 'I' for Inactive)
REMARK    1  A    between atoms: N_1  and  C_2 
REMARK    2  A    between atoms: C_2  and  C_15 
REMARK    3  A    between atoms: C_2  and  C_22 
REMARK    4  A    between atoms: C_4  and  C_10 
REMARK    5  A    between atoms: C_6  and  C_22 
REMARK    6  A    between atoms: C_10  and  C_13 
REMARK    7  A    between atoms: C_10  and  N_16 
REMARK    8  A    between atoms: C_13  and  O_14 
REMARK       I    between atoms: C_15  and  N_16 
ROOT
HETATM    1  C           1     -21.225  -5.876  -7.040  0.00  0.00     0.278 C 
ENDROOT
BRANCH   1   2
HETATM    2  N           1     -19.780  -6.117  -7.365  0.00  0.00    -0.066 N 
HETATM    3  H           1     -19.330  -6.640  -6.581  0.00  0.00     0.275 HD
HETATM    4  H           1     -19.711  -6.679  -8.244  0.00  0.00     0.275 HD
HETATM    5  H           1     -19.296  -5.201  -7.497  0.00  0.00     0.275 HD
ENDBRANCH   1   2
BRANCH   1   6
HETATM    6  C           1     -21.726  -4.692  -7.830  0.00  0.00     0.249 C 
HETATM    7  O           1     -21.767  -3.598  -7.320  0.00  0.00    -0.271 OA
HETATM    8  N           1     -22.136  -4.858  -9.126  0.00  0.00    -0.343 N 
HETATM    9  H           1     -22.102  -5.774  -9.555  0.00  0.00     0.163 HD
BRANCH   8  10
HETATM   10  C           1     -22.618  -3.720  -9.886  0.00  0.00     0.214 C 
BRANCH  10  11
HETATM   11  C           1     -24.087  -3.898 -10.177  0.00  0.00     0.199 C 
HETATM   12  O           1     -24.741  -2.962 -10.687  0.00  0.00    -0.646 OA
HETATM   13  O           1     -24.651  -4.981  -9.907  0.00  0.00    -0.646 OA
ENDBRANCH  10  11
BRANCH  10  14
HETATM   14  C           1     -21.849  -3.621 -11.197  0.00  0.00     0.147 C 
HETATM   15  C           1     -20.438  -4.159 -11.000  0.00  0.00     0.042 C 
BRANCH  14  16
HETATM   16  O           1     -22.504  -4.378 -12.180  0.00  0.00    -0.393 OA
HETATM   17  H           1     -21.886  -4.515 -12.877  0.00  0.00     0.210 HD
ENDBRANCH  14  16
ENDBRANCH  10  14
ENDBRANCH   8  10
ENDBRANCH   1   6
BRANCH   1  18
HETATM   18  C           1     -21.369  -5.591  -5.551  0.00  0.00     0.083 C 
BRANCH  18  19
HETATM   19  C           1     -21.374  -6.881  -4.793  0.00  0.00    -0.028 A 
HETATM   20  C           1     -21.108  -8.128  -5.312  0.00  0.00     0.096 A 
HETATM   21  N           1     -21.216  -9.037  -4.294  0.00  0.00    -0.365 N 
HETATM   22  C           1     -21.547  -8.400  -3.119  0.00  0.00     0.042 A 
HETATM   23  H           1     -21.066 -10.072  -4.395  0.00  0.00     0.165 HD
HETATM   24  C           1     -21.759  -8.920  -1.836  0.00  0.00     0.030 A 
HETATM   25  C           1     -21.653  -7.039  -3.407  0.00  0.00    -0.002 A 
HETATM   26  C           1     -22.088  -8.018  -0.820  0.00  0.00     0.002 A 
HETATM   27  C           1     -22.201  -6.653  -1.078  0.00  0.00     0.001 A 
HETATM   28  C           1     -21.985  -6.150  -2.368  0.00  0.00     0.014 A 
ENDBRANCH  18  19
ENDBRANCH   1  18
TORSDOF 8
ENDMDL
MODEL 2
REMARK VINA RESULT:      -7.6      3.550      7.783
REMARK  8 active torsions:
REMARK  status: ('A' for Active; 'I' for Inactive)
REMARK    1  A    between atoms: N_1  and  C_2 
REMARK    2  A    between atoms: C_2  and  C_15 
REMARK    3  A    between atoms: C_2  and  C_22 
REMARK    4  A    between atoms: C_4  and  C_10 
REMARK    5  A    between atoms: C_6  and  C_22 
REMARK    6  A    between atoms: C_10  and  C_13 
REMARK    7  A    between atoms: C_10  and  N_16 
REMARK    8  A    between atoms: C_13  and  O_14 
REMARK       I    between atoms: C_15  and  N_16 
ROOT
HETATM    1  C           1     -21.368  -6.180  -5.517  0.00  0.00     0.278 C 
ENDROOT
BRANCH   1   2
HETATM    2  N           1     -21.629  -5.953  -4.057  0.00  0.00    -0.066 N 
HETATM    3  H           1     -22.452  -5.322  -3.944  0.00  0.00     0.275 HD
HETATM    4  H           1     -21.825  -6.869  -3.593  0.00  0.00     0.275 HD
HETATM    5  H           1     -20.789  -5.513  -3.618  0.00  0.00     0.275 HD
ENDBRANCH   1   2
BRANCH   1   6
HETATM    6  C           1     -20.264  -7.195  -5.678  0.00  0.00     0.249 C 
HETATM    7  O           1     -19.546  -7.159  -6.650  0.00  0.00    -0.271 OA
HETATM    8  N           1     -20.074  -8.158  -4.723  0.00  0.00    -0.343 N 
HETATM    9  H           1     -20.674  -8.189  -3.910  0.00  0.00     0.163 HD
BRANCH   8  10
HETATM   10  C           1     -19.013  -9.134  -4.879  0.00  0.00     0.214 C 
BRANCH  10  11
HETATM   11  C           1     -19.574 -10.392  -5.495  0.00  0.00     0.199 C 
HETATM   12  O           1     -18.973 -10.947  -6.439  0.00  0.00    -0.646 OA
HETATM   13  O           1     -20.640 -10.879  -5.060  0.00  0.00    -0.646 OA
ENDBRANCH  10  11
BRANCH  10  14
HETATM   14  C           1     -18.417  -9.459  -3.515  0.00  0.00     0.147 C 
HETATM   15  C           1     -19.365  -8.986  -2.421  0.00  0.00     0.042 C 
BRANCH  14  16
HETATM   16  O           1     -18.232 -10.845  -3.405  0.00  0.00    -0.393 OA
HETATM   17  H           1     -19.083 -11.225  -3.265  0.00  0.00     0.210 HD
ENDBRANCH  14  16
ENDBRANCH  10  14
ENDBRANCH   8  10
ENDBRANCH   1   6
BRANCH   1  18
HETATM   18  C           1     -20.952  -4.868  -6.167  0.00  0.00     0.083 C 
BRANCH  18  19
HETATM   19  C           1     -21.881  -4.552  -7.297  0.00  0.00    -0.028 A 
HETATM   20  C           1     -23.238  -4.347  -7.198  0.00  0.00     0.096 A 
HETATM   21  N           1     -23.715  -4.085  -8.455  0.00  0.00    -0.365 N 
HETATM   22  C           1     -22.688  -4.118  -9.370  0.00  0.00     0.042 A 
HETATM   23  H           1     -24.721  -3.889  -8.686  0.00  0.00     0.165 HD
HETATM   24  C           1     -22.703  -3.913 -10.756  0.00  0.00     0.030 A 
HETATM   25  C           1     -21.520  -4.410  -8.666  0.00  0.00    -0.002 A 
HETATM   26  C           1     -21.486  -4.009 -11.437  0.00  0.00     0.002 A 
HETATM   27  C           1     -20.303  -4.300 -10.759  0.00  0.00     0.001 A 
HETATM   28  C           1     -20.307  -4.503  -9.373  0.00  0.00     0.014 A 
ENDBRANCH  18  19
ENDBRANCH   1  18
TORSDOF 8
ENDMDL
MODEL 3
REMARK VINA RESULT:      -7.4      1.196      2.086
REMARK  8 active torsions:
REMARK  status: ('A' for Active; 'I' for Inactive)
REMARK    1  A    between atoms: N_1  and  C_2 
REMARK    2  A    between atoms: C_2  and  C_15 
REMARK    3  A    between atoms: C_2  and  C_22 
REMARK    4  A    between atoms: C_4  and  C_10 
REMARK    5  A    between atoms: C_6  and  C_22 
REMARK    6  A    between atoms: C_10  and  C_13 
REMARK    7  A    between atoms: C_10  and  N_16 
REMARK    8  A    between atoms: C_13  and  O_14 
REMARK       I    between atoms: C_15  and  N_16 
ROOT
HETATM    1  C           1     -21.204  -5.553  -6.740  0.00  0.00     0.278 C 
ENDROOT
BRANCH   1   2
HETATM    2  N           1     -20.000  -5.093  -5.973  0.00  0.00    -0.066 N 
HETATM    3  H           1     -19.182  -5.023  -6.619  0.00  0.00     0.275 HD
HETATM    4  H           1     -20.193  -4.156  -5.553  0.00  0.00     0.275 HD
HETATM    5  H           1     -19.787  -5.779  -5.214  0.00  0.00     0.275 HD
ENDBRANCH   1   2
BRANCH   1   6
HETATM    6  C           1     -21.658  -4.455  -7.670  0.00  0.00     0.249 C 
HETATM    7  O           1     -21.598  -3.302  -7.318  0.00  0.00    -0.271 OA
HETATM    8  N           1     -22.138  -4.767  -8.914  0.00  0.00    -0.343 N 
HETATM    9  H           1     -22.188  -5.733  -9.210  0.00  0.00     0.163 HD
BRANCH   8  10
HETATM   10  C           1     -22.574  -3.712  -9.808  0.00  0.00     0.214 C 
BRANCH  10  11
HETATM   11  C           1     -24.031  -3.912 -10.148  0.00  0.00     0.199 C 
HETATM   12  O           1     -24.688  -2.979 -10.657  0.00  0.00    -0.646 OA
HETATM   13  O           1     -24.580  -5.012  -9.918  0.00  0.00    -0.646 OA
ENDBRANCH  10  11
BRANCH  10  14
HETATM   14  C           1     -21.745  -3.752 -11.086  0.00  0.00     0.147 C 
HETATM   15  C           1     -20.420  -4.449 -10.809  0.00  0.00     0.042 C 
BRANCH  14  16
HETATM   16  O           1     -22.446  -4.458 -12.074  0.00  0.00    -0.393 OA
HETATM   17  H           1     -21.994  -5.275 -12.200  0.00  0.00     0.210 HD
ENDBRANCH  14  16
ENDBRANCH  10  14
ENDBRANCH   8  10
ENDBRANCH   1   6
BRANCH   1  18
HETATM   18  C           1     -22.326  -5.891  -5.767  0.00  0.00     0.083 C 
BRANCH  18  19
HETATM   19  C           1     -21.764  -6.629  -4.593  0.00  0.00    -0.028 A 
HETATM   20  C           1     -21.572  -6.118  -3.329  0.00  0.00     0.096 A 
HETATM   21  N           1     -21.040  -7.112  -2.551  0.00  0.00    -0.365 N 
HETATM   22  C           1     -20.884  -8.263  -3.291  0.00  0.00     0.042 A 
HETATM   23  H           1     -20.788  -7.011  -1.537  0.00  0.00     0.165 HD
HETATM   24  C           1     -20.384  -9.517  -2.919  0.00  0.00     0.030 A 
HETATM   25  C           1     -21.333  -7.985  -4.582  0.00  0.00    -0.002 A 
HETATM   26  C           1     -20.345 -10.514  -3.898  0.00  0.00     0.002 A 
HETATM   27  C           1     -20.788 -10.265  -5.196  0.00  0.00     0.001 A 
HETATM   28  C           1     -21.284  -9.004  -5.551  0.00  0.00     0.014 A 
ENDBRANCH  18  19
ENDBRANCH   1  18
TORSDOF 8
ENDMDL
MODEL 4
REMARK VINA RESULT:      -7.4      1.759      2.688
REMARK  8 active torsions:
REMARK  status: ('A' for Active; 'I' for Inactive)
REMARK    1  A    between atoms: N_1  and  C_2 
REMARK    2  A    between atoms: C_2  and  C_15 
REMARK    3  A    between atoms: C_2  and  C_22 
REMARK    4  A    between atoms: C_4  and  C_10 
REMARK    5  A    between atoms: C_6  and  C_22 
REMARK    6  A    between atoms: C_10  and  C_13 
REMARK    7  A    between atoms: C_10  and  N_16 
REMARK    8  A    between atoms: C_13  and  O_14 
REMARK       I    between atoms: C_15  and  N_16 
ROOT
HETATM    1  C           1     -20.512  -5.823  -5.279  0.00  0.00     0.278 C 
ENDROOT
BRANCH   1   2
HETATM    2  N           1     -19.984  -4.437  -5.055  0.00  0.00    -0.066 N 
HETATM    3  H           1     -19.343  -4.437  -4.231  0.00  0.00     0.275 HD
HETATM    4  H           1     -19.462  -4.122  -5.903  0.00  0.00     0.275 HD
HETATM    5  H           1     -20.782  -3.786  -4.875  0.00  0.00     0.275 HD
ENDBRANCH   1   2
BRANCH   1   6
HETATM    6  C           1     -21.113  -5.915  -6.660  0.00  0.00     0.249 C 
HETATM    7  O           1     -21.278  -6.993  -7.178  0.00  0.00    -0.271 OA
HETATM    8  N           1     -21.471  -4.773  -7.327  0.00  0.00    -0.343 N 
HETATM    9  H           1     -21.334  -3.870  -6.894  0.00  0.00     0.163 HD
BRANCH   8  10
HETATM   10  C           1     -22.049  -4.861  -8.654  0.00  0.00     0.214 C 
BRANCH  10  11
HETATM   11  C           1     -21.063  -4.331  -9.666  0.00  0.00     0.199 C 
HETATM   12  O           1     -19.917  -4.824  -9.740  0.00  0.00    -0.646 OA
HETATM   13  O           1     -21.393  -3.399 -10.432  0.00  0.00    -0.646 OA
ENDBRANCH  10  11
BRANCH  10  14
HETATM   14  C           1     -23.326  -4.033  -8.709  0.00  0.00     0.147 C 
HETATM   15  C           1     -24.249  -4.593  -9.783  0.00  0.00     0.042 C 
BRANCH  14  16
HETATM   16  O           1     -23.971  -4.088  -7.465  0.00  0.00    -0.393 OA
HETATM   17  H           1     -23.458  -4.656  -6.915  0.00  0.00     0.210 HD
ENDBRANCH  14  16
ENDBRANCH  10  14
ENDBRANCH   8  10
ENDBRANCH   1   6
BRANCH   1  18
HETATM   18  C           1     -21.579  -6.135  -4.238  0.00  0.00     0.083 C 
BRANCH  18  19
HETATM   19  C           1     -21.129  -7.280  -3.387  0.00  0.00    -0.028 A 
HETATM   20  C           1     -20.272  -8.287  -3.769  0.00  0.00     0.096 A 
HETATM   21  N           1     -20.118  -9.133  -2.703  0.00  0.00    -0.365 N 
HETATM   22  C           1     -20.862  -8.690  -1.633  0.00  0.00     0.042 A 
HETATM   23  H           1     -19.518  -9.995  -2.703  0.00  0.00     0.165 HD
HETATM   24  C           1     -21.010  -9.229  -0.349  0.00  0.00     0.030 A 
HETATM   25  C           1     -21.509  -7.523  -2.038  0.00  0.00    -0.002 A 
HETATM   26  C           1     -21.845  -8.551   0.545  0.00  0.00     0.002 A 
HETATM   27  C           1     -22.504  -7.383   0.167  0.00  0.00     0.001 A 
HETATM   28  C           1     -22.345  -6.858  -1.121  0.00  0.00     0.014 A 
ENDBRANCH  18  19
ENDBRANCH   1  18
TORSDOF 8
ENDMDL
MODEL 5
REMARK VINA RESULT:      -7.2      3.682      8.030
REMARK  8 active torsions:
REMARK  status: ('A' for Active; 'I' for Inactive)
REMARK    1  A    between atoms: N_1  and  C_2 
REMARK    2  A    between atoms: C_2  and  C_15 
REMARK    3  A    between atoms: C_2  and  C_22 
REMARK    4  A    between atoms: C_4  and  C_10 
REMARK    5  A    between atoms: C_6  and  C_22 
REMARK    6  A    between atoms: C_10  and  C_13 
REMARK    7  A    between atoms: C_10  and  N_16 
REMARK    8  A    between atoms: C_13  and  O_14 
REMARK       I    between atoms: C_15  and  N_16 
ROOT
HETATM    1  C           1     -21.588  -6.508  -5.337  0.00  0.00     0.278 C 
ENDROOT
BRANCH   1   2
HETATM    2  N           1     -22.998  -6.305  -4.866  0.00  0.00    -0.066 N 
HETATM    3  H           1     -23.160  -5.291  -4.677  0.00  0.00     0.275 HD
HETATM    4  H           1     -23.661  -6.633  -5.605  0.00  0.00     0.275 HD
HETATM    5  H           1     -23.154  -6.853  -3.990  0.00  0.00     0.275 HD
ENDBRANCH   1   2
BRANCH   1   6
HETATM    6  C           1     -20.853  -7.389  -4.358  0.00  0.00     0.249 C 
HETATM    7  O           1     -19.768  -7.836  -4.643  0.00  0.00    -0.271 OA
HETATM    8  N           1     -21.416  -7.682  -3.144  0.00  0.00    -0.343 N 
HETATM    9  H           1     -22.325  -7.308  -2.904  0.00  0.00     0.163 HD
BRANCH   8  10
HETATM   10  C           1     -20.710  -8.529  -2.203  0.00  0.00     0.214 C 
BRANCH  10  11
HETATM   11  C           1     -21.107  -9.968  -2.426  0.00  0.00     0.199 C 
HETATM   12  O           1     -20.270 -10.880  -2.259  0.00  0.00    -0.646 OA
HETATM   13  O           1     -22.275 -10.246  -2.777  0.00  0.00    -0.646 OA
ENDBRANCH  10  11
BRANCH  10  14
HETATM   14  C           1     -21.069  -8.118  -0.780  0.00  0.00     0.147 C 
HETATM   15  C           1     -22.214  -7.115  -0.816  0.00  0.00     0.042 C 
BRANCH  14  16
HETATM   16  O           1     -21.461  -9.250  -0.053  0.00  0.00    -0.393 OA
HETATM   17  H           1     -20.770  -9.885  -0.138  0.00  0.00     0.210 HD
ENDBRANCH  14  16
ENDBRANCH  10  14
ENDBRANCH   8  10
ENDBRANCH   1   6
BRANCH   1  18
HETATM   18  C           1     -20.887  -5.159  -5.434  0.00  0.00     0.083 C 
BRANCH  18  19
HETATM   19  C           1     -20.632  -4.830  -6.871  0.00  0.00    -0.028 A 
HETATM   20  C           1     -19.406  -4.830  -7.498  0.00  0.00     0.096 A 
HETATM   21  N           1     -19.605  -4.475  -8.806  0.00  0.00    -0.365 N 
HETATM   22  C           1     -20.942  -4.244  -9.038  0.00  0.00     0.042 A 
HETATM   23  H           1     -18.846  -4.391  -9.527  0.00  0.00     0.165 HD
HETATM   24  C           1     -21.603  -3.862 -10.212  0.00  0.00     0.030 A 
HETATM   25  C           1     -21.611  -4.461  -7.834  0.00  0.00    -0.002 A 
HETATM   26  C           1     -22.991  -3.701 -10.149  0.00  0.00     0.002 A 
HETATM   27  C           1     -23.686  -3.911  -8.959  0.00  0.00     0.001 A 
HETATM   28  C           1     -23.008  -4.291  -7.795  0.00  0.00     0.014 A 
ENDBRANCH  18  19
ENDBRANCH   1  18
TORSDOF 8
ENDMDL
MODEL 6
REMARK VINA RESULT:      -7.1      3.816      7.710
REMARK  8 active torsions:
REMARK  status: ('A' for Active; 'I' for Inactive)
REMARK    1  A    between atoms: N_1  and  C_2 
REMARK    2  A    between atoms: C_2  and  C_15 
REMARK    3  A    between atoms: C_2  and  C_22 
REMARK    4  A    between atoms: C_4  and  C_10 
REMARK    5  A    between atoms: C_6  and  C_22 
REMARK    6  A    between atoms: C_10  and  C_13 
REMARK    7  A    between atoms: C_10  and  N_16 
REMARK    8  A    between atoms: C_13  and  O_14 
REMARK       I    between atoms: C_15  and  N_16 
ROOT
HETATM    1  C           1     -21.618  -6.633  -5.056  0.00  0.00     0.278 C 
ENDROOT
BRANCH   1   2
HETATM    2  N           1     -21.617  -5.852  -3.774  0.00  0.00    -0.066 N 
HETATM    3  H           1     -20.942  -6.284  -3.104  0.00  0.00     0.275 HD
HETATM    4  H           1     -21.333  -4.866  -3.969  0.00  0.00     0.275 HD
HETATM    5  H           1     -22.576  -5.864  -3.359  0.00  0.00     0.275 HD
ENDBRANCH   1   2
BRANCH   1   6
HETATM    6  C           1     -21.022  -7.997  -4.813  0.00  0.00     0.249 C 
HETATM    7  O           1     -21.740  -8.934  -4.558  0.00  0.00    -0.271 OA
HETATM    8  N           1     -19.665  -8.174  -4.882  0.00  0.00    -0.343 N 
HETATM    9  H           1     -19.063  -7.390  -5.096  0.00  0.00     0.163 HD
BRANCH   8  10
HETATM   10  C           1     -19.092  -9.485  -4.649  0.00  0.00     0.214 C 
BRANCH  10  11
HETATM   11  C           1     -18.488  -9.530  -3.267  0.00  0.00     0.199 C 
HETATM   12  O           1     -17.270  -9.300  -3.110  0.00  0.00    -0.646 OA
HETATM   13  O           1     -19.206  -9.798  -2.279  0.00  0.00    -0.646 OA
ENDBRANCH  10  11
BRANCH  10  14
HETATM   14  C           1     -18.010  -9.759  -5.685  0.00  0.00     0.147 C 
HETATM   15  C           1     -18.201 -11.155  -6.262  0.00  0.00     0.042 C 
BRANCH  14  16
HETATM   16  O           1     -18.100  -8.812  -6.715  0.00  0.00    -0.393 OA
HETATM   17  H           1     -18.890  -9.001  -7.193  0.00  0.00     0.210 HD
ENDBRANCH  14  16
ENDBRANCH  10  14
ENDBRANCH   8  10
ENDBRANCH   1   6
BRANCH   1  18
HETATM   18  C           1     -20.791  -5.895  -6.099  0.00  0.00     0.083 C 
BRANCH  18  19
HETATM   19  C           1     -21.702  -5.172  -7.040  0.00  0.00    -0.028 A 
HETATM   20  C           1     -22.996  -4.783  -6.778  0.00  0.00     0.096 A 
HETATM   21  N           1     -23.478  -4.153  -7.895  0.00  0.00    -0.365 N 
HETATM   22  C           1     -22.517  -4.126  -8.880  0.00  0.00     0.042 A 
HETATM   23  H           1     -24.444  -3.749  -7.986  0.00  0.00     0.165 HD
HETATM   24  C           1     -22.561  -3.593 -10.174  0.00  0.00     0.030 A 
HETATM   25  C           1     -21.386  -4.763  -8.366  0.00  0.00    -0.002 A 
HETATM   26  C           1     -21.413  -3.714 -10.962  0.00  0.00     0.002 A 
HETATM   27  C           1     -20.269  -4.345 -10.475  0.00  0.00     0.001 A 
HETATM   28  C           1     -20.243  -4.873  -9.179  0.00  0.00     0.014 A 
ENDBRANCH  18  19
ENDBRANCH   1  18
TORSDOF 8
ENDMDL
MODEL 7
REMARK VINA RESULT:      -7.1     13.091     15.084
REMARK  8 active torsions:
REMARK  status: ('A' for Active; 'I' for Inactive)
REMARK    1  A    between atoms: N_1  and  C_2 
REMARK    2  A    between atoms: C_2  and  C_15 
REMARK    3  A    between atoms: C_2  and  C_22 
REMARK    4  A    between atoms: C_4  and  C_10 
REMARK    5  A    between atoms: C_6  and  C_22 
REMARK    6  A    between atoms: C_10  and  C_13 
REMARK    7  A    between atoms: C_10  and  N_16 
REMARK    8  A    between atoms: C_13  and  O_14 
REMARK       I    between atoms: C_15  and  N_16 
ROOT
HETATM    1  C           1     -35.473  -1.531 -11.148  0.00  0.00     0.278 C 
ENDROOT
BRANCH   1   2
HETATM    2  N           1     -35.726  -0.734  -9.902  0.00  0.00    -0.066 N 
HETATM    3  H           1     -36.603  -0.179 -10.015  0.00  0.00     0.275 HD
HETATM    4  H           1     -35.826  -1.383  -9.089  0.00  0.00     0.275 HD
HETATM    5  H           1     -34.922  -0.087  -9.734  0.00  0.00     0.275 HD
ENDBRANCH   1   2
BRANCH   1   6
HETATM    6  C           1     -36.262  -0.941 -12.290  0.00  0.00     0.249 C 
HETATM    7  O           1     -37.403  -0.583 -12.115  0.00  0.00    -0.271 OA
HETATM    8  N           1     -35.686  -0.812 -13.525  0.00  0.00    -0.343 N 
HETATM    9  H           1     -34.731  -1.111 -13.672  0.00  0.00     0.163 HD
BRANCH   8  10
HETATM   10  C           1     -36.445  -0.245 -14.623  0.00  0.00     0.214 C 
BRANCH  10  11
HETATM   11  C           1     -36.129  -0.997 -15.893  0.00  0.00     0.199 C 
HETATM   12  O           1     -35.097  -1.699 -15.963  0.00  0.00    -0.646 OA
HETATM   13  O           1     -36.899  -0.917 -16.874  0.00  0.00    -0.646 OA
ENDBRANCH  10  11
BRANCH  10  14
HETATM   14  C           1     -36.071   1.222 -14.796  0.00  0.00     0.147 C 
HETATM   15  C           1     -34.630   1.434 -14.351  0.00  0.00     0.042 C 
BRANCH  14  16
HETATM   16  O           1     -36.201   1.581 -16.145  0.00  0.00    -0.393 OA
HETATM   17  H           1     -36.994   2.083 -16.221  0.00  0.00     0.210 HD
ENDBRANCH  14  16
ENDBRANCH  10  14
ENDBRANCH   8  10
ENDBRANCH   1   6
BRANCH   1  18
HETATM   18  C           1     -35.906  -2.974 -10.922  0.00  0.00     0.083 C 
BRANCH  18  19
HETATM   19  C           1     -34.749  -3.888 -11.178  0.00  0.00    -0.028 A 
HETATM   20  C           1     -33.626  -3.590 -11.915  0.00  0.00     0.096 A 
HETATM   21  N           1     -32.813  -4.692 -11.905  0.00  0.00    -0.365 N 
HETATM   22  C           1     -33.391  -5.704 -11.172  0.00  0.00     0.042 A 
HETATM   23  H           1     -31.882  -4.756 -12.388  0.00  0.00     0.165 HD
HETATM   24  C           1     -32.930  -6.996 -10.891  0.00  0.00     0.030 A 
HETATM   25  C           1     -34.614  -5.222 -10.702  0.00  0.00    -0.002 A 
HETATM   26  C           1     -33.745  -7.817 -10.106  0.00  0.00     0.002 A 
HETATM   27  C           1     -34.971  -7.363  -9.623  0.00  0.00     0.001 A 
HETATM   28  C           1     -35.417  -6.067  -9.914  0.00  0.00     0.014 A 
ENDBRANCH  18  19
ENDBRANCH   1  18
TORSDOF 8
ENDMDL
MODEL 8
REMARK VINA RESULT:      -7.0      2.186      3.185
REMARK  8 active torsions:
REMARK  status: ('A' for Active; 'I' for Inactive)
REMARK    1  A    between atoms: N_1  and  C_2 
REMARK    2  A    between atoms: C_2  and  C_15 
REMARK    3  A    between atoms: C_2  and  C_22 
REMARK    4  A    between atoms: C_4  and  C_10 
REMARK    5  A    between atoms: C_6  and  C_22 
REMARK    6  A    between atoms: C_10  and  C_13 
REMARK    7  A    between atoms: C_10  and  N_16 
REMARK    8  A    between atoms: C_13  and  O_14 
REMARK       I    between atoms: C_15  and  N_16 
ROOT
HETATM    1  C           1     -21.153  -7.935  -4.737  0.00  0.00     0.278 C 
ENDROOT
BRANCH   1   2
HETATM    2  N           1     -21.189  -8.770  -5.983  0.00  0.00    -0.066 N 
HETATM    3  H           1     -21.238  -8.147  -6.819  0.00  0.00     0.275 HD
HETATM    4  H           1     -20.324  -9.355  -6.034  0.00  0.00     0.275 HD
HETATM    5  H           1     -22.029  -9.391  -5.961  0.00  0.00     0.275 HD
ENDBRANCH   1   2
BRANCH   1   6
HETATM    6  C           1     -21.242  -6.475  -5.108  0.00  0.00     0.249 C 
HETATM    7  O           1     -21.413  -5.642  -4.250  0.00  0.00    -0.271 OA
HETATM    8  N           1     -21.130  -6.094  -6.419  0.00  0.00    -0.343 N 
HETATM    9  H           1     -20.987  -6.791  -7.138  0.00  0.00     0.163 HD
BRANCH   8  10
HETATM   10  C           1     -21.217  -4.691  -6.776  0.00  0.00     0.214 C 
BRANCH  10  11
HETATM   11  C           1     -22.573  -4.408  -7.373  0.00  0.00     0.199 C 
HETATM   12  O           1     -22.663  -3.958  -8.536  0.00  0.00    -0.646 OA
HETATM   13  O           1     -23.607  -4.623  -6.704  0.00  0.00    -0.646 OA
ENDBRANCH  10  11
BRANCH  10  14
HETATM   14  C           1     -20.134  -4.358  -7.795  0.00  0.00     0.147 C 
HETATM   15  C           1     -18.765  -4.487  -7.141  0.00  0.00     0.042 C 
BRANCH  14  16
HETATM   16  O           1     -20.221  -5.248  -8.875  0.00  0.00    -0.393 OA
HETATM   17  H           1     -19.656  -4.914  -9.552  0.00  0.00     0.210 HD
ENDBRANCH  14  16
ENDBRANCH  10  14
ENDBRANCH   8  10
ENDBRANCH   1   6
BRANCH   1  18
HETATM   18  C           1     -19.849  -8.191  -3.993  0.00  0.00     0.083 C 
BRANCH  18  19
HETATM   19  C           1     -20.136  -8.920  -2.718  0.00  0.00    -0.028 A 
HETATM   20  C           1     -19.635 -10.150  -2.355  0.00  0.00     0.096 A 
HETATM   21  N           1     -20.139 -10.459  -1.120  0.00  0.00    -0.365 N 
HETATM   22  C           1     -20.960  -9.449  -0.673  0.00  0.00     0.042 A 
HETATM   23  H           1     -19.928 -11.341  -0.590  0.00  0.00     0.165 HD
HETATM   24  C           1     -21.684  -9.331   0.520  0.00  0.00     0.030 A 
HETATM   25  C           1     -20.976  -8.466  -1.663  0.00  0.00    -0.002 A 
HETATM   26  C           1     -22.444  -8.172   0.704  0.00  0.00     0.002 A 
HETATM   27  C           1     -22.478  -7.173  -0.268  0.00  0.00     0.001 A 
HETATM   28  C           1     -21.748  -7.308  -1.455  0.00  0.00     0.014 A 
ENDBRANCH  18  19
ENDBRANCH   1  18
TORSDOF 8
ENDMDL
MODEL 9
REMARK VINA RESULT:      -6.9      2.922      7.745
REMARK  8 active torsions:
REMARK  status: ('A' for Active; 'I' for Inactive)
REMARK    1  A    between atoms: N_1  and  C_2 
REMARK    2  A    between atoms: C_2  and  C_15 
REMARK    3  A    between atoms: C_2  and  C_22 
REMARK    4  A    between atoms: C_4  and  C_10 
REMARK    5  A    between atoms: C_6  and  C_22 
REMARK    6  A    between atoms: C_10  and  C_13 
REMARK    7  A    between atoms: C_10  and  N_16 
REMARK    8  A    between atoms: C_13  and  O_14 
REMARK       I    between atoms: C_15  and  N_16 
ROOT
HETATM    1  C           1     -20.593  -5.930  -5.889  0.00  0.00     0.278 C 
ENDROOT
BRANCH   1   2
HETATM    2  N           1     -20.776  -6.682  -7.174  0.00  0.00    -0.066 N 
HETATM    3  H           1     -21.727  -7.112  -7.194  0.00  0.00     0.275 HD
HETATM    4  H           1     -20.675  -6.023  -7.979  0.00  0.00     0.275 HD
HETATM    5  H           1     -20.052  -7.432  -7.244  0.00  0.00     0.275 HD
ENDBRANCH   1   2
BRANCH   1   6
HETATM    6  C           1     -21.521  -6.493  -4.841  0.00  0.00     0.249 C 
HETATM    7  O           1     -22.717  -6.399  -4.978  0.00  0.00    -0.271 OA
HETATM    8  N           1     -21.006  -7.112  -3.733  0.00  0.00    -0.343 N 
HETATM    9  H           1     -20.004  -7.192  -3.617  0.00  0.00     0.163 HD
BRANCH   8  10
HETATM   10  C           1     -21.897  -7.654  -2.725  0.00  0.00     0.214 C 
BRANCH  10  11
HETATM   11  C           1     -22.092  -6.636  -1.628  0.00  0.00     0.199 C 
HETATM   12  O           1     -21.955  -5.419  -1.873  0.00  0.00    -0.646 OA
HETATM   13  O           1     -22.388  -7.012  -0.473  0.00  0.00    -0.646 OA
ENDBRANCH  10  11
BRANCH  10  14
HETATM   14  C           1     -21.292  -8.923  -2.139  0.00  0.00     0.147 C 
HETATM   15  C           1     -21.778 -10.129  -2.931  0.00  0.00     0.042 C 
BRANCH  14  16
HETATM   16  O           1     -19.893  -8.849  -2.212  0.00  0.00    -0.393 OA
HETATM   17  H           1     -19.685  -8.373  -2.999  0.00  0.00     0.210 HD
ENDBRANCH  14  16
ENDBRANCH  10  14
ENDBRANCH   8  10
ENDBRANCH   1   6
BRANCH   1  18
HETATM   18  C           1     -20.914  -4.458  -6.113  0.00  0.00     0.083 C 
BRANCH  18  19
HETATM   19  C           1     -21.854  -4.321  -7.269  0.00  0.00    -0.028 A 
HETATM   20  C           1     -23.229  -4.310  -7.200  0.00  0.00     0.096 A 
HETATM   21  N           1     -23.710  -4.166  -8.474  0.00  0.00    -0.365 N 
HETATM   22  C           1     -22.669  -4.083  -9.371  0.00  0.00     0.042 A 
HETATM   23  H           1     -24.729  -4.126  -8.730  0.00  0.00     0.165 HD
HETATM   24  C           1     -22.683  -3.933 -10.763  0.00  0.00     0.030 A 
HETATM   25  C           1     -21.487  -4.178  -8.636  0.00  0.00    -0.002 A 
HETATM   26  C           1     -21.450  -3.877 -11.420  0.00  0.00     0.002 A 
HETATM   27  C           1     -20.253  -3.969 -10.711  0.00  0.00     0.001 A 
HETATM   28  C           1     -20.258  -4.119  -9.319  0.00  0.00     0.014 A 
ENDBRANCH  18  19
ENDBRANCH   1  18
TORSDOF 8
ENDMDL
