MODEL 1
REMARK VINA RESULT:      -7.3      0.000      0.000
REMARK  14 active torsions:
REMARK  status: ('A' for Active; 'I' for Inactive)
REMARK    1  A    between atoms: C_5  and  C_21 
REMARK    2  A    between atoms: C_5  and  C_6 
REMARK    3  A    between atoms: C_5  and  N_32 
REMARK    4  A    between atoms: C_6  and  C_25 
REMARK    5  A    between atoms: O_7  and  C_26 
REMARK    6  A    between atoms: O_7  and  P_15 
REMARK    7  A    between atoms: C_9  and  C_10 
REMARK    8  A    between atoms: C_10  and  C_23 
REMARK    9  A    between atoms: C_11  and  C_23 
REMARK   10  A    between atoms: P_15  and  O_28 
REMARK   11  A    between atoms: N_16  and  C_23 
REMARK       I    between atoms: N_16  and  C_21 
REMARK   12  A    between atoms: C_24  and  C_25 
REMARK   13  A    between atoms: C_24  and  C_34 
REMARK   14  A    between atoms: N_33  and  C_34 
ROOT
HETATM    1  N           1     -21.584  -7.853  -4.636  0.00  0.00    -0.344 N 
HETATM    2  H           1     -21.902  -8.808  -4.526  0.00  0.00     0.163 HD
HETATM    3  C           1     -22.080  -6.868  -3.824  0.00  0.00     0.249 C 
HETATM    4  O           1     -23.069  -6.256  -4.153  0.00  0.00    -0.271 OA
ENDROOT
BRANCH   1   5
HETATM    5  C           1     -20.603  -7.529  -5.652  0.00  0.00     0.189 C 
BRANCH   5   6
HETATM    6  C           1     -20.294  -6.039  -5.601  0.00  0.00     0.074 C 
BRANCH   6   7
HETATM    7  C           1     -20.849  -5.371  -6.821  0.00  0.00    -0.056 A 
HETATM    8  C           1     -20.151  -5.433  -8.028  0.00  0.00     0.010 A 
HETATM    9  C           1     -20.668  -4.812  -9.164  0.00  0.00     0.038 A 
HETATM   10  C           1     -21.883  -4.129  -9.094  0.00  0.00     0.081 A 
HETATM   11  C           1     -22.580  -4.068  -7.888  0.00  0.00     0.038 A 
HETATM   12  C           1     -22.063  -4.689  -6.751  0.00  0.00     0.010 A 
BRANCH  10  13
HETATM   13  O           1     -22.385  -3.525 -10.199  0.00  0.00    -0.247 OA
BRANCH  13  14
HETATM   14  P           1     -23.618  -4.238 -10.958  0.00  0.00     0.411 P 
HETATM   15  O           1     -24.781  -3.322 -10.980  0.00  0.00    -0.624 OA
HETATM   16  O           1     -23.985  -5.482 -10.246  0.00  0.00    -0.624 OA
BRANCH  14  17
HETATM   17  O           1     -23.186  -4.591 -12.473  0.00  0.00    -0.300 OA
HETATM   18  H           1     -23.667  -5.371 -12.690  0.00  0.00     0.223 HD
ENDBRANCH  14  17
ENDBRANCH  13  14
ENDBRANCH  10  13
ENDBRANCH   6   7
ENDBRANCH   5   6
BRANCH   5  19
HETATM   19  C           1     -19.339  -8.315  -5.400  0.00  0.00     0.197 C 
HETATM   20  O           1     -18.571  -8.583  -6.348  0.00  0.00    -0.646 OA
HETATM   21  O           1     -19.062  -8.697  -4.242  0.00  0.00    -0.646 OA
ENDBRANCH   5  19
ENDBRANCH   1   5
BRANCH   3  22
HETATM   22  C           1     -21.392  -6.548  -2.520  0.00  0.00     0.274 C 
BRANCH  22  23
HETATM   23  C           1     -21.254  -7.820  -1.693  0.00  0.00     0.042 C 
BRANCH  23  24
HETATM   24  C           1     -22.029  -7.667  -0.392  0.00  0.00     0.004 C 
BRANCH  24  25
HETATM   25  C           1     -22.666  -9.000  -0.021  0.00  0.00     0.027 C 
BRANCH  25  26
HETATM   26  C           1     -21.580  -9.985   0.388  0.00  0.00     0.229 C 
BRANCH  26  27
HETATM   27  N           1     -21.608 -11.171  -0.531  0.00  0.00    -0.079 N 
HETATM   28  H           1     -21.169 -11.991  -0.054  0.00  0.00     0.274 HD
HETATM   29  H           1     -22.598 -11.400  -0.775  0.00  0.00     0.274 HD
HETATM   30  H           1     -21.077 -10.949  -1.403  0.00  0.00     0.274 HD
ENDBRANCH  26  27
ENDBRANCH  25  26
ENDBRANCH  24  25
ENDBRANCH  23  24
ENDBRANCH  22  23
BRANCH  22  31
HETATM   31  N           1     -22.206  -5.544  -1.759  0.00  0.00    -0.067 N 
HETATM   32  H           1     -23.214  -5.817  -1.789  0.00  0.00     0.275 HD
HETATM   33  H           1     -21.882  -5.513  -0.766  0.00  0.00     0.275 HD
HETATM   34  H           1     -22.089  -4.600  -2.193  0.00  0.00     0.275 HD
ENDBRANCH  22  31
ENDBRANCH   3  22
TORSDOF 14
ENDMDL
MODEL 2
REMARK VINA RESULT:      -6.8      3.807      7.401
REMARK  14 active torsions:
REMARK  status: ('A' for Active; 'I' for Inactive)
REMARK    1  A    between atoms: C_5  and  C_21 
REMARK    2  A    between atoms: C_5  and  C_6 
REMARK    3  A    between atoms: C_5  and  N_32 
REMARK    4  A    between atoms: C_6  and  C_25 
REMARK    5  A    between atoms: O_7  and  C_26 
REMARK    6  A    between atoms: O_7  and  P_15 
REMARK    7  A    between atoms: C_9  and  C_10 
REMARK    8  A    between atoms: C_10  and  C_23 
REMARK    9  A    between atoms: C_11  and  C_23 
REMARK   10  A    between atoms: P_15  and  O_28 
REMARK   11  A    between atoms: N_16  and  C_23 
REMARK       I    between atoms: N_16  and  C_21 
REMARK   12  A    between atoms: C_24  and  C_25 
REMARK   13  A    between atoms: C_24  and  C_34 
REMARK   14  A    between atoms: N_33  and  C_34 
ROOT
HETATM    1  N           1     -21.426  -6.387  -3.114  0.00  0.00    -0.344 N 
HETATM    2  H           1     -21.286  -5.559  -2.548  0.00  0.00     0.163 HD
HETATM    3  C           1     -21.641  -6.267  -4.461  0.00  0.00     0.249 C 
HETATM    4  O           1     -22.767  -6.155  -4.885  0.00  0.00    -0.271 OA
ENDROOT
BRANCH   1   5
HETATM    5  C           1     -21.400  -7.697  -2.497  0.00  0.00     0.189 C 
BRANCH   5   6
HETATM    6  C           1     -19.961  -8.188  -2.408  0.00  0.00     0.074 C 
BRANCH   6   7
HETATM    7  C           1     -19.801  -9.424  -3.239  0.00  0.00    -0.056 A 
HETATM    8  C           1     -20.914 -10.001  -3.849  0.00  0.00     0.010 A 
HETATM    9  C           1     -20.765 -11.152  -4.623  0.00  0.00     0.038 A 
HETATM   10  C           1     -19.504 -11.724  -4.787  0.00  0.00     0.081 A 
HETATM   11  C           1     -18.391 -11.145  -4.177  0.00  0.00     0.038 A 
HETATM   12  C           1     -18.539  -9.995  -3.403  0.00  0.00     0.010 A 
BRANCH  10  13
HETATM   13  O           1     -19.360 -12.842  -5.539  0.00  0.00    -0.247 OA
BRANCH  13  14
HETATM   14  P           1     -19.373 -12.683  -7.145  0.00  0.00     0.411 P 
HETATM   15  O           1     -18.869 -11.340  -7.513  0.00  0.00    -0.624 OA
HETATM   16  O           1     -20.755 -12.844  -7.647  0.00  0.00    -0.624 OA
BRANCH  14  17
HETATM   17  O           1     -18.424 -13.811  -7.805  0.00  0.00    -0.300 OA
HETATM   18  H           1     -19.014 -14.401  -8.242  0.00  0.00     0.223 HD
ENDBRANCH  14  17
ENDBRANCH  13  14
ENDBRANCH  10  13
ENDBRANCH   6   7
ENDBRANCH   5   6
BRANCH   5  19
HETATM   19  C           1     -21.990  -7.613  -1.111  0.00  0.00     0.197 C 
HETATM   20  O           1     -22.754  -6.669  -0.813  0.00  0.00    -0.646 OA
HETATM   21  O           1     -21.715  -8.487  -0.260  0.00  0.00    -0.646 OA
ENDBRANCH   5  19
ENDBRANCH   1   5
BRANCH   3  22
HETATM   22  C           1     -20.471  -6.276  -5.415  0.00  0.00     0.274 C 
BRANCH  22  23
HETATM   23  C           1     -20.041  -4.843  -5.703  0.00  0.00     0.042 C 
BRANCH  23  24
HETATM   24  C           1     -20.248  -4.539  -7.180  0.00  0.00     0.004 C 
BRANCH  24  25
HETATM   25  C           1     -21.348  -3.495  -7.334  0.00  0.00     0.027 C 
BRANCH  25  26
HETATM   26  C           1     -22.488  -4.077  -8.160  0.00  0.00     0.229 C 
BRANCH  26  27
HETATM   27  N           1     -23.653  -4.376  -7.263  0.00  0.00    -0.079 N 
HETATM   28  H           1     -24.374  -4.912  -7.797  0.00  0.00     0.274 HD
HETATM   29  H           1     -23.330  -4.945  -6.449  0.00  0.00     0.274 HD
HETATM   30  H           1     -24.067  -3.480  -6.920  0.00  0.00     0.274 HD
ENDBRANCH  26  27
ENDBRANCH  25  26
ENDBRANCH  24  25
ENDBRANCH  23  24
ENDBRANCH  22  23
BRANCH  22  31
HETATM   31  N           1     -20.876  -6.943  -6.695  0.00  0.00    -0.067 N 
HETATM   32  H           1     -21.707  -7.553  -6.524  0.00  0.00     0.275 HD
HETATM   33  H           1     -21.118  -6.216  -7.406  0.00  0.00     0.275 HD
HETATM   34  H           1     -20.084  -7.526  -7.049  0.00  0.00     0.275 HD
ENDBRANCH  22  31
ENDBRANCH   3  22
TORSDOF 14
ENDMDL
MODEL 3
REMARK VINA RESULT:      -6.8      4.036      8.631
REMARK  14 active torsions:
REMARK  status: ('A' for Active; 'I' for Inactive)
REMARK    1  A    between atoms: C_5  and  C_21 
REMARK    2  A    between atoms: C_5  and  C_6 
REMARK    3  A    between atoms: C_5  and  N_32 
REMARK    4  A    between atoms: C_6  and  C_25 
REMARK    5  A    between atoms: O_7  and  C_26 
REMARK    6  A    between atoms: O_7  and  P_15 
REMARK    7  A    between atoms: C_9  and  C_10 
REMARK    8  A    between atoms: C_10  and  C_23 
REMARK    9  A    between atoms: C_11  and  C_23 
REMARK   10  A    between atoms: P_15  and  O_28 
REMARK   11  A    between atoms: N_16  and  C_23 
REMARK       I    between atoms: N_16  and  C_21 
REMARK   12  A    between atoms: C_24  and  C_25 
REMARK   13  A    between atoms: C_24  and  C_34 
REMARK   14  A    between atoms: N_33  and  C_34 
ROOT
HETATM    1  N           1     -20.468  -4.820  -4.685  0.00  0.00    -0.344 N 
HETATM    2  H           1     -20.022  -4.114  -4.112  0.00  0.00     0.163 HD
HETATM    3  C           1     -20.621  -4.613  -6.031  0.00  0.00     0.249 C 
HETATM    4  O           1     -21.618  -4.076  -6.450  0.00  0.00    -0.271 OA
ENDROOT
BRANCH   1   5
HETATM    5  C           1     -20.945  -6.047  -4.081  0.00  0.00     0.189 C 
BRANCH   5   6
HETATM    6  C           1     -21.463  -5.755  -2.679  0.00  0.00     0.074 C 
BRANCH   6   7
HETATM    7  C           1     -21.554  -7.032  -1.903  0.00  0.00    -0.056 A 
HETATM    8  C           1     -20.767  -8.125  -2.264  0.00  0.00     0.010 A 
HETATM    9  C           1     -20.850  -9.314  -1.541  0.00  0.00     0.038 A 
HETATM   10  C           1     -21.722  -9.411  -0.456  0.00  0.00     0.081 A 
HETATM   11  C           1     -22.510  -8.317  -0.094  0.00  0.00     0.038 A 
HETATM   12  C           1     -22.426  -7.128  -0.818  0.00  0.00     0.010 A 
BRANCH  10  13
HETATM   13  O           1     -21.804 -10.567   0.246  0.00  0.00    -0.247 OA
BRANCH  13  14
HETATM   14  P           1     -22.727 -11.751  -0.346  0.00  0.00     0.411 P 
HETATM   15  O           1     -23.345 -12.501   0.771  0.00  0.00    -0.624 OA
HETATM   16  O           1     -21.895 -12.669  -1.155  0.00  0.00    -0.624 OA
BRANCH  14  17
HETATM   17  O           1     -23.887 -11.116  -1.272  0.00  0.00    -0.300 OA
HETATM   18  H           1     -24.679 -11.211  -0.772  0.00  0.00     0.223 HD
ENDBRANCH  14  17
ENDBRANCH  13  14
ENDBRANCH  10  13
ENDBRANCH   6   7
ENDBRANCH   5   6
BRANCH   5  19
HETATM   19  C           1     -22.060  -6.620  -4.921  0.00  0.00     0.197 C 
HETATM   20  O           1     -21.834  -7.579  -5.690  0.00  0.00    -0.646 OA
HETATM   21  O           1     -23.210  -6.135  -4.848  0.00  0.00    -0.646 OA
ENDBRANCH   5  19
ENDBRANCH   1   5
BRANCH   3  22
HETATM   22  C           1     -19.543  -5.059  -6.989  0.00  0.00     0.274 C 
BRANCH  22  23
HETATM   23  C           1     -19.495  -4.106  -8.177  0.00  0.00     0.042 C 
BRANCH  23  24
HETATM   24  C           1     -20.007  -4.820  -9.420  0.00  0.00     0.004 C 
BRANCH  24  25
HETATM   25  C           1     -21.061  -3.957 -10.103  0.00  0.00     0.027 C 
BRANCH  25  26
HETATM   26  C           1     -22.448  -4.485  -9.763  0.00  0.00     0.229 C 
BRANCH  26  27
HETATM   27  N           1     -23.134  -3.527  -8.834  0.00  0.00    -0.079 N 
HETATM   28  H           1     -22.644  -2.605  -8.863  0.00  0.00     0.274 HD
HETATM   29  H           1     -24.127  -3.403  -9.133  0.00  0.00     0.274 HD
HETATM   30  H           1     -23.108  -3.907  -7.861  0.00  0.00     0.274 HD
ENDBRANCH  26  27
ENDBRANCH  25  26
ENDBRANCH  24  25
ENDBRANCH  23  24
ENDBRANCH  22  23
BRANCH  22  31
HETATM   31  N           1     -19.846  -6.445  -7.472  0.00  0.00    -0.067 N 
HETATM   32  H           1     -20.822  -6.480  -7.843  0.00  0.00     0.275 HD
HETATM   33  H           1     -19.175  -6.704  -8.230  0.00  0.00     0.275 HD
HETATM   34  H           1     -19.751  -7.119  -6.678  0.00  0.00     0.275 HD
ENDBRANCH  22  31
ENDBRANCH   3  22
TORSDOF 14
ENDMDL
MODEL 4
REMARK VINA RESULT:      -6.5      2.227      3.273
REMARK  14 active torsions:
REMARK  status: ('A' for Active; 'I' for Inactive)
REMARK    1  A    between atoms: C_5  and  C_21 
REMARK    2  A    between atoms: C_5  and  C_6 
REMARK    3  A    between atoms: C_5  and  N_32 
REMARK    4  A    between atoms: C_6  and  C_25 
REMARK    5  A    between atoms: O_7  and  C_26 
REMARK    6  A    between atoms: O_7  and  P_15 
REMARK    7  A    between atoms: C_9  and  C_10 
REMARK    8  A    between atoms: C_10  and  C_23 
REMARK    9  A    between atoms: C_11  and  C_23 
REMARK   10  A    between atoms: P_15  and  O_28 
REMARK   11  A    between atoms: N_16  and  C_23 
REMARK       I    between atoms: N_16  and  C_21 
REMARK   12  A    between atoms: C_24  and  C_25 
REMARK   13  A    between atoms: C_24  and  C_34 
REMARK   14  A    between atoms: N_33  and  C_34 
ROOT
HETATM    1  N           1     -21.744  -8.426  -3.914  0.00  0.00    -0.344 N 
HETATM    2  H           1     -22.666  -8.798  -3.729  0.00  0.00     0.163 HD
HETATM    3  C           1     -20.966  -7.979  -2.879  0.00  0.00     0.249 C 
HETATM    4  O           1     -21.031  -6.824  -2.529  0.00  0.00    -0.271 OA
ENDROOT
BRANCH   1   5
HETATM    5  C           1     -21.246  -8.365  -5.273  0.00  0.00     0.189 C 
BRANCH   5   6
HETATM    6  C           1     -20.290  -7.187  -5.411  0.00  0.00     0.074 C 
BRANCH   6   7
HETATM    7  C           1     -20.881  -6.169  -6.338  0.00  0.00    -0.056 A 
HETATM    8  C           1     -22.125  -5.607  -6.053  0.00  0.00     0.010 A 
HETATM    9  C           1     -22.675  -4.659  -6.915  0.00  0.00     0.038 A 
HETATM   10  C           1     -21.981  -4.273  -8.062  0.00  0.00     0.081 A 
HETATM   11  C           1     -20.735  -4.835  -8.346  0.00  0.00     0.038 A 
HETATM   12  C           1     -20.186  -5.783  -7.484  0.00  0.00     0.010 A 
BRANCH  10  13
HETATM   13  O           1     -22.515  -3.351  -8.900  0.00  0.00    -0.247 OA
BRANCH  13  14
HETATM   14  P           1     -23.191  -3.873 -10.270  0.00  0.00     0.411 P 
HETATM   15  O           1     -24.397  -3.066 -10.564  0.00  0.00    -0.624 OA
HETATM   16  O           1     -23.574  -5.295 -10.121  0.00  0.00    -0.624 OA
BRANCH  14  17
HETATM   17  O           1     -22.135  -3.722 -11.482  0.00  0.00    -0.300 OA
HETATM   18  H           1     -21.470  -4.366 -11.308  0.00  0.00     0.223 HD
ENDBRANCH  14  17
ENDBRANCH  13  14
ENDBRANCH  10  13
ENDBRANCH   6   7
ENDBRANCH   5   6
BRANCH   5  19
HETATM   19  C           1     -20.517  -9.645  -5.600  0.00  0.00     0.197 C 
HETATM   20  O           1     -21.101 -10.744  -5.479  0.00  0.00    -0.646 OA
HETATM   21  O           1     -19.331  -9.607  -5.991  0.00  0.00    -0.646 OA
ENDBRANCH   5  19
ENDBRANCH   1   5
BRANCH   3  22
HETATM   22  C           1     -20.027  -8.929  -2.176  0.00  0.00     0.274 C 
BRANCH  22  23
HETATM   23  C           1     -18.616  -8.743  -2.719  0.00  0.00     0.042 C 
BRANCH  23  24
HETATM   24  C           1     -17.853 -10.056  -2.609  0.00  0.00     0.004 C 
BRANCH  24  25
HETATM   25  C           1     -16.372  -9.805  -2.865  0.00  0.00     0.027 C 
BRANCH  25  26
HETATM   26  C           1     -16.034 -10.180  -4.301  0.00  0.00     0.229 C 
BRANCH  26  27
HETATM   27  N           1     -17.047 -11.160  -4.815  0.00  0.00    -0.079 N 
HETATM   28  H           1     -16.556 -11.980  -5.236  0.00  0.00     0.274 HD
HETATM   29  H           1     -17.651 -11.484  -4.026  0.00  0.00     0.274 HD
HETATM   30  H           1     -17.641 -10.698  -5.541  0.00  0.00     0.274 HD
ENDBRANCH  26  27
ENDBRANCH  25  26
ENDBRANCH  24  25
ENDBRANCH  23  24
ENDBRANCH  22  23
BRANCH  22  31
HETATM   31  N           1     -20.473 -10.340  -2.416  0.00  0.00    -0.067 N 
HETATM   32  H           1     -19.790 -10.820  -3.045  0.00  0.00     0.275 HD
HETATM   33  H           1     -20.525 -10.849  -1.505  0.00  0.00     0.275 HD
HETATM   34  H           1     -21.416 -10.335  -2.866  0.00  0.00     0.275 HD
ENDBRANCH  22  31
ENDBRANCH   3  22
TORSDOF 14
ENDMDL
MODEL 5
REMARK VINA RESULT:      -6.5     12.617     15.764
REMARK  14 active torsions:
REMARK  status: ('A' for Active; 'I' for Inactive)
REMARK    1  A    between atoms: C_5  and  C_21 
REMARK    2  A    between atoms: C_5  and  C_6 
REMARK    3  A    between atoms: C_5  and  N_32 
REMARK    4  A    between atoms: C_6  and  C_25 
REMARK    5  A    between atoms: O_7  and  C_26 
REMARK    6  A    between atoms: O_7  and  P_15 
REMARK    7  A    between atoms: C_9  and  C_10 
REMARK    8  A    between atoms: C_10  and  C_23 
REMARK    9  A    between atoms: C_11  and  C_23 
REMARK   10  A    between atoms: P_15  and  O_28 
REMARK   11  A    between atoms: N_16  and  C_23 
REMARK       I    between atoms: N_16  and  C_21 
REMARK   12  A    between atoms: C_24  and  C_25 
REMARK   13  A    between atoms: C_24  and  C_34 
REMARK   14  A    between atoms: N_33  and  C_34 
ROOT
HETATM    1  N           1     -26.422  -6.139 -18.535  0.00  0.00    -0.344 N 
HETATM    2  H           1     -25.435  -5.917 -18.516  0.00  0.00     0.163 HD
HETATM    3  C           1     -27.013  -6.532 -19.706  0.00  0.00     0.249 C 
HETATM    4  O           1     -27.494  -5.708 -20.447  0.00  0.00    -0.271 OA
ENDROOT
BRANCH   1   5
HETATM    5  C           1     -27.210  -6.040 -17.323  0.00  0.00     0.189 C 
BRANCH   5   6
HETATM    6  C           1     -28.441  -6.930 -17.444  0.00  0.00     0.074 C 
BRANCH   6   7
HETATM    7  C           1     -29.677  -6.093 -17.328  0.00  0.00    -0.056 A 
HETATM    8  C           1     -30.932  -6.700 -17.340  0.00  0.00     0.010 A 
HETATM    9  C           1     -32.084  -5.920 -17.231  0.00  0.00     0.038 A 
HETATM   10  C           1     -31.980  -4.535 -17.111  0.00  0.00     0.081 A 
HETATM   11  C           1     -30.723  -3.928 -17.099  0.00  0.00     0.038 A 
HETATM   12  C           1     -29.572  -4.707 -17.207  0.00  0.00     0.010 A 
BRANCH  10  13
HETATM   13  O           1     -33.099  -3.778 -17.005  0.00  0.00    -0.247 OA
BRANCH  13  14
HETATM   14  P           1     -34.020  -3.965 -15.693  0.00  0.00     0.411 P 
HETATM   15  O           1     -34.885  -2.776 -15.523  0.00  0.00    -0.624 OA
HETATM   16  O           1     -33.157  -4.122 -14.502  0.00  0.00    -0.624 OA
BRANCH  14  17
HETATM   17  O           1     -34.943  -5.278 -15.868  0.00  0.00    -0.300 OA
HETATM   18  H           1     -35.244  -5.483 -14.999  0.00  0.00     0.223 HD
ENDBRANCH  14  17
ENDBRANCH  13  14
ENDBRANCH  10  13
ENDBRANCH   6   7
ENDBRANCH   5   6
BRANCH   5  19
HETATM   19  C           1     -26.379  -6.487 -16.145  0.00  0.00     0.197 C 
HETATM   20  O           1     -26.780  -7.421 -15.417  0.00  0.00    -0.646 OA
HETATM   21  O           1     -25.291  -5.924 -15.899  0.00  0.00    -0.646 OA
ENDBRANCH   5  19
ENDBRANCH   1   5
BRANCH   3  22
HETATM   22  C           1     -27.064  -7.996 -20.071  0.00  0.00     0.274 C 
BRANCH  22  23
HETATM   23  C           1     -26.291  -8.224 -21.364  0.00  0.00     0.042 C 
BRANCH  23  24
HETATM   24  C           1     -24.830  -7.854 -21.154  0.00  0.00     0.004 C 
BRANCH  24  25
HETATM   25  C           1     -24.128  -7.771 -22.503  0.00  0.00     0.027 C 
BRANCH  25  26
HETATM   26  C           1     -22.763  -8.440 -22.408  0.00  0.00     0.229 C 
BRANCH  26  27
HETATM   27  N           1     -22.674  -9.215 -21.127  0.00  0.00    -0.079 N 
HETATM   28  H           1     -23.103  -8.659 -20.354  0.00  0.00     0.274 HD
HETATM   29  H           1     -23.185 -10.119 -21.230  0.00  0.00     0.274 HD
HETATM   30  H           1     -21.670  -9.406 -20.905  0.00  0.00     0.274 HD
ENDBRANCH  26  27
ENDBRANCH  25  26
ENDBRANCH  24  25
ENDBRANCH  23  24
ENDBRANCH  22  23
BRANCH  22  31
HETATM   31  N           1     -28.491  -8.414 -20.262  0.00  0.00    -0.067 N 
HETATM   32  H           1     -28.566  -9.028 -21.104  0.00  0.00     0.275 HD
HETATM   33  H           1     -28.816  -8.939 -19.418  0.00  0.00     0.275 HD
HETATM   34  H           1     -29.087  -7.566 -20.396  0.00  0.00     0.275 HD
ENDBRANCH  22  31
ENDBRANCH   3  22
TORSDOF 14
ENDMDL
MODEL 6
REMARK VINA RESULT:      -6.3      1.774      2.481
REMARK  14 active torsions:
REMARK  status: ('A' for Active; 'I' for Inactive)
REMARK    1  A    between atoms: C_5  and  C_21 
REMARK    2  A    between atoms: C_5  and  C_6 
REMARK    3  A    between atoms: C_5  and  N_32 
REMARK    4  A    between atoms: C_6  and  C_25 
REMARK    5  A    between atoms: O_7  and  C_26 
REMARK    6  A    between atoms: O_7  and  P_15 
REMARK    7  A    between atoms: C_9  and  C_10 
REMARK    8  A    between atoms: C_10  and  C_23 
REMARK    9  A    between atoms: C_11  and  C_23 
REMARK   10  A    between atoms: P_15  and  O_28 
REMARK   11  A    between atoms: N_16  and  C_23 
REMARK       I    between atoms: N_16  and  C_21 
REMARK   12  A    between atoms: C_24  and  C_25 
REMARK   13  A    between atoms: C_24  and  C_34 
REMARK   14  A    between atoms: N_33  and  C_34 
ROOT
HETATM    1  N           1     -21.680  -8.243  -3.898  0.00  0.00    -0.344 N 
HETATM    2  H           1     -22.593  -7.885  -3.650  0.00  0.00     0.163 HD
HETATM    3  C           1     -20.864  -8.769  -2.932  0.00  0.00     0.249 C 
HETATM    4  O           1     -20.088  -8.055  -2.342  0.00  0.00    -0.271 OA
ENDROOT
BRANCH   1   5
HETATM    5  C           1     -21.236  -8.200  -5.277  0.00  0.00     0.189 C 
BRANCH   5   6
HETATM    6  C           1     -20.272  -7.035  -5.463  0.00  0.00     0.074 C 
BRANCH   6   7
HETATM    7  C           1     -20.853  -6.056  -6.436  0.00  0.00    -0.056 A 
HETATM    8  C           1     -20.140  -5.706  -7.582  0.00  0.00     0.010 A 
HETATM    9  C           1     -20.681  -4.795  -8.488  0.00  0.00     0.038 A 
HETATM   10  C           1     -21.935  -4.234  -8.249  0.00  0.00     0.081 A 
HETATM   11  C           1     -22.649  -4.585  -7.103  0.00  0.00     0.038 A 
HETATM   12  C           1     -22.108  -5.496  -6.196  0.00  0.00     0.010 A 
BRANCH  10  13
HETATM   13  O           1     -22.461  -3.348  -9.130  0.00  0.00    -0.247 OA
BRANCH  13  14
HETATM   14  P           1     -23.240  -3.931 -10.418  0.00  0.00     0.411 P 
HETATM   15  O           1     -23.633  -5.335 -10.164  0.00  0.00    -0.624 OA
HETATM   16  O           1     -22.351  -3.875 -11.600  0.00  0.00    -0.624 OA
BRANCH  14  17
HETATM   17  O           1     -24.561  -3.045 -10.693  0.00  0.00    -0.300 OA
HETATM   18  H           1     -24.262  -2.152 -10.687  0.00  0.00     0.223 HD
ENDBRANCH  14  17
ENDBRANCH  13  14
ENDBRANCH  10  13
ENDBRANCH   6   7
ENDBRANCH   5   6
BRANCH   5  19
HETATM   19  C           1     -20.536  -9.493  -5.620  0.00  0.00     0.197 C 
HETATM   20  O           1     -21.202 -10.484  -5.990  0.00  0.00    -0.646 OA
HETATM   21  O           1     -19.292  -9.571  -5.535  0.00  0.00    -0.646 OA
ENDBRANCH   5  19
ENDBRANCH   1   5
BRANCH   3  22
HETATM   22  C           1     -20.934 -10.241  -2.604  0.00  0.00     0.274 C 
BRANCH  22  23
HETATM   23  C           1     -21.644 -10.430  -1.269  0.00  0.00     0.042 C 
BRANCH  23  24
HETATM   24  C           1     -23.099 -10.803  -1.515  0.00  0.00     0.004 C 
BRANCH  24  25
HETATM   25  C           1     -23.800 -11.019  -0.180  0.00  0.00     0.027 C 
BRANCH  25  26
HETATM   26  C           1     -23.602 -12.460   0.270  0.00  0.00     0.229 C 
BRANCH  26  27
HETATM   27  N           1     -23.764 -13.379  -0.904  0.00  0.00    -0.079 N 
HETATM   28  H           1     -23.405 -14.328  -0.655  0.00  0.00     0.274 HD
HETATM   29  H           1     -24.775 -13.445  -1.158  0.00  0.00     0.274 HD
HETATM   30  H           1     -23.225 -13.004  -1.718  0.00  0.00     0.274 HD
ENDBRANCH  26  27
ENDBRANCH  25  26
ENDBRANCH  24  25
ENDBRANCH  23  24
ENDBRANCH  22  23
BRANCH  22  31
HETATM   31  N           1     -19.546 -10.800  -2.516  0.00  0.00    -0.067 N 
HETATM   32  H           1     -19.571 -11.718  -2.017  0.00  0.00     0.275 HD
HETATM   33  H           1     -19.163 -10.936  -3.479  0.00  0.00     0.275 HD
HETATM   34  H           1     -18.936 -10.135  -1.989  0.00  0.00     0.275 HD
ENDBRANCH  22  31
ENDBRANCH   3  22
TORSDOF 14
ENDMDL
MODEL 7
REMARK VINA RESULT:      -6.3      3.959      7.617
REMARK  14 active torsions:
REMARK  status: ('A' for Active; 'I' for Inactive)
REMARK    1  A    between atoms: C_5  and  C_21 
REMARK    2  A    between atoms: C_5  and  C_6 
REMARK    3  A    between atoms: C_5  and  N_32 
REMARK    4  A    between atoms: C_6  and  C_25 
REMARK    5  A    between atoms: O_7  and  C_26 
REMARK    6  A    between atoms: O_7  and  P_15 
REMARK    7  A    between atoms: C_9  and  C_10 
REMARK    8  A    between atoms: C_10  and  C_23 
REMARK    9  A    between atoms: C_11  and  C_23 
REMARK   10  A    between atoms: P_15  and  O_28 
REMARK   11  A    between atoms: N_16  and  C_23 
REMARK       I    between atoms: N_16  and  C_21 
REMARK   12  A    between atoms: C_24  and  C_25 
REMARK   13  A    between atoms: C_24  and  C_34 
REMARK   14  A    between atoms: N_33  and  C_34 
ROOT
HETATM    1  N           1     -21.257  -6.657  -2.871  0.00  0.00    -0.344 N 
HETATM    2  H           1     -20.900  -5.926  -2.269  0.00  0.00     0.163 HD
HETATM    3  C           1     -21.584  -6.375  -4.171  0.00  0.00     0.249 C 
HETATM    4  O           1     -22.705  -6.018  -4.448  0.00  0.00    -0.271 OA
ENDROOT
BRANCH   1   5
HETATM    5  C           1     -21.421  -8.002  -2.358  0.00  0.00     0.189 C 
BRANCH   5   6
HETATM    6  C           1     -20.054  -8.650  -2.186  0.00  0.00     0.074 C 
BRANCH   6   7
HETATM    7  C           1     -19.676  -9.364  -3.447  0.00  0.00    -0.056 A 
HETATM    8  C           1     -18.402  -9.196  -3.988  0.00  0.00     0.010 A 
HETATM    9  C           1     -18.050  -9.862  -5.162  0.00  0.00     0.038 A 
HETATM   10  C           1     -18.972 -10.695  -5.795  0.00  0.00     0.081 A 
HETATM   11  C           1     -20.247 -10.863  -5.253  0.00  0.00     0.038 A 
HETATM   12  C           1     -20.599 -10.198  -4.079  0.00  0.00     0.010 A 
BRANCH  10  13
HETATM   13  O           1     -18.630 -11.341  -6.936  0.00  0.00    -0.247 OA
BRANCH  13  14
HETATM   14  P           1     -17.664 -12.629  -6.818  0.00  0.00     0.411 P 
HETATM   15  O           1     -17.930 -13.552  -7.944  0.00  0.00    -0.624 OA
HETATM   16  O           1     -17.924 -13.326  -5.539  0.00  0.00    -0.624 OA
BRANCH  14  17
HETATM   17  O           1     -16.123 -12.151  -6.868  0.00  0.00    -0.300 OA
HETATM   18  H           1     -16.143 -11.304  -7.279  0.00  0.00     0.223 HD
ENDBRANCH  14  17
ENDBRANCH  13  14
ENDBRANCH  10  13
ENDBRANCH   6   7
ENDBRANCH   5   6
BRANCH   5  19
HETATM   19  C           1     -22.125  -7.949  -1.024  0.00  0.00     0.197 C 
HETATM   20  O           1     -22.135  -8.955  -0.283  0.00  0.00    -0.646 OA
HETATM   21  O           1     -22.696  -6.898  -0.661  0.00  0.00    -0.646 OA
ENDBRANCH   5  19
ENDBRANCH   1   5
BRANCH   3  22
HETATM   22  C           1     -20.544  -6.510  -5.257  0.00  0.00     0.274 C 
BRANCH  22  23
HETATM   23  C           1     -20.291  -5.147  -5.890  0.00  0.00     0.042 C 
BRANCH  23  24
HETATM   24  C           1     -19.835  -5.334  -7.330  0.00  0.00     0.004 C 
BRANCH  24  25
HETATM   25  C           1     -19.846  -3.988  -8.044  0.00  0.00     0.027 C 
BRANCH  25  26
HETATM   26  C           1     -20.450  -4.154  -9.432  0.00  0.00     0.229 C 
BRANCH  26  27
HETATM   27  N           1     -21.869  -4.624  -9.308  0.00  0.00    -0.079 N 
HETATM   28  H           1     -22.032  -4.986  -8.341  0.00  0.00     0.274 HD
HETATM   29  H           1     -22.518  -3.827  -9.494  0.00  0.00     0.274 HD
HETATM   30  H           1     -22.046  -5.386 -10.000  0.00  0.00     0.274 HD
ENDBRANCH  26  27
ENDBRANCH  25  26
ENDBRANCH  24  25
ENDBRANCH  23  24
ENDBRANCH  22  23
BRANCH  22  31
HETATM   31  N           1     -21.037  -7.464  -6.304  0.00  0.00    -0.067 N 
HETATM   32  H           1     -20.762  -8.438  -6.046  0.00  0.00     0.275 HD
HETATM   33  H           1     -22.078  -7.401  -6.370  0.00  0.00     0.275 HD
HETATM   34  H           1     -20.614  -7.216  -7.227  0.00  0.00     0.275 HD
ENDBRANCH  22  31
ENDBRANCH   3  22
TORSDOF 14
ENDMDL
MODEL 8
REMARK VINA RESULT:      -6.2      3.578      6.051
REMARK  14 active torsions:
REMARK  status: ('A' for Active; 'I' for Inactive)
REMARK    1  A    between atoms: C_5  and  C_21 
REMARK    2  A    between atoms: C_5  and  C_6 
REMARK    3  A    between atoms: C_5  and  N_32 
REMARK    4  A    between atoms: C_6  and  C_25 
REMARK    5  A    between atoms: O_7  and  C_26 
REMARK    6  A    between atoms: O_7  and  P_15 
REMARK    7  A    between atoms: C_9  and  C_10 
REMARK    8  A    between atoms: C_10  and  C_23 
REMARK    9  A    between atoms: C_11  and  C_23 
REMARK   10  A    between atoms: P_15  and  O_28 
REMARK   11  A    between atoms: N_16  and  C_23 
REMARK       I    between atoms: N_16  and  C_21 
REMARK   12  A    between atoms: C_24  and  C_25 
REMARK   13  A    between atoms: C_24  and  C_34 
REMARK   14  A    between atoms: N_33  and  C_34 
ROOT
HETATM    1  N           1     -20.286 -11.169  -1.497  0.00  0.00    -0.344 N 
HETATM    2  H           1     -20.844 -12.005  -1.615  0.00  0.00     0.163 HD
HETATM    3  C           1     -18.919 -11.244  -1.556  0.00  0.00     0.249 C 
HETATM    4  O           1     -18.282 -11.445  -0.549  0.00  0.00    -0.271 OA
ENDROOT
BRANCH   1   5
HETATM    5  C           1     -20.933  -9.893  -1.268  0.00  0.00     0.189 C 
BRANCH   5   6
HETATM    6  C           1     -21.991  -9.661  -2.338  0.00  0.00     0.074 C 
BRANCH   6   7
HETATM    7  C           1     -21.603  -8.486  -3.180  0.00  0.00    -0.056 A 
HETATM    8  C           1     -21.614  -7.203  -2.633  0.00  0.00     0.010 A 
HETATM    9  C           1     -21.251  -6.108  -3.417  0.00  0.00     0.038 A 
HETATM   10  C           1     -20.877  -6.296  -4.747  0.00  0.00     0.081 A 
HETATM   11  C           1     -20.865  -7.580  -5.294  0.00  0.00     0.038 A 
HETATM   12  C           1     -21.228  -8.675  -4.510  0.00  0.00     0.010 A 
BRANCH  10  13
HETATM   13  O           1     -20.525  -5.232  -5.509  0.00  0.00    -0.247 OA
BRANCH  13  14
HETATM   14  P           1     -21.501  -4.812  -6.725  0.00  0.00     0.411 P 
HETATM   15  O           1     -21.209  -5.655  -7.906  0.00  0.00    -0.624 OA
HETATM   16  O           1     -21.279  -3.390  -7.068  0.00  0.00    -0.624 OA
BRANCH  14  17
HETATM   17  O           1     -23.038  -5.027  -6.278  0.00  0.00    -0.300 OA
HETATM   18  H           1     -23.169  -5.959  -6.295  0.00  0.00     0.223 HD
ENDBRANCH  14  17
ENDBRANCH  13  14
ENDBRANCH  10  13
ENDBRANCH   6   7
ENDBRANCH   5   6
BRANCH   5  19
HETATM   19  C           1     -21.584  -9.898   0.093  0.00  0.00     0.197 C 
HETATM   20  O           1     -22.623 -10.566   0.287  0.00  0.00    -0.646 OA
HETATM   21  O           1     -21.085  -9.233   1.027  0.00  0.00    -0.646 OA
ENDBRANCH   5  19
ENDBRANCH   1   5
BRANCH   3  22
HETATM   22  C           1     -18.210 -11.075  -2.877  0.00  0.00     0.274 C 
BRANCH  22  23
HETATM   23  C           1     -17.797  -9.618  -3.049  0.00  0.00     0.042 C 
BRANCH  23  24
HETATM   24  C           1     -16.280  -9.511  -2.995  0.00  0.00     0.004 C 
BRANCH  24  25
HETATM   25  C           1     -15.663 -10.596  -3.869  0.00  0.00     0.027 C 
BRANCH  25  26
HETATM   26  C           1     -15.613 -10.117  -5.313  0.00  0.00     0.229 C 
BRANCH  26  27
HETATM   27  N           1     -15.387 -11.290  -6.222  0.00  0.00    -0.079 N 
HETATM   28  H           1     -15.187 -10.947  -7.188  0.00  0.00     0.274 HD
HETATM   29  H           1     -14.574 -11.847  -5.876  0.00  0.00     0.274 HD
HETATM   30  H           1     -16.241 -11.892  -6.234  0.00  0.00     0.274 HD
ENDBRANCH  26  27
ENDBRANCH  25  26
ENDBRANCH  24  25
ENDBRANCH  23  24
ENDBRANCH  22  23
BRANCH  22  31
HETATM   31  N           1     -19.133 -11.467  -3.993  0.00  0.00    -0.067 N 
HETATM   32  H           1     -19.598 -10.614  -4.377  0.00  0.00     0.275 HD
HETATM   33  H           1     -18.585 -11.936  -4.749  0.00  0.00     0.275 HD
HETATM   34  H           1     -19.859 -12.124  -3.629  0.00  0.00     0.275 HD
ENDBRANCH  22  31
ENDBRANCH   3  22
TORSDOF 14
ENDMDL
MODEL 9
REMARK VINA RESULT:      -6.1      4.051      7.183
REMARK  14 active torsions:
REMARK  status: ('A' for Active; 'I' for Inactive)
REMARK    1  A    between atoms: C_5  and  C_21 
REMARK    2  A    between atoms: C_5  and  C_6 
REMARK    3  A    between atoms: C_5  and  N_32 
REMARK    4  A    between atoms: C_6  and  C_25 
REMARK    5  A    between atoms: O_7  and  C_26 
REMARK    6  A    between atoms: O_7  and  P_15 
REMARK    7  A    between atoms: C_9  and  C_10 
REMARK    8  A    between atoms: C_10  and  C_23 
REMARK    9  A    between atoms: C_11  and  C_23 
REMARK   10  A    between atoms: P_15  and  O_28 
REMARK   11  A    between atoms: N_16  and  C_23 
REMARK       I    between atoms: N_16  and  C_21 
REMARK   12  A    between atoms: C_24  and  C_25 
REMARK   13  A    between atoms: C_24  and  C_34 
REMARK   14  A    between atoms: N_33  and  C_34 
ROOT
HETATM    1  N           1     -21.796  -7.341  -3.717  0.00  0.00    -0.344 N 
HETATM    2  H           1     -22.656  -7.686  -4.124  0.00  0.00     0.163 HD
HETATM    3  C           1     -21.791  -6.854  -2.437  0.00  0.00     0.249 C 
HETATM    4  O           1     -22.001  -5.682  -2.235  0.00  0.00    -0.271 OA
ENDROOT
BRANCH   1   5
HETATM    5  C           1     -20.570  -7.361  -4.489  0.00  0.00     0.189 C 
BRANCH   5   6
HETATM    6  C           1     -20.381  -8.741  -5.105  0.00  0.00     0.074 C 
BRANCH   6   7
HETATM    7  C           1     -18.991  -9.226  -4.830  0.00  0.00    -0.056 A 
HETATM    8  C           1     -18.560  -9.395  -3.514  0.00  0.00     0.010 A 
HETATM    9  C           1     -17.266  -9.847  -3.257  0.00  0.00     0.038 A 
HETATM   10  C           1     -16.404 -10.131  -4.316  0.00  0.00     0.081 A 
HETATM   11  C           1     -16.836  -9.963  -5.632  0.00  0.00     0.038 A 
HETATM   12  C           1     -18.129  -9.511  -5.889  0.00  0.00     0.010 A 
BRANCH  10  13
HETATM   13  O           1     -15.146 -10.571  -4.066  0.00  0.00    -0.247 OA
BRANCH  13  14
HETATM   14  P           1     -14.782 -12.092  -4.463  0.00  0.00     0.411 P 
HETATM   15  O           1     -14.301 -12.136  -5.862  0.00  0.00    -0.624 OA
HETATM   16  O           1     -15.987 -12.940  -4.329  0.00  0.00    -0.624 OA
BRANCH  14  17
HETATM   17  O           1     -13.624 -12.641  -3.481  0.00  0.00    -0.300 OA
HETATM   18  H           1     -13.283 -13.408  -3.909  0.00  0.00     0.223 HD
ENDBRANCH  14  17
ENDBRANCH  13  14
ENDBRANCH  10  13
ENDBRANCH   6   7
ENDBRANCH   5   6
BRANCH   5  19
HETATM   19  C           1     -20.649  -6.327  -5.585  0.00  0.00     0.197 C 
HETATM   20  O           1     -20.833  -6.684  -6.769  0.00  0.00    -0.646 OA
HETATM   21  O           1     -20.530  -5.113  -5.309  0.00  0.00    -0.646 OA
ENDBRANCH   5  19
ENDBRANCH   1   5
BRANCH   3  22
HETATM   22  C           1     -21.522  -7.783  -1.278  0.00  0.00     0.274 C 
BRANCH  22  23
HETATM   23  C           1     -21.965  -9.194  -1.646  0.00  0.00     0.042 C 
BRANCH  23  24
HETATM   24  C           1     -22.373  -9.943  -0.385  0.00  0.00     0.004 C 
BRANCH  24  25
HETATM   25  C           1     -23.602 -10.795  -0.675  0.00  0.00     0.027 C 
BRANCH  25  26
HETATM   26  C           1     -23.568 -12.047   0.189  0.00  0.00     0.229 C 
BRANCH  26  27
HETATM   27  N           1     -22.180 -12.251   0.721  0.00  0.00    -0.079 N 
HETATM   28  H           1     -22.225 -12.804   1.607  0.00  0.00     0.274 HD
HETATM   29  H           1     -21.609 -12.768   0.017  0.00  0.00     0.274 HD
HETATM   30  H           1     -21.740 -11.322   0.912  0.00  0.00     0.274 HD
ENDBRANCH  26  27
ENDBRANCH  25  26
ENDBRANCH  24  25
ENDBRANCH  23  24
ENDBRANCH  22  23
BRANCH  22  31
HETATM   31  N           1     -22.288  -7.317  -0.076  0.00  0.00    -0.067 N 
HETATM   32  H           1     -22.163  -6.286   0.039  0.00  0.00     0.275 HD
HETATM   33  H           1     -23.302  -7.534  -0.203  0.00  0.00     0.275 HD
HETATM   34  H           1     -21.931  -7.807   0.775  0.00  0.00     0.275 HD
ENDBRANCH  22  31
ENDBRANCH   3  22
TORSDOF 14
ENDMDL
