MODEL 1
REMARK VINA RESULT:      -5.4      0.000      0.000
REMARK  13 active torsions:
REMARK  status: ('A' for Active; 'I' for Inactive)
REMARK    1  A    between atoms: C_6  and  C_16 
REMARK    2  A    between atoms: C_6  and  C_25 
REMARK    3  A    between atoms: C_7  and  C_25 
REMARK    4  A    between atoms: C_12  and  C_14 
REMARK    5  A    between atoms: C_12  and  N_15 
REMARK    6  A    between atoms: C_14  and  C_24 
REMARK    7  A    between atoms: C_16  and  C_18 
REMARK    8  A    between atoms: C_18  and  N_19 
REMARK       I    between atoms: C_21  and  N_22 
REMARK    9  A    between atoms: C_21  and  C_26 
REMARK   10  A    between atoms: N_22  and  C_25 
REMARK   11  A    between atoms: N_23  and  C_26 
REMARK   12  A    between atoms: C_24  and  C_27 
REMARK   13  A    between atoms: C_26  and  C_27 
ROOT
HETATM    1  O           1     -19.779  -4.655  -5.413  0.00  0.00    -0.271 OA
HETATM    2  C           1     -20.762  -4.861  -6.085  0.00  0.00     0.249 C 
HETATM    3  N           1     -21.636  -5.854  -5.733  0.00  0.00    -0.345 N 
HETATM    4  H           1     -22.459  -6.026  -6.295  0.00  0.00     0.163 HD
ENDROOT
BRANCH   2   5
HETATM    5  C           1     -21.027  -4.023  -7.312  0.00  0.00     0.274 C 
BRANCH   5   6
HETATM    6  N           1     -19.752  -3.851  -8.084  0.00  0.00    -0.067 N 
HETATM    7  H           1     -19.973  -3.710  -9.094  0.00  0.00     0.275 HD
HETATM    8  H           1     -19.236  -3.018  -7.720  0.00  0.00     0.275 HD
HETATM    9  H           1     -19.160  -4.705  -7.972  0.00  0.00     0.275 HD
ENDBRANCH   5   6
BRANCH   5  10
HETATM   10  C           1     -22.060  -4.719  -8.189  0.00  0.00     0.042 C 
BRANCH  10  11
HETATM   11  C           1     -21.809  -4.365  -9.648  0.00  0.00     0.004 C 
BRANCH  11  12
HETATM   12  C           1     -23.021  -3.634 -10.210  0.00  0.00     0.027 C 
BRANCH  12  13
HETATM   13  C           1     -24.265  -4.492 -10.022  0.00  0.00     0.229 C 
BRANCH  13  14
HETATM   14  N           1     -25.430  -3.613  -9.671  0.00  0.00    -0.079 N 
HETATM   15  H           1     -25.153  -2.611  -9.773  0.00  0.00     0.274 HD
HETATM   16  H           1     -26.229  -3.822 -10.312  0.00  0.00     0.274 HD
HETATM   17  H           1     -25.720  -3.795  -8.684  0.00  0.00     0.274 HD
ENDBRANCH  13  14
ENDBRANCH  12  13
ENDBRANCH  11  12
ENDBRANCH  10  11
ENDBRANCH   5  10
ENDBRANCH   2   5
BRANCH   3  18
HETATM   18  C           1     -21.382  -6.659  -4.554  0.00  0.00     0.185 C 
BRANCH  18  19
HETATM   19  C           1     -22.452  -6.376  -3.507  0.00  0.00     0.038 C 
BRANCH  19  20
HETATM   20  C           1     -21.787  -6.034  -2.180  0.00  0.00     0.030 C 
BRANCH  20  21
HETATM   21  C           1     -22.316  -6.961  -1.093  0.00  0.00     0.230 C 
BRANCH  21  22
HETATM   22  N           1     -21.523  -8.234  -1.090  0.00  0.00    -0.079 N 
HETATM   23  H           1     -20.819  -8.204  -0.318  0.00  0.00     0.274 HD
HETATM   24  H           1     -22.166  -9.044  -0.943  0.00  0.00     0.274 HD
HETATM   25  H           1     -21.031  -8.339  -2.006  0.00  0.00     0.274 HD
ENDBRANCH  21  22
ENDBRANCH  20  21
ENDBRANCH  19  20
ENDBRANCH  18  19
BRANCH  18  26
HETATM   26  C           1     -21.415  -8.120  -4.927  0.00  0.00     0.196 C 
HETATM   27  O           1     -21.192  -8.469  -6.107  0.00  0.00    -0.646 OA
HETATM   28  O           1     -21.665  -8.982  -4.057  0.00  0.00    -0.646 OA
ENDBRANCH  18  26
ENDBRANCH   3  18
TORSDOF 13
ENDMDL
MODEL 2
REMARK VINA RESULT:      -5.3      1.926      2.651
REMARK  13 active torsions:
REMARK  status: ('A' for Active; 'I' for Inactive)
REMARK    1  A    between atoms: C_6  and  C_16 
REMARK    2  A    between atoms: C_6  and  C_25 
REMARK    3  A    between atoms: C_7  and  C_25 
REMARK    4  A    between atoms: C_12  and  C_14 
REMARK    5  A    between atoms: C_12  and  N_15 
REMARK    6  A    between atoms: C_14  and  C_24 
REMARK    7  A    between atoms: C_16  and  C_18 
REMARK    8  A    between atoms: C_18  and  N_19 
REMARK       I    between atoms: C_21  and  N_22 
REMARK    9  A    between atoms: C_21  and  C_26 
REMARK   10  A    between atoms: N_22  and  C_25 
REMARK   11  A    between atoms: N_23  and  C_26 
REMARK   12  A    between atoms: C_24  and  C_27 
REMARK   13  A    between atoms: C_26  and  C_27 
ROOT
HETATM    1  O           1     -22.613  -5.442  -5.877  0.00  0.00    -0.271 OA
HETATM    2  C           1     -21.409  -5.426  -5.774  0.00  0.00     0.249 C 
HETATM    3  N           1     -20.783  -6.308  -4.936  0.00  0.00    -0.345 N 
HETATM    4  H           1     -19.775  -6.295  -4.849  0.00  0.00     0.163 HD
ENDROOT
BRANCH   2   5
HETATM    5  C           1     -20.597  -4.434  -6.569  0.00  0.00     0.274 C 
BRANCH   5   6
HETATM    6  N           1     -19.561  -5.164  -7.372  0.00  0.00    -0.067 N 
HETATM    7  H           1     -18.609  -4.907  -7.030  0.00  0.00     0.275 HD
HETATM    8  H           1     -19.703  -6.195  -7.267  0.00  0.00     0.275 HD
HETATM    9  H           1     -19.653  -4.901  -8.379  0.00  0.00     0.275 HD
ENDBRANCH   5   6
BRANCH   5  10
HETATM   10  C           1     -21.515  -3.662  -7.508  0.00  0.00     0.042 C 
BRANCH  10  11
HETATM   11  C           1     -21.309  -4.151  -8.935  0.00  0.00     0.004 C 
BRANCH  11  12
HETATM   12  C           1     -22.554  -3.854  -9.760  0.00  0.00     0.027 C 
BRANCH  12  13
HETATM   13  C           1     -23.794  -4.058  -8.900  0.00  0.00     0.229 C 
BRANCH  13  14
HETATM   14  N           1     -25.023  -3.850  -9.736  0.00  0.00    -0.079 N 
HETATM   15  H           1     -25.418  -2.903  -9.545  0.00  0.00     0.274 HD
HETATM   16  H           1     -24.772  -3.928 -10.748  0.00  0.00     0.274 HD
HETATM   17  H           1     -25.734  -4.578  -9.498  0.00  0.00     0.274 HD
ENDBRANCH  13  14
ENDBRANCH  12  13
ENDBRANCH  11  12
ENDBRANCH  10  11
ENDBRANCH   5  10
ENDBRANCH   2   5
BRANCH   3  18
HETATM   18  C           1     -21.563  -7.261  -4.172  0.00  0.00     0.185 C 
BRANCH  18  19
HETATM   19  C           1     -20.932  -8.643  -4.289  0.00  0.00     0.038 C 
BRANCH  19  20
HETATM   20  C           1     -19.590  -8.530  -5.000  0.00  0.00     0.030 C 
BRANCH  20  21
HETATM   21  C           1     -18.574  -9.435  -4.315  0.00  0.00     0.230 C 
BRANCH  21  22
HETATM   22  N           1     -18.594  -9.180  -2.837  0.00  0.00    -0.079 N 
HETATM   23  H           1     -19.573  -9.262  -2.482  0.00  0.00     0.274 HD
HETATM   24  H           1     -17.989  -9.883  -2.355  0.00  0.00     0.274 HD
HETATM   25  H           1     -18.232  -8.219  -2.646  0.00  0.00     0.274 HD
ENDBRANCH  21  22
ENDBRANCH  20  21
ENDBRANCH  19  20
ENDBRANCH  18  19
BRANCH  18  26
HETATM   26  C           1     -21.591  -6.841  -2.723  0.00  0.00     0.196 C 
HETATM   27  O           1     -22.377  -5.944  -2.348  0.00  0.00    -0.646 OA
HETATM   28  O           1     -20.830  -7.391  -1.898  0.00  0.00    -0.646 OA
ENDBRANCH  18  26
ENDBRANCH   3  18
TORSDOF 13
ENDMDL
MODEL 3
REMARK VINA RESULT:      -5.2      1.992      3.081
REMARK  13 active torsions:
REMARK  status: ('A' for Active; 'I' for Inactive)
REMARK    1  A    between atoms: C_6  and  C_16 
REMARK    2  A    between atoms: C_6  and  C_25 
REMARK    3  A    between atoms: C_7  and  C_25 
REMARK    4  A    between atoms: C_12  and  C_14 
REMARK    5  A    between atoms: C_12  and  N_15 
REMARK    6  A    between atoms: C_14  and  C_24 
REMARK    7  A    between atoms: C_16  and  C_18 
REMARK    8  A    between atoms: C_18  and  N_19 
REMARK       I    between atoms: C_21  and  N_22 
REMARK    9  A    between atoms: C_21  and  C_26 
REMARK   10  A    between atoms: N_22  and  C_25 
REMARK   11  A    between atoms: N_23  and  C_26 
REMARK   12  A    between atoms: C_24  and  C_27 
REMARK   13  A    between atoms: C_26  and  C_27 
ROOT
HETATM    1  O           1     -19.719  -7.884  -5.010  0.00  0.00    -0.271 OA
HETATM    2  C           1     -20.793  -7.417  -4.713  0.00  0.00     0.249 C 
HETATM    3  N           1     -21.438  -7.847  -3.586  0.00  0.00    -0.345 N 
HETATM    4  H           1     -22.338  -7.457  -3.338  0.00  0.00     0.163 HD
ENDROOT
BRANCH   2   5
HETATM    5  C           1     -21.424  -6.361  -5.587  0.00  0.00     0.274 C 
BRANCH   5   6
HETATM    6  N           1     -22.820  -6.087  -5.111  0.00  0.00    -0.067 N 
HETATM    7  H           1     -23.142  -6.873  -4.504  0.00  0.00     0.275 HD
HETATM    8  H           1     -22.833  -5.196  -4.565  0.00  0.00     0.275 HD
HETATM    9  H           1     -23.458  -6.000  -5.935  0.00  0.00     0.275 HD
ENDBRANCH   5   6
BRANCH   5  10
HETATM   10  C           1     -20.602  -5.081  -5.511  0.00  0.00     0.042 C 
BRANCH  10  11
HETATM   11  C           1     -20.340  -4.561  -6.918  0.00  0.00     0.004 C 
BRANCH  11  12
HETATM   12  C           1     -21.381  -3.508  -7.274  0.00  0.00     0.027 C 
BRANCH  12  13
HETATM   13  C           1     -22.284  -4.039  -8.380  0.00  0.00     0.229 C 
BRANCH  13  14
HETATM   14  N           1     -23.698  -4.103  -7.884  0.00  0.00    -0.079 N 
HETATM   15  H           1     -24.107  -3.142  -7.871  0.00  0.00     0.274 HD
HETATM   16  H           1     -24.262  -4.715  -8.517  0.00  0.00     0.274 HD
HETATM   17  H           1     -23.711  -4.499  -6.917  0.00  0.00     0.274 HD
ENDBRANCH  13  14
ENDBRANCH  12  13
ENDBRANCH  11  12
ENDBRANCH  10  11
ENDBRANCH   5  10
ENDBRANCH   2   5
BRANCH   3  18
HETATM   18  C           1     -20.832  -8.862  -2.746  0.00  0.00     0.185 C 
BRANCH  18  19
HETATM   19  C           1     -20.726  -8.341  -1.318  0.00  0.00     0.038 C 
BRANCH  19  20
HETATM   20  C           1     -21.908  -7.428  -1.021  0.00  0.00     0.030 C 
BRANCH  20  21
HETATM   21  C           1     -22.515  -7.805   0.324  0.00  0.00     0.230 C 
BRANCH  21  22
HETATM   22  N           1     -23.353  -9.039   0.167  0.00  0.00    -0.079 N 
HETATM   23  H           1     -24.040  -9.098   0.952  0.00  0.00     0.274 HD
HETATM   24  H           1     -23.867  -8.997  -0.742  0.00  0.00     0.274 HD
HETATM   25  H           1     -22.736  -9.883   0.180  0.00  0.00     0.274 HD
ENDBRANCH  21  22
ENDBRANCH  20  21
ENDBRANCH  19  20
ENDBRANCH  18  19
BRANCH  18  26
HETATM   26  C           1     -21.686 -10.106  -2.767  0.00  0.00     0.196 C 
HETATM   27  O           1     -21.725 -10.853  -1.765  0.00  0.00    -0.646 OA
HETATM   28  O           1     -22.354 -10.389  -3.784  0.00  0.00    -0.646 OA
ENDBRANCH  18  26
ENDBRANCH   3  18
TORSDOF 13
ENDMDL
MODEL 4
REMARK VINA RESULT:      -5.1      1.497      6.989
REMARK  13 active torsions:
REMARK  status: ('A' for Active; 'I' for Inactive)
REMARK    1  A    between atoms: C_6  and  C_16 
REMARK    2  A    between atoms: C_6  and  C_25 
REMARK    3  A    between atoms: C_7  and  C_25 
REMARK    4  A    between atoms: C_12  and  C_14 
REMARK    5  A    between atoms: C_12  and  N_15 
REMARK    6  A    between atoms: C_14  and  C_24 
REMARK    7  A    between atoms: C_16  and  C_18 
REMARK    8  A    between atoms: C_18  and  N_19 
REMARK       I    between atoms: C_21  and  N_22 
REMARK    9  A    between atoms: C_21  and  C_26 
REMARK   10  A    between atoms: N_22  and  C_25 
REMARK   11  A    between atoms: N_23  and  C_26 
REMARK   12  A    between atoms: C_24  and  C_27 
REMARK   13  A    between atoms: C_26  and  C_27 
ROOT
HETATM    1  O           1     -20.910  -7.510  -6.396  0.00  0.00    -0.271 OA
HETATM    2  C           1     -21.597  -6.753  -5.751  0.00  0.00     0.249 C 
HETATM    3  N           1     -21.875  -5.503  -6.231  0.00  0.00    -0.345 N 
HETATM    4  H           1     -22.450  -4.869  -5.690  0.00  0.00     0.163 HD
ENDROOT
BRANCH   2   5
HETATM    5  C           1     -22.147  -7.188  -4.414  0.00  0.00     0.274 C 
BRANCH   5   6
HETATM    6  N           1     -21.750  -8.610  -4.148  0.00  0.00    -0.067 N 
HETATM    7  H           1     -22.043  -8.879  -3.183  0.00  0.00     0.275 HD
HETATM    8  H           1     -22.217  -9.236  -4.842  0.00  0.00     0.275 HD
HETATM    9  H           1     -20.713  -8.704  -4.237  0.00  0.00     0.275 HD
ENDBRANCH   5   6
BRANCH   5  10
HETATM   10  C           1     -21.585  -6.291  -3.318  0.00  0.00     0.042 C 
BRANCH  10  11
HETATM   11  C           1     -21.290  -7.127  -2.080  0.00  0.00     0.004 C 
BRANCH  11  12
HETATM   12  C           1     -22.324  -6.826  -1.004  0.00  0.00     0.027 C 
BRANCH  12  13
HETATM   13  C           1     -22.403  -7.996  -0.033  0.00  0.00     0.229 C 
BRANCH  13  14
HETATM   14  N           1     -23.824  -8.182   0.412  0.00  0.00    -0.079 N 
HETATM   15  H           1     -24.379  -8.608  -0.364  0.00  0.00     0.274 HD
HETATM   16  H           1     -23.848  -8.812   1.246  0.00  0.00     0.274 HD
HETATM   17  H           1     -24.234  -7.255   0.665  0.00  0.00     0.274 HD
ENDBRANCH  13  14
ENDBRANCH  12  13
ENDBRANCH  11  12
ENDBRANCH  10  11
ENDBRANCH   5  10
ENDBRANCH   2   5
BRANCH   3  18
HETATM   18  C           1     -21.346  -5.085  -7.515  0.00  0.00     0.185 C 
BRANCH  18  19
HETATM   19  C           1     -22.312  -4.102  -8.165  0.00  0.00     0.038 C 
BRANCH  19  20
HETATM   20  C           1     -22.472  -4.447  -9.640  0.00  0.00     0.030 C 
BRANCH  20  21
HETATM   21  C           1     -23.889  -4.115 -10.089  0.00  0.00     0.230 C 
BRANCH  21  22
HETATM   22  N           1     -24.574  -3.308  -9.026  0.00  0.00    -0.079 N 
HETATM   23  H           1     -25.610  -3.396  -9.133  0.00  0.00     0.274 HD
HETATM   24  H           1     -24.291  -3.662  -8.084  0.00  0.00     0.274 HD
HETATM   25  H           1     -24.298  -2.304  -9.119  0.00  0.00     0.274 HD
ENDBRANCH  21  22
ENDBRANCH  20  21
ENDBRANCH  19  20
ENDBRANCH  18  19
BRANCH  18  26
HETATM   26  C           1     -20.008  -4.419  -7.314  0.00  0.00     0.196 C 
HETATM   27  O           1     -19.466  -4.433  -6.188  0.00  0.00    -0.646 OA
HETATM   28  O           1     -19.440  -3.854  -8.274  0.00  0.00    -0.646 OA
ENDBRANCH  18  26
ENDBRANCH   3  18
TORSDOF 13
ENDMDL
MODEL 5
REMARK VINA RESULT:      -5.1      1.586      1.776
REMARK  13 active torsions:
REMARK  status: ('A' for Active; 'I' for Inactive)
REMARK    1  A    between atoms: C_6  and  C_16 
REMARK    2  A    between atoms: C_6  and  C_25 
REMARK    3  A    between atoms: C_7  and  C_25 
REMARK    4  A    between atoms: C_12  and  C_14 
REMARK    5  A    between atoms: C_12  and  N_15 
REMARK    6  A    between atoms: C_14  and  C_24 
REMARK    7  A    between atoms: C_16  and  C_18 
REMARK    8  A    between atoms: C_18  and  N_19 
REMARK       I    between atoms: C_21  and  N_22 
REMARK    9  A    between atoms: C_21  and  C_26 
REMARK   10  A    between atoms: N_22  and  C_25 
REMARK   11  A    between atoms: N_23  and  C_26 
REMARK   12  A    between atoms: C_24  and  C_27 
REMARK   13  A    between atoms: C_26  and  C_27 
ROOT
HETATM    1  O           1     -20.362  -4.913  -4.915  0.00  0.00    -0.271 OA
HETATM    2  C           1     -20.236  -5.483  -5.973  0.00  0.00     0.249 C 
HETATM    3  N           1     -20.132  -6.847  -6.008  0.00  0.00    -0.345 N 
HETATM    4  H           1     -20.027  -7.324  -6.894  0.00  0.00     0.163 HD
ENDROOT
BRANCH   2   5
HETATM    5  C           1     -20.193  -4.690  -7.257  0.00  0.00     0.274 C 
BRANCH   5   6
HETATM    6  N           1     -20.127  -5.631  -8.424  0.00  0.00    -0.067 N 
HETATM    7  H           1     -19.933  -6.598  -8.081  0.00  0.00     0.275 HD
HETATM    8  H           1     -21.039  -5.618  -8.934  0.00  0.00     0.275 HD
HETATM    9  H           1     -19.361  -5.331  -9.069  0.00  0.00     0.275 HD
ENDBRANCH   5   6
BRANCH   5  10
HETATM   10  C           1     -21.448  -3.834  -7.368  0.00  0.00     0.042 C 
BRANCH  10  11
HETATM   11  C           1     -22.506  -4.583  -8.166  0.00  0.00     0.004 C 
BRANCH  11  12
HETATM   12  C           1     -23.058  -3.675  -9.257  0.00  0.00     0.027 C 
BRANCH  12  13
HETATM   13  C           1     -24.257  -4.343  -9.916  0.00  0.00     0.229 C 
BRANCH  13  14
HETATM   14  N           1     -25.490  -3.530  -9.653  0.00  0.00    -0.079 N 
HETATM   15  H           1     -26.206  -3.736 -10.385  0.00  0.00     0.274 HD
HETATM   16  H           1     -25.872  -3.772  -8.711  0.00  0.00     0.274 HD
HETATM   17  H           1     -25.249  -2.513  -9.680  0.00  0.00     0.274 HD
ENDBRANCH  13  14
ENDBRANCH  12  13
ENDBRANCH  11  12
ENDBRANCH  10  11
ENDBRANCH   5  10
ENDBRANCH   2   5
BRANCH   3  18
HETATM   18  C           1     -20.174  -7.609  -4.775  0.00  0.00     0.185 C 
BRANCH  18  19
HETATM   19  C           1     -21.612  -8.014  -4.477  0.00  0.00     0.038 C 
BRANCH  19  20
HETATM   20  C           1     -21.771  -8.262  -2.983  0.00  0.00     0.030 C 
BRANCH  20  21
HETATM   21  C           1     -21.362  -7.013  -2.214  0.00  0.00     0.230 C 
BRANCH  21  22
HETATM   22  N           1     -22.358  -5.920  -2.469  0.00  0.00    -0.079 N 
HETATM   23  H           1     -22.418  -5.736  -3.496  0.00  0.00     0.274 HD
HETATM   24  H           1     -23.295  -6.214  -2.112  0.00  0.00     0.274 HD
HETATM   25  H           1     -22.053  -5.050  -1.976  0.00  0.00     0.274 HD
ENDBRANCH  21  22
ENDBRANCH  20  21
ENDBRANCH  19  20
ENDBRANCH  18  19
BRANCH  18  26
HETATM   26  C           1     -19.322  -8.846  -4.920  0.00  0.00     0.196 C 
HETATM   27  O           1     -19.498  -9.615  -5.890  0.00  0.00    -0.646 OA
HETATM   28  O           1     -18.439  -9.100  -4.072  0.00  0.00    -0.646 OA
ENDBRANCH  18  26
ENDBRANCH   3  18
TORSDOF 13
ENDMDL
MODEL 6
REMARK VINA RESULT:      -5.1      1.702      2.183
REMARK  13 active torsions:
REMARK  status: ('A' for Active; 'I' for Inactive)
REMARK    1  A    between atoms: C_6  and  C_16 
REMARK    2  A    between atoms: C_6  and  C_25 
REMARK    3  A    between atoms: C_7  and  C_25 
REMARK    4  A    between atoms: C_12  and  C_14 
REMARK    5  A    between atoms: C_12  and  N_15 
REMARK    6  A    between atoms: C_14  and  C_24 
REMARK    7  A    between atoms: C_16  and  C_18 
REMARK    8  A    between atoms: C_18  and  N_19 
REMARK       I    between atoms: C_21  and  N_22 
REMARK    9  A    between atoms: C_21  and  C_26 
REMARK   10  A    between atoms: N_22  and  C_25 
REMARK   11  A    between atoms: N_23  and  C_26 
REMARK   12  A    between atoms: C_24  and  C_27 
REMARK   13  A    between atoms: C_26  and  C_27 
ROOT
HETATM    1  O           1     -20.657  -4.836  -5.400  0.00  0.00    -0.271 OA
HETATM    2  C           1     -21.328  -5.550  -6.107  0.00  0.00     0.249 C 
HETATM    3  N           1     -21.386  -6.895  -5.864  0.00  0.00    -0.345 N 
HETATM    4  H           1     -21.948  -7.493  -6.455  0.00  0.00     0.163 HD
ENDROOT
BRANCH   2   5
HETATM    5  C           1     -22.104  -4.958  -7.259  0.00  0.00     0.274 C 
BRANCH   5   6
HETATM    6  N           1     -23.447  -4.499  -6.773  0.00  0.00    -0.067 N 
HETATM    7  H           1     -23.561  -4.755  -5.768  0.00  0.00     0.275 HD
HETATM    8  H           1     -23.518  -3.461  -6.879  0.00  0.00     0.275 HD
HETATM    9  H           1     -24.197  -4.959  -7.338  0.00  0.00     0.275 HD
ENDBRANCH   5   6
BRANCH   5  10
HETATM   10  C           1     -21.338  -3.772  -7.830  0.00  0.00     0.042 C 
BRANCH  10  11
HETATM   11  C           1     -20.834  -4.116  -9.225  0.00  0.00     0.004 C 
BRANCH  11  12
HETATM   12  C           1     -22.008  -4.532 -10.102  0.00  0.00     0.027 C 
BRANCH  12  13
HETATM   13  C           1     -21.727  -4.141 -11.547  0.00  0.00     0.229 C 
BRANCH  13  14
HETATM   14  N           1     -20.364  -3.519 -11.641  0.00  0.00    -0.079 N 
HETATM   15  H           1     -19.971  -3.686 -12.594  0.00  0.00     0.274 HD
HETATM   16  H           1     -20.439  -2.491 -11.468  0.00  0.00     0.274 HD
HETATM   17  H           1     -19.736  -3.947 -10.924  0.00  0.00     0.274 HD
ENDBRANCH  13  14
ENDBRANCH  12  13
ENDBRANCH  11  12
ENDBRANCH  10  11
ENDBRANCH   5  10
ENDBRANCH   2   5
BRANCH   3  18
HETATM   18  C           1     -20.641  -7.464  -4.757  0.00  0.00     0.185 C 
BRANCH  18  19
HETATM   19  C           1     -21.584  -7.722  -3.590  0.00  0.00     0.038 C 
BRANCH  19  20
HETATM   20  C           1     -21.115  -6.935  -2.373  0.00  0.00     0.030 C 
BRANCH  20  21
HETATM   21  C           1     -22.324  -6.472  -1.570  0.00  0.00     0.230 C 
BRANCH  21  22
HETATM   22  N           1     -22.470  -7.330  -0.348  0.00  0.00    -0.079 N 
HETATM   23  H           1     -21.904  -6.926   0.432  0.00  0.00     0.274 HD
HETATM   24  H           1     -23.476  -7.364  -0.066  0.00  0.00     0.274 HD
HETATM   25  H           1     -22.134  -8.297  -0.559  0.00  0.00     0.274 HD
ENDBRANCH  21  22
ENDBRANCH  20  21
ENDBRANCH  19  20
ENDBRANCH  18  19
BRANCH  18  26
HETATM   26  C           1     -20.011  -8.765  -5.192  0.00  0.00     0.196 C 
HETATM   27  O           1     -18.814  -9.002  -4.917  0.00  0.00    -0.646 OA
HETATM   28  O           1     -20.685  -9.605  -5.827  0.00  0.00    -0.646 OA
ENDBRANCH  18  26
ENDBRANCH   3  18
TORSDOF 13
ENDMDL
MODEL 7
REMARK VINA RESULT:      -4.7      2.305      6.666
REMARK  13 active torsions:
REMARK  status: ('A' for Active; 'I' for Inactive)
REMARK    1  A    between atoms: C_6  and  C_16 
REMARK    2  A    between atoms: C_6  and  C_25 
REMARK    3  A    between atoms: C_7  and  C_25 
REMARK    4  A    between atoms: C_12  and  C_14 
REMARK    5  A    between atoms: C_12  and  N_15 
REMARK    6  A    between atoms: C_14  and  C_24 
REMARK    7  A    between atoms: C_16  and  C_18 
REMARK    8  A    between atoms: C_18  and  N_19 
REMARK       I    between atoms: C_21  and  N_22 
REMARK    9  A    between atoms: C_21  and  C_26 
REMARK   10  A    between atoms: N_22  and  C_25 
REMARK   11  A    between atoms: N_23  and  C_26 
REMARK   12  A    between atoms: C_24  and  C_27 
REMARK   13  A    between atoms: C_26  and  C_27 
ROOT
HETATM    1  O           1     -21.306  -7.526  -6.208  0.00  0.00    -0.271 OA
HETATM    2  C           1     -21.250  -6.568  -5.474  0.00  0.00     0.249 C 
HETATM    3  N           1     -21.253  -5.304  -5.997  0.00  0.00    -0.345 N 
HETATM    4  H           1     -21.206  -4.501  -5.383  0.00  0.00     0.163 HD
ENDROOT
BRANCH   2   5
HETATM    5  C           1     -21.176  -6.765  -3.979  0.00  0.00     0.274 C 
BRANCH   5   6
HETATM    6  N           1     -22.343  -6.085  -3.327  0.00  0.00    -0.067 N 
HETATM    7  H           1     -23.222  -6.346  -3.825  0.00  0.00     0.275 HD
HETATM    8  H           1     -22.406  -6.384  -2.328  0.00  0.00     0.275 HD
HETATM    9  H           1     -22.211  -5.049  -3.373  0.00  0.00     0.275 HD
ENDBRANCH   5   6
BRANCH   5  10
HETATM   10  C           1     -21.215  -8.254  -3.661  0.00  0.00     0.042 C 
BRANCH  10  11
HETATM   11  C           1     -19.981  -8.634  -2.853  0.00  0.00     0.004 C 
BRANCH  11  12
HETATM   12  C           1     -19.274  -9.804  -3.523  0.00  0.00     0.027 C 
BRANCH  12  13
HETATM   13  C           1     -18.509  -9.306  -4.742  0.00  0.00     0.229 C 
BRANCH  13  14
HETATM   14  N           1     -19.127  -9.874  -5.986  0.00  0.00    -0.079 N 
HETATM   15  H           1     -20.004 -10.383  -5.738  0.00  0.00     0.274 HD
HETATM   16  H           1     -19.348  -9.098  -6.650  0.00  0.00     0.274 HD
HETATM   17  H           1     -18.456 -10.537  -6.437  0.00  0.00     0.274 HD
ENDBRANCH  13  14
ENDBRANCH  12  13
ENDBRANCH  11  12
ENDBRANCH  10  11
ENDBRANCH   5  10
ENDBRANCH   2   5
BRANCH   3  18
HETATM   18  C           1     -21.323  -5.114  -7.433  0.00  0.00     0.185 C 
BRANCH  18  19
HETATM   19  C           1     -22.171  -3.887  -7.741  0.00  0.00     0.038 C 
BRANCH  19  20
HETATM   20  C           1     -23.455  -4.318  -8.439  0.00  0.00     0.030 C 
BRANCH  20  21
HETATM   21  C           1     -23.173  -4.562  -9.916  0.00  0.00     0.230 C 
BRANCH  21  22
HETATM   22  N           1     -22.316  -3.453 -10.451  0.00  0.00    -0.079 N 
HETATM   23  H           1     -22.843  -2.552 -10.406  0.00  0.00     0.274 HD
HETATM   24  H           1     -21.447  -3.377  -9.876  0.00  0.00     0.274 HD
HETATM   25  H           1     -22.062  -3.659 -11.444  0.00  0.00     0.274 HD
ENDBRANCH  21  22
ENDBRANCH  20  21
ENDBRANCH  19  20
ENDBRANCH  18  19
BRANCH  18  26
HETATM   26  C           1     -19.932  -4.916  -7.982  0.00  0.00     0.196 C 
HETATM   27  O           1     -19.737  -4.947  -9.217  0.00  0.00    -0.646 OA
HETATM   28  O           1     -18.974  -4.720  -7.203  0.00  0.00    -0.646 OA
ENDBRANCH  18  26
ENDBRANCH   3  18
TORSDOF 13
ENDMDL
MODEL 8
REMARK VINA RESULT:      -4.7      3.916      5.836
REMARK  13 active torsions:
REMARK  status: ('A' for Active; 'I' for Inactive)
REMARK    1  A    between atoms: C_6  and  C_16 
REMARK    2  A    between atoms: C_6  and  C_25 
REMARK    3  A    between atoms: C_7  and  C_25 
REMARK    4  A    between atoms: C_12  and  C_14 
REMARK    5  A    between atoms: C_12  and  N_15 
REMARK    6  A    between atoms: C_14  and  C_24 
REMARK    7  A    between atoms: C_16  and  C_18 
REMARK    8  A    between atoms: C_18  and  N_19 
REMARK       I    between atoms: C_21  and  N_22 
REMARK    9  A    between atoms: C_21  and  C_26 
REMARK   10  A    between atoms: N_22  and  C_25 
REMARK   11  A    between atoms: N_23  and  C_26 
REMARK   12  A    between atoms: C_24  and  C_27 
REMARK   13  A    between atoms: C_26  and  C_27 
ROOT
HETATM    1  O           1     -21.154 -10.255  -2.677  0.00  0.00    -0.271 OA
HETATM    2  C           1     -20.515  -9.244  -2.501  0.00  0.00     0.249 C 
HETATM    3  N           1     -20.718  -8.494  -1.375  0.00  0.00    -0.345 N 
HETATM    4  H           1     -20.183  -7.647  -1.227  0.00  0.00     0.163 HD
ENDROOT
BRANCH   2   5
HETATM    5  C           1     -19.494  -8.809  -3.523  0.00  0.00     0.274 C 
BRANCH   5   6
HETATM    6  N           1     -18.216  -9.565  -3.307  0.00  0.00    -0.067 N 
HETATM    7  H           1     -18.071  -9.718  -2.284  0.00  0.00     0.275 HD
HETATM    8  H           1     -18.271 -10.487  -3.794  0.00  0.00     0.275 HD
HETATM    9  H           1     -17.417  -9.013  -3.693  0.00  0.00     0.275 HD
ENDBRANCH   5   6
BRANCH   5  10
HETATM   10  C           1     -20.022  -9.097  -4.923  0.00  0.00     0.042 C 
BRANCH  10  11
HETATM   11  C           1     -21.111  -8.092  -5.272  0.00  0.00     0.004 C 
BRANCH  11  12
HETATM   12  C           1     -20.474  -6.758  -5.638  0.00  0.00     0.027 C 
BRANCH  12  13
HETATM   13  C           1     -21.045  -5.660  -4.749  0.00  0.00     0.229 C 
BRANCH  13  14
HETATM   14  N           1     -22.113  -6.237  -3.866  0.00  0.00    -0.079 N 
HETATM   15  H           1     -21.913  -5.990  -2.871  0.00  0.00     0.274 HD
HETATM   16  H           1     -23.042  -5.846  -4.143  0.00  0.00     0.274 HD
HETATM   17  H           1     -22.128  -7.276  -3.971  0.00  0.00     0.274 HD
ENDBRANCH  13  14
ENDBRANCH  12  13
ENDBRANCH  11  12
ENDBRANCH  10  11
ENDBRANCH   5  10
ENDBRANCH   2   5
BRANCH   3  18
HETATM   18  C           1     -21.699  -8.912  -0.392  0.00  0.00     0.185 C 
BRANCH  18  19
HETATM   19  C           1     -20.997  -9.229   0.922  0.00  0.00     0.038 C 
BRANCH  19  20
HETATM   20  C           1     -20.608 -10.702   0.948  0.00  0.00     0.030 C 
BRANCH  20  21
HETATM   21  C           1     -21.785 -11.546   0.476  0.00  0.00     0.230 C 
BRANCH  21  22
HETATM   22  N           1     -21.329 -12.482  -0.603  0.00  0.00    -0.079 N 
HETATM   23  H           1     -20.903 -13.333  -0.171  0.00  0.00     0.274 HD
HETATM   24  H           1     -22.147 -12.762  -1.190  0.00  0.00     0.274 HD
HETATM   25  H           1     -20.618 -12.003  -1.201  0.00  0.00     0.274 HD
ENDBRANCH  21  22
ENDBRANCH  20  21
ENDBRANCH  19  20
ENDBRANCH  18  19
BRANCH  18  26
HETATM   26  C           1     -22.697  -7.801  -0.175  0.00  0.00     0.196 C 
HETATM   27  O           1     -23.545  -7.893   0.739  0.00  0.00    -0.646 OA
HETATM   28  O           1     -22.673  -6.788  -0.907  0.00  0.00    -0.646 OA
ENDBRANCH  18  26
ENDBRANCH   3  18
TORSDOF 13
ENDMDL
MODEL 9
REMARK VINA RESULT:      -4.7      3.255      5.287
REMARK  13 active torsions:
REMARK  status: ('A' for Active; 'I' for Inactive)
REMARK    1  A    between atoms: C_6  and  C_16 
REMARK    2  A    between atoms: C_6  and  C_25 
REMARK    3  A    between atoms: C_7  and  C_25 
REMARK    4  A    between atoms: C_12  and  C_14 
REMARK    5  A    between atoms: C_12  and  N_15 
REMARK    6  A    between atoms: C_14  and  C_24 
REMARK    7  A    between atoms: C_16  and  C_18 
REMARK    8  A    between atoms: C_18  and  N_19 
REMARK       I    between atoms: C_21  and  N_22 
REMARK    9  A    between atoms: C_21  and  C_26 
REMARK   10  A    between atoms: N_22  and  C_25 
REMARK   11  A    between atoms: N_23  and  C_26 
REMARK   12  A    between atoms: C_24  and  C_27 
REMARK   13  A    between atoms: C_26  and  C_27 
ROOT
HETATM    1  O           1     -21.994  -6.751  -1.489  0.00  0.00    -0.271 OA
HETATM    2  C           1     -21.688  -7.731  -2.126  0.00  0.00     0.249 C 
HETATM    3  N           1     -21.888  -8.979  -1.602  0.00  0.00    -0.345 N 
HETATM    4  H           1     -21.632  -9.800  -2.136  0.00  0.00     0.163 HD
ENDROOT
BRANCH   2   5
HETATM    5  C           1     -21.084  -7.578  -3.501  0.00  0.00     0.274 C 
BRANCH   5   6
HETATM    6  N           1     -21.650  -8.625  -4.415  0.00  0.00    -0.067 N 
HETATM    7  H           1     -22.039  -9.410  -3.848  0.00  0.00     0.275 HD
HETATM    8  H           1     -22.410  -8.204  -4.996  0.00  0.00     0.275 HD
HETATM    9  H           1     -20.894  -8.987  -5.039  0.00  0.00     0.275 HD
ENDBRANCH   5   6
BRANCH   5  10
HETATM   10  C           1     -21.412  -6.195  -4.049  0.00  0.00     0.042 C 
BRANCH  10  11
HETATM   11  C           1     -20.861  -6.066  -5.463  0.00  0.00     0.004 C 
BRANCH  11  12
HETATM   12  C           1     -20.279  -4.672  -5.656  0.00  0.00     0.027 C 
BRANCH  12  13
HETATM   13  C           1     -20.595  -4.179  -7.062  0.00  0.00     0.229 C 
BRANCH  13  14
HETATM   14  N           1     -22.068  -3.913  -7.180  0.00  0.00    -0.079 N 
HETATM   15  H           1     -22.267  -2.929  -6.894  0.00  0.00     0.274 HD
HETATM   16  H           1     -22.369  -4.058  -8.170  0.00  0.00     0.274 HD
HETATM   17  H           1     -22.591  -4.570  -6.557  0.00  0.00     0.274 HD
ENDBRANCH  13  14
ENDBRANCH  12  13
ENDBRANCH  11  12
ENDBRANCH  10  11
ENDBRANCH   5  10
ENDBRANCH   2   5
BRANCH   3  18
HETATM   18  C           1     -22.468  -9.126  -0.281  0.00  0.00     0.185 C 
BRANCH  18  19
HETATM   19  C           1     -23.440 -10.299  -0.282  0.00  0.00     0.038 C 
BRANCH  19  20
HETATM   20  C           1     -23.351 -11.032  -1.614  0.00  0.00     0.030 C 
BRANCH  20  21
HETATM   21  C           1     -23.084 -12.511  -1.363  0.00  0.00     0.230 C 
BRANCH  21  22
HETATM   22  N           1     -21.644 -12.703  -0.990  0.00  0.00    -0.079 N 
HETATM   23  H           1     -21.520 -12.518   0.031  0.00  0.00     0.274 HD
HETATM   24  H           1     -21.357 -13.685  -1.202  0.00  0.00     0.274 HD
HETATM   25  H           1     -21.051 -12.040  -1.538  0.00  0.00     0.274 HD
ENDBRANCH  21  22
ENDBRANCH  20  21
ENDBRANCH  19  20
ENDBRANCH  18  19
BRANCH  18  26
HETATM   26  C           1     -21.371  -9.381   0.723  0.00  0.00     0.196 C 
HETATM   27  O           1     -21.049  -8.488   1.536  0.00  0.00    -0.646 OA
HETATM   28  O           1     -20.786 -10.485   0.743  0.00  0.00    -0.646 OA
ENDBRANCH  18  26
ENDBRANCH   3  18
TORSDOF 13
ENDMDL
