MODEL 1
REMARK VINA RESULT:      -6.0      0.000      0.000
REMARK  11 active torsions:
REMARK  status: ('A' for Active; 'I' for Inactive)
REMARK    1  A    between atoms: S_2  and  C_3 
REMARK    2  A    between atoms: C_3  and  C_4 
REMARK    3  A    between atoms: C_4  and  C_5 
REMARK    4  A    between atoms: C_5  and  C_6 
REMARK    5  A    between atoms: C_5  and  N_9 
REMARK       I    between atoms: N_9  and  C_10 
REMARK    6  A    between atoms: C_10  and  C_11 
REMARK    7  A    between atoms: C_11  and  C_12 
REMARK    8  A    between atoms: C_11  and  N_18 
REMARK    9  A    between atoms: C_12  and  O_13 
REMARK   10  A    between atoms: O_13  and  P_14 
REMARK   11  A    between atoms: P_14  and  O_15 
ROOT
HETATM    1  N           1     -35.405  -2.803 -11.690  0.00  0.00    -0.345 N 
HETATM    2  C           1     -35.403  -1.614 -11.013  0.00  0.00     0.251 C 
HETATM    3  O           1     -34.586  -1.414 -10.147  0.00  0.00    -0.271 OA
HETATM    4  H           1     -36.090  -2.972 -12.416  0.00  0.00     0.163 HD
ENDROOT
BRANCH   2   5
HETATM    5  C           1     -36.422  -0.553 -11.351  0.00  0.00     0.298 C 
BRANCH   5   6
HETATM    6  C           1     -36.067   0.085 -12.688  0.00  0.00     0.224 C 
BRANCH   6   7
HETATM    7  O           1     -36.356  -0.812 -13.726  0.00  0.00    -0.287 OA
BRANCH   7   8
HETATM    8  P           1     -35.617  -0.529 -15.134  0.00  0.00     0.406 P 
HETATM    9  O           1     -34.464   0.373 -14.911  0.00  0.00    -0.624 OA
HETATM   10  O           1     -36.568   0.107 -16.071  0.00  0.00    -0.624 OA
BRANCH   8  11
HETATM   11  O           1     -35.095  -1.924 -15.759  0.00  0.00    -0.300 OA
HETATM   12  H           1     -35.871  -2.448 -15.866  0.00  0.00     0.223 HD
ENDBRANCH   8  11
ENDBRANCH   7   8
ENDBRANCH   6   7
ENDBRANCH   5   6
BRANCH   5  13
HETATM   13  N           1     -36.421   0.499 -10.281  0.00  0.00    -0.064 N 
HETATM   14  H           1     -36.655   0.061  -9.361  0.00  0.00     0.275 HD
HETATM   15  H           1     -35.474   0.938 -10.227  0.00  0.00     0.275 HD
HETATM   16  H           1     -37.131   1.229 -10.510  0.00  0.00     0.275 HD
ENDBRANCH   5  13
ENDBRANCH   2   5
BRANCH   1  17
HETATM   17  C           1     -34.427  -3.824 -11.367  0.00  0.00     0.186 C 
BRANCH  17  18
HETATM   18  C           1     -35.130  -5.163 -11.187  0.00  0.00     0.046 C 
BRANCH  18  19
HETATM   19  C           1     -34.126  -6.205 -10.715  0.00  0.00     0.076 C 
BRANCH  19  20
HETATM   20  S           1     -34.972  -7.440  -9.688  0.00  0.00    -0.173 SA
HETATM   21  C           1     -33.785  -8.783  -9.975  0.00  0.00     0.089 C 
ENDBRANCH  19  20
ENDBRANCH  18  19
ENDBRANCH  17  18
BRANCH  17  22
HETATM   22  C           1     -33.423  -3.929 -12.489  0.00  0.00     0.196 C 
HETATM   23  O           1     -32.225  -4.180 -12.233  0.00  0.00    -0.646 OA
HETATM   24  O           1     -33.789  -3.766 -13.672  0.00  0.00    -0.646 OA
ENDBRANCH  17  22
ENDBRANCH   1  17
TORSDOF 11
ENDMDL
MODEL 2
REMARK VINA RESULT:      -5.9      5.494      6.638
REMARK  11 active torsions:
REMARK  status: ('A' for Active; 'I' for Inactive)
REMARK    1  A    between atoms: S_2  and  C_3 
REMARK    2  A    between atoms: C_3  and  C_4 
REMARK    3  A    between atoms: C_4  and  C_5 
REMARK    4  A    between atoms: C_5  and  C_6 
REMARK    5  A    between atoms: C_5  and  N_9 
REMARK       I    between atoms: N_9  and  C_10 
REMARK    6  A    between atoms: C_10  and  C_11 
REMARK    7  A    between atoms: C_11  and  C_12 
REMARK    8  A    between atoms: C_11  and  N_18 
REMARK    9  A    between atoms: C_12  and  O_13 
REMARK   10  A    between atoms: O_13  and  P_14 
REMARK   11  A    between atoms: P_14  and  O_15 
ROOT
HETATM    1  N           1     -31.925  -5.647 -16.744  0.00  0.00    -0.345 N 
HETATM    2  C           1     -32.494  -4.404 -16.789  0.00  0.00     0.251 C 
HETATM    3  O           1     -31.907  -3.489 -17.315  0.00  0.00    -0.271 OA
HETATM    4  H           1     -32.417  -6.414 -16.303  0.00  0.00     0.163 HD
ENDROOT
BRANCH   2   5
HETATM    5  C           1     -33.856  -4.176 -16.180  0.00  0.00     0.298 C 
BRANCH   5   6
HETATM    6  C           1     -34.377  -2.806 -16.597  0.00  0.00     0.224 C 
BRANCH   6   7
HETATM    7  O           1     -35.129  -2.252 -15.551  0.00  0.00    -0.287 OA
BRANCH   7   8
HETATM    8  P           1     -35.805  -0.816 -15.847  0.00  0.00     0.406 P 
HETATM    9  O           1     -34.829   0.257 -15.552  0.00  0.00    -0.624 OA
HETATM   10  O           1     -37.000  -0.648 -14.991  0.00  0.00    -0.624 OA
BRANCH   8  11
HETATM   11  O           1     -36.240  -0.735 -17.401  0.00  0.00    -0.300 OA
HETATM   12  H           1     -35.915  -1.531 -17.787  0.00  0.00     0.223 HD
ENDBRANCH   8  11
ENDBRANCH   7   8
ENDBRANCH   6   7
ENDBRANCH   5   6
BRANCH   5  13
HETATM   13  N           1     -33.752  -4.235 -14.685  0.00  0.00    -0.064 N 
HETATM   14  H           1     -32.774  -4.004 -14.394  0.00  0.00     0.275 HD
HETATM   15  H           1     -34.412  -3.543 -14.263  0.00  0.00     0.275 HD
HETATM   16  H           1     -33.995  -5.195 -14.356  0.00  0.00     0.275 HD
ENDBRANCH   5  13
ENDBRANCH   2   5
BRANCH   1  17
HETATM   17  C           1     -30.616  -5.867 -17.329  0.00  0.00     0.186 C 
BRANCH  17  18
HETATM   18  C           1     -29.544  -5.649 -16.269  0.00  0.00     0.046 C 
BRANCH  18  19
HETATM   19  C           1     -28.415  -4.811 -16.854  0.00  0.00     0.076 C 
BRANCH  19  20
HETATM   20  S           1     -27.043  -5.896 -17.338  0.00  0.00    -0.173 SA
HETATM   21  C           1     -26.920  -6.779 -15.757  0.00  0.00     0.089 C 
ENDBRANCH  19  20
ENDBRANCH  18  19
ENDBRANCH  17  18
BRANCH  17  22
HETATM   22  C           1     -30.531  -7.282 -17.849  0.00  0.00     0.196 C 
HETATM   23  O           1     -31.205  -7.623 -18.844  0.00  0.00    -0.646 OA
HETATM   24  O           1     -29.784  -8.111 -17.285  0.00  0.00    -0.646 OA
ENDBRANCH  17  22
ENDBRANCH   1  17
TORSDOF 11
ENDMDL
MODEL 3
REMARK VINA RESULT:      -5.8      4.032      5.545
REMARK  11 active torsions:
REMARK  status: ('A' for Active; 'I' for Inactive)
REMARK    1  A    between atoms: S_2  and  C_3 
REMARK    2  A    between atoms: C_3  and  C_4 
REMARK    3  A    between atoms: C_4  and  C_5 
REMARK    4  A    between atoms: C_5  and  C_6 
REMARK    5  A    between atoms: C_5  and  N_9 
REMARK       I    between atoms: N_9  and  C_10 
REMARK    6  A    between atoms: C_10  and  C_11 
REMARK    7  A    between atoms: C_11  and  C_12 
REMARK    8  A    between atoms: C_11  and  N_18 
REMARK    9  A    between atoms: C_12  and  O_13 
REMARK   10  A    between atoms: O_13  and  P_14 
REMARK   11  A    between atoms: P_14  and  O_15 
ROOT
HETATM    1  N           1     -33.440  -3.955 -14.281  0.00  0.00    -0.345 N 
HETATM    2  C           1     -34.000  -4.523 -15.393  0.00  0.00     0.251 C 
HETATM    3  O           1     -35.056  -5.101 -15.309  0.00  0.00    -0.271 OA
HETATM    4  H           1     -32.554  -3.471 -14.351  0.00  0.00     0.163 HD
ENDROOT
BRANCH   2   5
HETATM    5  C           1     -33.295  -4.427 -16.724  0.00  0.00     0.298 C 
BRANCH   5   6
HETATM    6  C           1     -31.803  -4.668 -16.528  0.00  0.00     0.224 C 
BRANCH   6   7
HETATM    7  O           1     -31.075  -3.704 -17.241  0.00  0.00    -0.287 OA
BRANCH   7   8
HETATM    8  P           1     -29.499  -4.000 -17.426  0.00  0.00     0.406 P 
HETATM    9  O           1     -28.743  -2.731 -17.318  0.00  0.00    -0.624 OA
HETATM   10  O           1     -29.264  -4.604 -18.756  0.00  0.00    -0.624 OA
BRANCH   8  11
HETATM   11  O           1     -29.003  -5.020 -16.276  0.00  0.00    -0.300 OA
HETATM   12  H           1     -29.763  -5.536 -16.063  0.00  0.00     0.223 HD
ENDBRANCH   8  11
ENDBRANCH   7   8
ENDBRANCH   6   7
ENDBRANCH   5   6
BRANCH   5  13
HETATM   13  N           1     -33.507  -3.060 -17.304  0.00  0.00    -0.064 N 
HETATM   14  H           1     -34.531  -2.877 -17.401  0.00  0.00     0.275 HD
HETATM   15  H           1     -33.084  -2.344 -16.670  0.00  0.00     0.275 HD
HETATM   16  H           1     -33.053  -3.005 -18.243  0.00  0.00     0.275 HD
ENDBRANCH   5  13
ENDBRANCH   2   5
BRANCH   1  17
HETATM   17  C           1     -34.117  -4.047 -13.001  0.00  0.00     0.186 C 
BRANCH  17  18
HETATM   18  C           1     -33.087  -4.242 -11.896  0.00  0.00     0.046 C 
BRANCH  18  19
HETATM   19  C           1     -33.198  -5.656 -11.343  0.00  0.00     0.076 C 
BRANCH  19  20
HETATM   20  S           1     -34.685  -5.788 -10.310  0.00  0.00    -0.173 SA
HETATM   21  C           1     -34.682  -7.598 -10.187  0.00  0.00     0.089 C 
ENDBRANCH  19  20
ENDBRANCH  18  19
ENDBRANCH  17  18
BRANCH  17  22
HETATM   22  C           1     -34.890  -2.775 -12.751  0.00  0.00     0.196 C 
HETATM   23  O           1     -34.860  -1.849 -13.590  0.00  0.00    -0.646 OA
HETATM   24  O           1     -35.563  -2.649 -11.705  0.00  0.00    -0.646 OA
ENDBRANCH  17  22
ENDBRANCH   1  17
TORSDOF 11
ENDMDL
MODEL 4
REMARK VINA RESULT:      -5.7     13.290     15.018
REMARK  11 active torsions:
REMARK  status: ('A' for Active; 'I' for Inactive)
REMARK    1  A    between atoms: S_2  and  C_3 
REMARK    2  A    between atoms: C_3  and  C_4 
REMARK    3  A    between atoms: C_4  and  C_5 
REMARK    4  A    between atoms: C_5  and  C_6 
REMARK    5  A    between atoms: C_5  and  N_9 
REMARK       I    between atoms: N_9  and  C_10 
REMARK    6  A    between atoms: C_10  and  C_11 
REMARK    7  A    between atoms: C_11  and  C_12 
REMARK    8  A    between atoms: C_11  and  N_18 
REMARK    9  A    between atoms: C_12  and  O_13 
REMARK   10  A    between atoms: O_13  and  P_14 
REMARK   11  A    between atoms: P_14  and  O_15 
ROOT
HETATM    1  N           1     -21.486  -5.876  -5.909  0.00  0.00    -0.345 N 
HETATM    2  C           1     -20.817  -4.782  -6.388  0.00  0.00     0.251 C 
HETATM    3  O           1     -19.815  -4.398  -5.836  0.00  0.00    -0.271 OA
HETATM    4  H           1     -22.327  -6.198  -6.372  0.00  0.00     0.163 HD
ENDROOT
BRANCH   2   5
HETATM    5  C           1     -21.334  -4.057  -7.607  0.00  0.00     0.298 C 
BRANCH   5   6
HETATM    6  C           1     -22.705  -4.606  -7.982  0.00  0.00     0.224 C 
BRANCH   6   7
HETATM    7  O           1     -23.439  -3.614  -8.649  0.00  0.00    -0.287 OA
BRANCH   7   8
HETATM    8  P           1     -23.693  -3.861 -10.224  0.00  0.00     0.406 P 
HETATM    9  O           1     -23.793  -5.314 -10.486  0.00  0.00    -0.624 OA
HETATM   10  O           1     -22.567  -3.295 -11.000  0.00  0.00    -0.624 OA
BRANCH   8  11
HETATM   11  O           1     -25.068  -3.138 -10.668  0.00  0.00    -0.300 OA
HETATM   12  H           1     -25.078  -3.190 -11.609  0.00  0.00     0.223 HD
ENDBRANCH   8  11
ENDBRANCH   7   8
ENDBRANCH   6   7
ENDBRANCH   5   6
BRANCH   5  13
HETATM   13  N           1     -20.384  -4.264  -8.750  0.00  0.00    -0.064 N 
HETATM   14  H           1     -20.925  -4.473  -9.620  0.00  0.00     0.275 HD
HETATM   15  H           1     -19.818  -3.397  -8.892  0.00  0.00     0.275 HD
HETATM   16  H           1     -19.749  -5.064  -8.535  0.00  0.00     0.275 HD
ENDBRANCH   5  13
ENDBRANCH   2   5
BRANCH   1  17
HETATM   17  C           1     -20.992  -6.573  -4.738  0.00  0.00     0.186 C 
BRANCH  17  18
HETATM   18  C           1     -22.116  -6.719  -3.721  0.00  0.00     0.046 C 
BRANCH  18  19
HETATM   19  C           1     -21.698  -6.075  -2.406  0.00  0.00     0.076 C 
BRANCH  19  20
HETATM   20  S           1     -22.187  -7.146  -1.025  0.00  0.00    -0.173 SA
HETATM   21  C           1     -20.808  -8.315  -1.183  0.00  0.00     0.089 C 
ENDBRANCH  19  20
ENDBRANCH  18  19
ENDBRANCH  17  18
BRANCH  17  22
HETATM   22  C           1     -20.496  -7.941  -5.141  0.00  0.00     0.196 C 
HETATM   23  O           1     -21.159  -8.634  -5.942  0.00  0.00    -0.646 OA
HETATM   24  O           1     -19.422  -8.379  -4.674  0.00  0.00    -0.646 OA
ENDBRANCH  17  22
ENDBRANCH   1  17
TORSDOF 11
ENDMDL
MODEL 5
REMARK VINA RESULT:      -5.4     13.895     15.364
REMARK  11 active torsions:
REMARK  status: ('A' for Active; 'I' for Inactive)
REMARK    1  A    between atoms: S_2  and  C_3 
REMARK    2  A    between atoms: C_3  and  C_4 
REMARK    3  A    between atoms: C_4  and  C_5 
REMARK    4  A    between atoms: C_5  and  C_6 
REMARK    5  A    between atoms: C_5  and  N_9 
REMARK       I    between atoms: N_9  and  C_10 
REMARK    6  A    between atoms: C_10  and  C_11 
REMARK    7  A    between atoms: C_11  and  C_12 
REMARK    8  A    between atoms: C_11  and  N_18 
REMARK    9  A    between atoms: C_12  and  O_13 
REMARK   10  A    between atoms: O_13  and  P_14 
REMARK   11  A    between atoms: P_14  and  O_15 
ROOT
HETATM    1  N           1     -21.041  -6.510  -5.205  0.00  0.00    -0.345 N 
HETATM    2  C           1     -21.598  -5.577  -6.036  0.00  0.00     0.251 C 
HETATM    3  O           1     -22.788  -5.377  -6.008  0.00  0.00    -0.271 OA
HETATM    4  H           1     -20.043  -6.678  -5.229  0.00  0.00     0.163 HD
ENDROOT
BRANCH   2   5
HETATM    5  C           1     -20.723  -4.797  -6.987  0.00  0.00     0.298 C 
BRANCH   5   6
HETATM    6  C           1     -21.563  -3.748  -7.706  0.00  0.00     0.224 C 
BRANCH   6   7
HETATM    7  O           1     -21.766  -4.143  -9.037  0.00  0.00    -0.287 OA
BRANCH   7   8
HETATM    8  P           1     -23.289  -4.083  -9.569  0.00  0.00     0.406 P 
HETATM    9  O           1     -23.613  -5.342 -10.276  0.00  0.00    -0.624 OA
HETATM   10  O           1     -23.442  -2.941 -10.498  0.00  0.00    -0.624 OA
BRANCH   8  11
HETATM   11  O           1     -24.291  -3.895  -8.316  0.00  0.00    -0.300 OA
HETATM   12  H           1     -24.557  -2.991  -8.351  0.00  0.00     0.223 HD
ENDBRANCH   8  11
ENDBRANCH   7   8
ENDBRANCH   6   7
ENDBRANCH   5   6
BRANCH   5  13
HETATM   13  N           1     -20.123  -5.732  -7.995  0.00  0.00    -0.064 N 
HETATM   14  H           1     -20.192  -6.714  -7.645  0.00  0.00     0.275 HD
HETATM   15  H           1     -20.642  -5.647  -8.899  0.00  0.00     0.275 HD
HETATM   16  H           1     -19.120  -5.485  -8.145  0.00  0.00     0.275 HD
ENDBRANCH   5  13
ENDBRANCH   2   5
BRANCH   1  17
HETATM   17  C           1     -21.880  -7.261  -4.291  0.00  0.00     0.186 C 
BRANCH  17  18
HETATM   18  C           1     -21.467  -8.727  -4.310  0.00  0.00     0.046 C 
BRANCH  18  19
HETATM   19  C           1     -20.189  -8.884  -5.123  0.00  0.00     0.076 C 
BRANCH  19  20
HETATM   20  S           1     -18.844  -9.439  -4.038  0.00  0.00    -0.173 SA
HETATM   21  C           1     -19.886 -10.409  -2.912  0.00  0.00     0.089 C 
ENDBRANCH  19  20
ENDBRANCH  18  19
ENDBRANCH  17  18
BRANCH  17  22
HETATM   22  C           1     -21.719  -6.710  -2.895  0.00  0.00     0.196 C 
HETATM   23  O           1     -20.771  -7.095  -2.177  0.00  0.00    -0.646 OA
HETATM   24  O           1     -22.532  -5.867  -2.458  0.00  0.00    -0.646 OA
ENDBRANCH  17  22
ENDBRANCH   1  17
TORSDOF 11
ENDMDL
MODEL 6
REMARK VINA RESULT:      -5.3      5.634      7.160
REMARK  11 active torsions:
REMARK  status: ('A' for Active; 'I' for Inactive)
REMARK    1  A    between atoms: S_2  and  C_3 
REMARK    2  A    between atoms: C_3  and  C_4 
REMARK    3  A    between atoms: C_4  and  C_5 
REMARK    4  A    between atoms: C_5  and  C_6 
REMARK    5  A    between atoms: C_5  and  N_9 
REMARK       I    between atoms: N_9  and  C_10 
REMARK    6  A    between atoms: C_10  and  C_11 
REMARK    7  A    between atoms: C_11  and  C_12 
REMARK    8  A    between atoms: C_11  and  N_18 
REMARK    9  A    between atoms: C_12  and  O_13 
REMARK   10  A    between atoms: O_13  and  P_14 
REMARK   11  A    between atoms: P_14  and  O_15 
ROOT
HETATM    1  N           1     -31.984  -5.802 -16.693  0.00  0.00    -0.345 N 
HETATM    2  C           1     -32.571  -4.568 -16.633  0.00  0.00     0.251 C 
HETATM    3  O           1     -32.009  -3.608 -17.102  0.00  0.00    -0.271 OA
HETATM    4  H           1     -32.455  -6.607 -16.300  0.00  0.00     0.163 HD
ENDROOT
BRANCH   2   5
HETATM    5  C           1     -33.923  -4.408 -15.980  0.00  0.00     0.298 C 
BRANCH   5   6
HETATM    6  C           1     -33.741  -3.923 -14.547  0.00  0.00     0.224 C 
BRANCH   6   7
HETATM    7  O           1     -34.772  -4.434 -13.745  0.00  0.00    -0.287 OA
BRANCH   7   8
HETATM    8  P           1     -34.456  -4.537 -12.165  0.00  0.00     0.406 P 
HETATM    9  O           1     -35.595  -3.983 -11.398  0.00  0.00    -0.624 OA
HETATM   10  O           1     -33.231  -3.767 -11.857  0.00  0.00    -0.624 OA
BRANCH   8  11
HETATM   11  O           1     -34.236  -6.085 -11.759  0.00  0.00    -0.300 OA
HETATM   12  H           1     -34.080  -6.073 -10.830  0.00  0.00     0.223 HD
ENDBRANCH   8  11
ENDBRANCH   7   8
ENDBRANCH   6   7
ENDBRANCH   5   6
BRANCH   5  13
HETATM   13  N           1     -34.634  -5.729 -15.973  0.00  0.00    -0.064 N 
HETATM   14  H           1     -34.613  -6.131 -15.008  0.00  0.00     0.275 HD
HETATM   15  H           1     -35.626  -5.590 -16.271  0.00  0.00     0.275 HD
HETATM   16  H           1     -34.159  -6.383 -16.634  0.00  0.00     0.275 HD
ENDBRANCH   5  13
ENDBRANCH   2   5
BRANCH   1  17
HETATM   17  C           1     -30.685  -5.958 -17.320  0.00  0.00     0.186 C 
BRANCH  17  18
HETATM   18  C           1     -29.592  -5.762 -16.278  0.00  0.00     0.046 C 
BRANCH  18  19
HETATM   19  C           1     -28.480  -4.902 -16.864  0.00  0.00     0.076 C 
BRANCH  19  20
HETATM   20  S           1     -26.965  -5.890 -17.012  0.00  0.00    -0.173 SA
HETATM   21  C           1     -27.312  -6.997 -15.616  0.00  0.00     0.089 C 
ENDBRANCH  19  20
ENDBRANCH  18  19
ENDBRANCH  17  18
BRANCH  17  22
HETATM   22  C           1     -30.576  -7.342 -17.911  0.00  0.00     0.196 C 
HETATM   23  O           1     -29.771  -8.167 -17.427  0.00  0.00    -0.646 OA
HETATM   24  O           1     -31.293  -7.665 -18.883  0.00  0.00    -0.646 OA
ENDBRANCH  17  22
ENDBRANCH   1  17
TORSDOF 11
ENDMDL
MODEL 7
REMARK VINA RESULT:      -5.3      3.687      6.589
REMARK  11 active torsions:
REMARK  status: ('A' for Active; 'I' for Inactive)
REMARK    1  A    between atoms: S_2  and  C_3 
REMARK    2  A    between atoms: C_3  and  C_4 
REMARK    3  A    between atoms: C_4  and  C_5 
REMARK    4  A    between atoms: C_5  and  C_6 
REMARK    5  A    between atoms: C_5  and  N_9 
REMARK       I    between atoms: N_9  and  C_10 
REMARK    6  A    between atoms: C_10  and  C_11 
REMARK    7  A    between atoms: C_11  and  C_12 
REMARK    8  A    between atoms: C_11  and  N_18 
REMARK    9  A    between atoms: C_12  and  O_13 
REMARK   10  A    between atoms: O_13  and  P_14 
REMARK   11  A    between atoms: P_14  and  O_15 
ROOT
HETATM    1  N           1     -34.598  -2.248 -12.928  0.00  0.00    -0.345 N 
HETATM    2  C           1     -34.814  -3.285 -12.061  0.00  0.00     0.251 C 
HETATM    3  O           1     -35.851  -3.353 -11.447  0.00  0.00    -0.271 OA
HETATM    4  H           1     -33.729  -2.191 -13.443  0.00  0.00     0.163 HD
ENDROOT
BRANCH   2   5
HETATM    5  C           1     -33.755  -4.344 -11.875  0.00  0.00     0.298 C 
BRANCH   5   6
HETATM    6  C           1     -34.004  -5.089 -10.569  0.00  0.00     0.224 C 
BRANCH   6   7
HETATM    7  O           1     -33.436  -6.369 -10.644  0.00  0.00    -0.287 OA
BRANCH   7   8
HETATM    8  P           1     -34.427  -7.603 -10.327  0.00  0.00     0.406 P 
HETATM    9  O           1     -35.429  -7.185  -9.320  0.00  0.00    -0.624 OA
HETATM   10  O           1     -33.643  -8.742  -9.800  0.00  0.00    -0.624 OA
BRANCH   8  11
HETATM   11  O           1     -35.182  -8.051 -11.683  0.00  0.00    -0.300 OA
HETATM   12  H           1     -36.017  -7.617 -11.652  0.00  0.00     0.223 HD
ENDBRANCH   8  11
ENDBRANCH   7   8
ENDBRANCH   6   7
ENDBRANCH   5   6
BRANCH   5  13
HETATM   13  N           1     -32.403  -3.696 -11.829  0.00  0.00    -0.064 N 
HETATM   14  H           1     -31.664  -4.434 -11.777  0.00  0.00     0.275 HD
HETATM   15  H           1     -32.263  -3.124 -12.693  0.00  0.00     0.275 HD
HETATM   16  H           1     -32.340  -3.080 -10.988  0.00  0.00     0.275 HD
ENDBRANCH   5  13
ENDBRANCH   2   5
BRANCH   1  17
HETATM   17  C           1     -35.614  -1.229 -13.107  0.00  0.00     0.186 C 
BRANCH  17  18
HETATM   18  C           1     -35.476  -0.177 -12.016  0.00  0.00     0.046 C 
BRANCH  18  19
HETATM   19  C           1     -36.841   0.097 -11.399  0.00  0.00     0.076 C 
BRANCH  19  20
HETATM   20  S           1     -36.825  -0.391  -9.651  0.00  0.00    -0.173 SA
HETATM   21  C           1     -37.391   1.203  -8.993  0.00  0.00     0.089 C 
ENDBRANCH  19  20
ENDBRANCH  18  19
ENDBRANCH  17  18
BRANCH  17  22
HETATM   22  C           1     -35.440  -0.580 -14.459  0.00  0.00     0.196 C 
HETATM   23  O           1     -36.105  -0.984 -15.437  0.00  0.00    -0.646 OA
HETATM   24  O           1     -34.631   0.363 -14.599  0.00  0.00    -0.646 OA
ENDBRANCH  17  22
ENDBRANCH   1  17
TORSDOF 11
ENDMDL
MODEL 8
REMARK VINA RESULT:      -5.2     15.110     17.381
REMARK  11 active torsions:
REMARK  status: ('A' for Active; 'I' for Inactive)
REMARK    1  A    between atoms: S_2  and  C_3 
REMARK    2  A    between atoms: C_3  and  C_4 
REMARK    3  A    between atoms: C_4  and  C_5 
REMARK    4  A    between atoms: C_5  and  C_6 
REMARK    5  A    between atoms: C_5  and  N_9 
REMARK       I    between atoms: N_9  and  C_10 
REMARK    6  A    between atoms: C_10  and  C_11 
REMARK    7  A    between atoms: C_11  and  C_12 
REMARK    8  A    between atoms: C_11  and  N_18 
REMARK    9  A    between atoms: C_12  and  O_13 
REMARK   10  A    between atoms: O_13  and  P_14 
REMARK   11  A    between atoms: P_14  and  O_15 
ROOT
HETATM    1  N           1     -21.453  -5.604  -4.956  0.00  0.00    -0.345 N 
HETATM    2  C           1     -21.328  -6.758  -4.232  0.00  0.00     0.251 C 
HETATM    3  O           1     -21.228  -7.819  -4.799  0.00  0.00    -0.271 OA
HETATM    4  H           1     -21.537  -4.714  -4.481  0.00  0.00     0.163 HD
ENDROOT
BRANCH   2   5
HETATM    5  C           1     -21.314  -6.704  -2.723  0.00  0.00     0.298 C 
BRANCH   5   6
HETATM    6  C           1     -21.390  -8.118  -2.163  0.00  0.00     0.224 C 
BRANCH   6   7
HETATM    7  O           1     -20.807  -8.149  -0.887  0.00  0.00    -0.287 OA
BRANCH   7   8
HETATM    8  P           1     -21.757  -8.662   0.313  0.00  0.00     0.406 P 
HETATM    9  O           1     -21.062  -8.473   1.606  0.00  0.00    -0.624 OA
HETATM   10  O           1     -22.062 -10.098   0.121  0.00  0.00    -0.624 OA
BRANCH   8  11
HETATM   11  O           1     -23.133  -7.815   0.313  0.00  0.00    -0.300 OA
HETATM   12  H           1     -23.082  -7.270  -0.454  0.00  0.00     0.223 HD
ENDBRANCH   8  11
ENDBRANCH   7   8
ENDBRANCH   6   7
ENDBRANCH   5   6
BRANCH   5  13
HETATM   13  N           1     -22.493  -5.912  -2.241  0.00  0.00    -0.064 N 
HETATM   14  H           1     -23.080  -6.507  -1.614  0.00  0.00     0.275 HD
HETATM   15  H           1     -22.157  -5.075  -1.713  0.00  0.00     0.275 HD
HETATM   16  H           1     -23.063  -5.603  -3.060  0.00  0.00     0.275 HD
ENDBRANCH   5  13
ENDBRANCH   2   5
BRANCH   1  17
HETATM   17  C           1     -21.466  -5.655  -6.405  0.00  0.00     0.186 C 
BRANCH  17  18
HETATM   18  C           1     -22.270  -4.481  -6.947  0.00  0.00     0.046 C 
BRANCH  18  19
HETATM   19  C           1     -22.220  -4.490  -8.469  0.00  0.00     0.076 C 
BRANCH  19  20
HETATM   20  S           1     -23.823  -3.957  -9.131  0.00  0.00    -0.173 SA
HETATM   21  C           1     -23.715  -4.887 -10.686  0.00  0.00     0.089 C 
ENDBRANCH  19  20
ENDBRANCH  18  19
ENDBRANCH  17  18
BRANCH  17  22
HETATM   22  C           1     -20.050  -5.578  -6.923  0.00  0.00     0.196 C 
HETATM   23  O           1     -19.342  -4.582  -6.658  0.00  0.00    -0.646 OA
HETATM   24  O           1     -19.586  -6.510  -7.614  0.00  0.00    -0.646 OA
ENDBRANCH  17  22
ENDBRANCH   1  17
TORSDOF 11
ENDMDL
MODEL 9
REMARK VINA RESULT:      -4.8     16.395     17.492
REMARK  11 active torsions:
REMARK  status: ('A' for Active; 'I' for Inactive)
REMARK    1  A    between atoms: S_2  and  C_3 
REMARK    2  A    between atoms: C_3  and  C_4 
REMARK    3  A    between atoms: C_4  and  C_5 
REMARK    4  A    between atoms: C_5  and  C_6 
REMARK    5  A    between atoms: C_5  and  N_9 
REMARK       I    between atoms: N_9  and  C_10 
REMARK    6  A    between atoms: C_10  and  C_11 
REMARK    7  A    between atoms: C_11  and  C_12 
REMARK    8  A    between atoms: C_11  and  N_18 
REMARK    9  A    between atoms: C_12  and  O_13 
REMARK   10  A    between atoms: O_13  and  P_14 
REMARK   11  A    between atoms: P_14  and  O_15 
ROOT
HETATM    1  N           1     -20.759  -8.471  -2.579  0.00  0.00    -0.345 N 
HETATM    2  C           1     -20.942  -9.220  -3.710  0.00  0.00     0.251 C 
HETATM    3  O           1     -21.933  -9.899  -3.830  0.00  0.00    -0.271 OA
HETATM    4  H           1     -19.929  -7.902  -2.477  0.00  0.00     0.163 HD
ENDROOT
BRANCH   2   5
HETATM    5  C           1     -19.905  -9.196  -4.805  0.00  0.00     0.298 C 
BRANCH   5   6
HETATM    6  C           1     -19.804  -7.789  -5.380  0.00  0.00     0.224 C 
BRANCH   6   7
HETATM    7  O           1     -20.998  -7.468  -6.044  0.00  0.00    -0.287 OA
BRANCH   7   8
HETATM    8  P           1     -21.581  -5.986  -5.775  0.00  0.00     0.406 P 
HETATM    9  O           1     -21.819  -5.308  -7.069  0.00  0.00    -0.624 OA
HETATM   10  O           1     -20.604  -5.208  -4.981  0.00  0.00    -0.624 OA
BRANCH   8  11
HETATM   11  O           1     -22.972  -6.094  -4.959  0.00  0.00    -0.300 OA
HETATM   12  H           1     -22.745  -5.903  -4.065  0.00  0.00     0.223 HD
ENDBRANCH   8  11
ENDBRANCH   7   8
ENDBRANCH   6   7
ENDBRANCH   5   6
BRANCH   5  13
HETATM   13  N           1     -20.303 -10.151  -5.892  0.00  0.00    -0.064 N 
HETATM   14  H           1     -21.123  -9.765  -6.413  0.00  0.00     0.275 HD
HETATM   15  H           1     -19.502 -10.282  -6.550  0.00  0.00     0.275 HD
HETATM   16  H           1     -20.561 -11.071  -5.470  0.00  0.00     0.275 HD
ENDBRANCH   5  13
ENDBRANCH   2   5
BRANCH   1  17
HETATM   17  C           1     -21.755  -8.493  -1.526  0.00  0.00     0.186 C 
BRANCH  17  18
HETATM   18  C           1     -21.134  -9.048  -0.251  0.00  0.00     0.046 C 
BRANCH  18  19
HETATM   19  C           1     -21.572 -10.494  -0.061  0.00  0.00     0.076 C 
BRANCH  19  20
HETATM   20  S           1     -23.352 -10.636  -0.389  0.00  0.00    -0.173 SA
HETATM   21  C           1     -23.553 -12.294   0.321  0.00  0.00     0.089 C 
ENDBRANCH  19  20
ENDBRANCH  18  19
ENDBRANCH  17  18
BRANCH  17  22
HETATM   22  C           1     -22.251  -7.089  -1.274  0.00  0.00     0.196 C 
HETATM   23  O           1     -22.060  -6.197  -2.129  0.00  0.00    -0.646 OA
HETATM   24  O           1     -22.853  -6.819  -0.213  0.00  0.00    -0.646 OA
ENDBRANCH  17  22
ENDBRANCH   1  17
TORSDOF 11
ENDMDL
