MODEL 1
REMARK VINA RESULT:      -5.7      0.000      0.000
REMARK  10 active torsions:
REMARK  status: ('A' for Active; 'I' for Inactive)
REMARK    1  A    between atoms: C_1  and  C_13 
REMARK    2  A    between atoms: C_1  and  S_10 
REMARK    3  A    between atoms: C_2  and  C_11 
REMARK    4  A    between atoms: C_2  and  C_20 
REMARK    5  A    between atoms: N_3  and  C_14 
REMARK    6  A    between atoms: Se_5  and  C_11 
REMARK    7  A    between atoms: N_6  and  C_20 
REMARK       I    between atoms: N_6  and  C_7 
REMARK    8  A    between atoms: C_7  and  C_14 
REMARK    9  A    between atoms: C_13  and  C_14 
REMARK   10  A    between atoms: C_19  and  C_20 
ROOT
HETATM    1  N           1     -26.630  -6.664 -18.232  0.00  0.00    -0.345 N 
HETATM    2  C           1     -25.487  -6.895 -18.948  0.00  0.00     0.249 C 
HETATM    3  O           1     -24.418  -6.536 -18.514  0.00  0.00    -0.271 OA
HETATM    4  H           1     -27.524  -6.966 -18.595  0.00  0.00     0.163 HD
ENDROOT
BRANCH   2   5
HETATM    5  C           1     -25.561  -7.599 -20.281  0.00  0.00     0.275 C 
BRANCH   5   6
HETATM    6  N           1     -26.998  -7.809 -20.656  0.00  0.00    -0.066 N 
HETATM    7  H           1     -27.523  -6.912 -20.545  0.00  0.00     0.275 HD
HETATM    8  H           1     -27.056  -8.125 -21.650  0.00  0.00     0.275 HD
HETATM    9  H           1     -27.418  -8.537 -20.034  0.00  0.00     0.275 HD
ENDBRANCH   5   6
BRANCH   5  10
HETATM   10  C           1     -24.879  -6.749 -21.344  0.00  0.00     0.053 C 
BRANCH  10  11
HETATM   11  C           1     -24.115  -7.651 -22.304  0.00  0.00     0.076 C 
BRANCH  11  12
HETATM   12  S           1     -22.752  -8.461 -21.422  0.00  0.00    -0.173 SA
HETATM   13  C           1     -21.900  -9.083 -22.898  0.00  0.00     0.089 C 
ENDBRANCH  11  12
ENDBRANCH  10  11
ENDBRANCH   5  10
ENDBRANCH   2   5
BRANCH   1  14
HETATM   14  C           1     -26.558  -5.987 -16.951  0.00  0.00     0.185 C 
BRANCH  14  15
HETATM   15  C           1     -27.779  -5.094 -16.781  0.00  0.00     0.036 C 
BRANCH  15  16
HETATM   16  C           1     -28.724  -5.292 -17.960  0.00  0.00     0.003 C 
BRANCH  16  17
HETATM   17 Se           1     -30.357  -6.160 -17.346  0.00  0.00     0.000 Se
HETATM   18  C           1     -30.112  -7.758 -18.434  0.00  0.00     0.000 C 
ENDBRANCH  16  17
ENDBRANCH  15  16
ENDBRANCH  14  15
BRANCH  14  19
HETATM   19  C           1     -26.526  -7.012 -15.843  0.00  0.00     0.196 C 
HETATM   20  O           1     -25.431  -7.424 -15.404  0.00  0.00    -0.646 OA
HETATM   21  O           1     -27.595  -7.449 -15.365  0.00  0.00    -0.646 OA
ENDBRANCH  14  19
ENDBRANCH   1  14
TORSDOF 10
ENDMDL
MODEL 2
REMARK VINA RESULT:      -4.8     13.133     15.687
REMARK  10 active torsions:
REMARK  status: ('A' for Active; 'I' for Inactive)
REMARK    1  A    between atoms: C_1  and  C_13 
REMARK    2  A    between atoms: C_1  and  S_10 
REMARK    3  A    between atoms: C_2  and  C_11 
REMARK    4  A    between atoms: C_2  and  C_20 
REMARK    5  A    between atoms: N_3  and  C_14 
REMARK    6  A    between atoms: Se_5  and  C_11 
REMARK    7  A    between atoms: N_6  and  C_20 
REMARK       I    between atoms: N_6  and  C_7 
REMARK    8  A    between atoms: C_7  and  C_14 
REMARK    9  A    between atoms: C_13  and  C_14 
REMARK   10  A    between atoms: C_19  and  C_20 
ROOT
HETATM    1  N           1     -21.004  -5.330  -5.028  0.00  0.00    -0.345 N 
HETATM    2  C           1     -21.406  -6.388  -4.257  0.00  0.00     0.249 C 
HETATM    3  O           1     -21.907  -7.357  -4.775  0.00  0.00    -0.271 OA
HETATM    4  H           1     -20.584  -4.518  -4.594  0.00  0.00     0.163 HD
ENDROOT
BRANCH   2   5
HETATM    5  C           1     -21.223  -6.342  -2.760  0.00  0.00     0.275 C 
BRANCH   5   6
HETATM    6  N           1     -22.505  -5.906  -2.113  0.00  0.00    -0.066 N 
HETATM    7  H           1     -22.421  -4.909  -1.810  0.00  0.00     0.275 HD
HETATM    8  H           1     -23.289  -5.997  -2.799  0.00  0.00     0.275 HD
HETATM    9  H           1     -22.698  -6.509  -1.281  0.00  0.00     0.275 HD
ENDBRANCH   5   6
BRANCH   5  10
HETATM   10  C           1     -20.845  -7.727  -2.252  0.00  0.00     0.053 C 
BRANCH  10  11
HETATM   11  C           1     -21.960  -8.265  -1.365  0.00  0.00     0.076 C 
BRANCH  11  12
HETATM   12  S           1     -21.320  -8.549   0.309  0.00  0.00    -0.173 SA
HETATM   13  C           1     -21.565 -10.347   0.314  0.00  0.00     0.089 C 
ENDBRANCH  11  12
ENDBRANCH  10  11
ENDBRANCH   5  10
ENDBRANCH   2   5
BRANCH   1  14
HETATM   14  C           1     -21.180  -5.374  -6.467  0.00  0.00     0.185 C 
BRANCH  14  15
HETATM   15  C           1     -21.717  -4.035  -6.953  0.00  0.00     0.036 C 
BRANCH  15  16
HETATM   16  C           1     -22.850  -4.270  -7.945  0.00  0.00     0.003 C 
BRANCH  16  17
HETATM   17 Se           1     -22.168  -4.104  -9.763  0.00  0.00     0.000 Se
HETATM   18  C           1     -23.742  -4.891 -10.600  0.00  0.00     0.000 C 
ENDBRANCH  16  17
ENDBRANCH  15  16
ENDBRANCH  14  15
BRANCH  14  19
HETATM   19  C           1     -19.851  -5.652  -7.126  0.00  0.00     0.196 C 
HETATM   20  O           1     -19.207  -4.720  -7.655  0.00  0.00    -0.646 OA
HETATM   21  O           1     -19.394  -6.816  -7.144  0.00  0.00    -0.646 OA
ENDBRANCH  14  19
ENDBRANCH   1  14
TORSDOF 10
ENDMDL
MODEL 3
REMARK VINA RESULT:      -4.8     12.274     14.391
REMARK  10 active torsions:
REMARK  status: ('A' for Active; 'I' for Inactive)
REMARK    1  A    between atoms: C_1  and  C_13 
REMARK    2  A    between atoms: C_1  and  S_10 
REMARK    3  A    between atoms: C_2  and  C_11 
REMARK    4  A    between atoms: C_2  and  C_20 
REMARK    5  A    between atoms: N_3  and  C_14 
REMARK    6  A    between atoms: Se_5  and  C_11 
REMARK    7  A    between atoms: N_6  and  C_20 
REMARK       I    between atoms: N_6  and  C_7 
REMARK    8  A    between atoms: C_7  and  C_14 
REMARK    9  A    between atoms: C_13  and  C_14 
REMARK   10  A    between atoms: C_19  and  C_20 
ROOT
HETATM    1  N           1     -21.299  -5.911  -5.806  0.00  0.00    -0.345 N 
HETATM    2  C           1     -20.635  -4.751  -6.098  0.00  0.00     0.249 C 
HETATM    3  O           1     -19.736  -4.373  -5.386  0.00  0.00    -0.271 OA
HETATM    4  H           1     -22.052  -6.228  -6.403  0.00  0.00     0.163 HD
ENDROOT
BRANCH   2   5
HETATM    5  C           1     -21.026  -3.943  -7.312  0.00  0.00     0.275 C 
BRANCH   5   6
HETATM    6  N           1     -20.042  -4.193  -8.416  0.00  0.00    -0.066 N 
HETATM    7  H           1     -20.296  -5.074  -8.918  0.00  0.00     0.275 HD
HETATM    8  H           1     -20.062  -3.392  -9.087  0.00  0.00     0.275 HD
HETATM    9  H           1     -19.082  -4.286  -8.013  0.00  0.00     0.275 HD
ENDBRANCH   5   6
BRANCH   5  10
HETATM   10  C           1     -22.418  -4.356  -7.770  0.00  0.00     0.053 C 
BRANCH  10  11
HETATM   11  C           1     -22.784  -3.593  -9.036  0.00  0.00     0.076 C 
BRANCH  11  12
HETATM   12  S           1     -23.346  -4.760 -10.307  0.00  0.00    -0.173 SA
HETATM   13  C           1     -22.038  -4.390 -11.510  0.00  0.00     0.089 C 
ENDBRANCH  11  12
ENDBRANCH  10  11
ENDBRANCH   5  10
ENDBRANCH   2   5
BRANCH   1  14
HETATM   14  C           1     -20.924  -6.687  -4.640  0.00  0.00     0.185 C 
BRANCH  14  15
HETATM   15  C           1     -22.108  -6.778  -3.688  0.00  0.00     0.036 C 
BRANCH  15  16
HETATM   16  C           1     -21.769  -6.066  -2.384  0.00  0.00     0.003 C 
BRANCH  16  17
HETATM   17 Se           1     -22.245  -7.206  -0.877  0.00  0.00     0.000 Se
HETATM   18  C           1     -20.773  -8.455  -1.147  0.00  0.00     0.000 C 
ENDBRANCH  16  17
ENDBRANCH  15  16
ENDBRANCH  14  15
BRANCH  14  19
HETATM   19  C           1     -20.517  -8.075  -5.071  0.00  0.00     0.196 C 
HETATM   20  O           1     -21.131  -8.648  -5.998  0.00  0.00    -0.646 OA
HETATM   21  O           1     -19.567  -8.654  -4.500  0.00  0.00    -0.646 OA
ENDBRANCH  14  19
ENDBRANCH   1  14
TORSDOF 10
ENDMDL
MODEL 4
REMARK VINA RESULT:      -4.7      1.689      2.014
REMARK  10 active torsions:
REMARK  status: ('A' for Active; 'I' for Inactive)
REMARK    1  A    between atoms: C_1  and  C_13 
REMARK    2  A    between atoms: C_1  and  S_10 
REMARK    3  A    between atoms: C_2  and  C_11 
REMARK    4  A    between atoms: C_2  and  C_20 
REMARK    5  A    between atoms: N_3  and  C_14 
REMARK    6  A    between atoms: Se_5  and  C_11 
REMARK    7  A    between atoms: N_6  and  C_20 
REMARK       I    between atoms: N_6  and  C_7 
REMARK    8  A    between atoms: C_7  and  C_14 
REMARK    9  A    between atoms: C_13  and  C_14 
REMARK   10  A    between atoms: C_19  and  C_20 
ROOT
HETATM    1  N           1     -25.985  -6.669 -18.352  0.00  0.00    -0.345 N 
HETATM    2  C           1     -26.482  -6.421 -19.603  0.00  0.00     0.249 C 
HETATM    3  O           1     -27.509  -5.799 -19.732  0.00  0.00    -0.271 OA
HETATM    4  H           1     -25.124  -7.190 -18.244  0.00  0.00     0.163 HD
ENDROOT
BRANCH   2   5
HETATM    5  C           1     -25.747  -6.925 -20.821  0.00  0.00     0.275 C 
BRANCH   5   6
HETATM    6  N           1     -25.242  -5.759 -21.618  0.00  0.00    -0.066 N 
HETATM    7  H           1     -26.047  -5.276 -22.079  0.00  0.00     0.275 HD
HETATM    8  H           1     -24.752  -5.090 -20.982  0.00  0.00     0.275 HD
HETATM    9  H           1     -24.575  -6.099 -22.347  0.00  0.00     0.275 HD
ENDBRANCH   5   6
BRANCH   5  10
HETATM   10  C           1     -24.571  -7.788 -20.384  0.00  0.00     0.053 C 
BRANCH  10  11
HETATM   11  C           1     -23.780  -8.227 -21.609  0.00  0.00     0.076 C 
BRANCH  11  12
HETATM   12  S           1     -22.075  -8.616 -21.122  0.00  0.00    -0.173 SA
HETATM   13  C           1     -21.629  -9.496 -22.645  0.00  0.00     0.089 C 
ENDBRANCH  11  12
ENDBRANCH  10  11
ENDBRANCH   5  10
ENDBRANCH   2   5
BRANCH   1  14
HETATM   14  C           1     -26.691  -6.184 -17.182  0.00  0.00     0.185 C 
BRANCH  14  15
HETATM   15  C           1     -28.045  -6.874 -17.085  0.00  0.00     0.036 C 
BRANCH  15  16
HETATM   16  C           1     -29.063  -5.916 -16.480  0.00  0.00     0.003 C 
BRANCH  16  17
HETATM   17 Se           1     -28.614  -4.087 -16.983  0.00  0.00     0.000 Se
HETATM   18  C           1     -30.402  -3.651 -17.623  0.00  0.00     0.000 C 
ENDBRANCH  16  17
ENDBRANCH  15  16
ENDBRANCH  14  15
BRANCH  14  19
HETATM   19  C           1     -25.881  -6.489 -15.946  0.00  0.00     0.196 C 
HETATM   20  O           1     -26.133  -7.508 -15.268  0.00  0.00    -0.646 OA
HETATM   21  O           1     -24.958  -5.720 -15.599  0.00  0.00    -0.646 OA
ENDBRANCH  14  19
ENDBRANCH   1  14
TORSDOF 10
ENDMDL
MODEL 5
REMARK VINA RESULT:      -4.6     12.701     14.905
REMARK  10 active torsions:
REMARK  status: ('A' for Active; 'I' for Inactive)
REMARK    1  A    between atoms: C_1  and  C_13 
REMARK    2  A    between atoms: C_1  and  S_10 
REMARK    3  A    between atoms: C_2  and  C_11 
REMARK    4  A    between atoms: C_2  and  C_20 
REMARK    5  A    between atoms: N_3  and  C_14 
REMARK    6  A    between atoms: Se_5  and  C_11 
REMARK    7  A    between atoms: N_6  and  C_20 
REMARK       I    between atoms: N_6  and  C_7 
REMARK    8  A    between atoms: C_7  and  C_14 
REMARK    9  A    between atoms: C_13  and  C_14 
REMARK   10  A    between atoms: C_19  and  C_20 
ROOT
HETATM    1  N           1     -20.865  -6.699  -4.849  0.00  0.00    -0.345 N 
HETATM    2  C           1     -21.438  -5.798  -5.704  0.00  0.00     0.249 C 
HETATM    3  O           1     -22.637  -5.649  -5.711  0.00  0.00    -0.271 OA
HETATM    4  H           1     -19.861  -6.824  -4.843  0.00  0.00     0.163 HD
ENDROOT
BRANCH   2   5
HETATM    5  C           1     -20.573  -4.989  -6.639  0.00  0.00     0.275 C 
BRANCH   5   6
HETATM    6  N           1     -20.031  -5.882  -7.717  0.00  0.00    -0.066 N 
HETATM    7  H           1     -20.372  -6.859  -7.565  0.00  0.00     0.275 HD
HETATM    8  H           1     -20.358  -5.540  -8.648  0.00  0.00     0.275 HD
HETATM    9  H           1     -18.986  -5.869  -7.687  0.00  0.00     0.275 HD
ENDBRANCH   5   6
BRANCH   5  10
HETATM   10  C           1     -21.404  -3.881  -7.270  0.00  0.00     0.053 C 
BRANCH  10  11
HETATM   11  C           1     -21.748  -4.256  -8.705  0.00  0.00     0.076 C 
BRANCH  11  12
HETATM   12  S           1     -23.523  -4.004  -8.989  0.00  0.00    -0.173 SA
HETATM   13  C           1     -23.580  -4.804 -10.616  0.00  0.00     0.089 C 
ENDBRANCH  11  12
ENDBRANCH  10  11
ENDBRANCH   5  10
ENDBRANCH   2   5
BRANCH   1  14
HETATM   14  C           1     -21.697  -7.477  -3.950  0.00  0.00     0.185 C 
BRANCH  14  15
HETATM   15  C           1     -21.206  -8.918  -3.924  0.00  0.00     0.036 C 
BRANCH  15  16
HETATM   16  C           1     -19.947  -9.043  -4.772  0.00  0.00     0.003 C 
BRANCH  16  17
HETATM   17 Se           1     -18.425  -9.443  -3.622  0.00  0.00     0.000 Se
HETATM   18  C           1     -18.379 -11.340  -4.068  0.00  0.00     0.000 C 
ENDBRANCH  16  17
ENDBRANCH  15  16
ENDBRANCH  14  15
BRANCH  14  19
HETATM   19  C           1     -21.617  -6.892  -2.561  0.00  0.00     0.196 C 
HETATM   20  O           1     -22.298  -5.887  -2.265  0.00  0.00    -0.646 OA
HETATM   21  O           1     -20.869  -7.414  -1.706  0.00  0.00    -0.646 OA
ENDBRANCH  14  19
ENDBRANCH   1  14
TORSDOF 10
ENDMDL
MODEL 6
REMARK VINA RESULT:      -4.4     19.579     21.155
REMARK  10 active torsions:
REMARK  status: ('A' for Active; 'I' for Inactive)
REMARK    1  A    between atoms: C_1  and  C_13 
REMARK    2  A    between atoms: C_1  and  S_10 
REMARK    3  A    between atoms: C_2  and  C_11 
REMARK    4  A    between atoms: C_2  and  C_20 
REMARK    5  A    between atoms: N_3  and  C_14 
REMARK    6  A    between atoms: Se_5  and  C_11 
REMARK    7  A    between atoms: N_6  and  C_20 
REMARK       I    between atoms: N_6  and  C_7 
REMARK    8  A    between atoms: C_7  and  C_14 
REMARK    9  A    between atoms: C_13  and  C_14 
REMARK   10  A    between atoms: C_19  and  C_20 
ROOT
HETATM    1  N           1     -11.312   7.859 -20.566  0.00  0.00    -0.345 N 
HETATM    2  C           1     -12.339   8.448 -19.879  0.00  0.00     0.249 C 
HETATM    3  O           1     -13.089   7.772 -19.215  0.00  0.00    -0.271 OA
HETATM    4  H           1     -10.685   8.425 -21.122  0.00  0.00     0.163 HD
ENDROOT
BRANCH   2   5
HETATM    5  C           1     -12.535   9.943 -19.951  0.00  0.00     0.275 C 
BRANCH   5   6
HETATM    6  N           1     -13.030  10.317 -21.317  0.00  0.00    -0.066 N 
HETATM    7  H           1     -13.796   9.665 -21.602  0.00  0.00     0.275 HD
HETATM    8  H           1     -13.394  11.296 -21.299  0.00  0.00     0.275 HD
HETATM    9  H           1     -12.243  10.250 -22.002  0.00  0.00     0.275 HD
ENDBRANCH   5   6
BRANCH   5  10
HETATM   10  C           1     -13.557  10.372 -18.908  0.00  0.00     0.053 C 
BRANCH  10  11
HETATM   11  C           1     -14.389  11.525 -19.454  0.00  0.00     0.076 C 
BRANCH  11  12
HETATM   12  S           1     -15.755  11.882 -18.314  0.00  0.00    -0.173 SA
HETATM   13  C           1     -15.185  10.798 -16.974  0.00  0.00     0.089 C 
ENDBRANCH  11  12
ENDBRANCH  10  11
ENDBRANCH   5  10
ENDBRANCH   2   5
BRANCH   1  14
HETATM   14  C           1     -11.124   6.423 -20.497  0.00  0.00     0.185 C 
BRANCH  14  15
HETATM   15  C           1     -10.981   5.862 -21.905  0.00  0.00     0.036 C 
BRANCH  15  16
HETATM   16  C           1     -12.189   4.994 -22.233  0.00  0.00     0.003 C 
BRANCH  16  17
HETATM   17 Se           1     -12.793   4.082 -20.621  0.00  0.00     0.000 Se
HETATM   18  C           1     -11.390   2.730 -20.663  0.00  0.00     0.000 C 
ENDBRANCH  16  17
ENDBRANCH  15  16
ENDBRANCH  14  15
BRANCH  14  19
HETATM   19  C           1      -9.877   6.118 -19.704  0.00  0.00     0.196 C 
HETATM   20  O           1      -8.758   6.149 -20.260  0.00  0.00    -0.646 OA
HETATM   21  O           1      -9.962   5.833 -18.489  0.00  0.00    -0.646 OA
ENDBRANCH  14  19
ENDBRANCH   1  14
TORSDOF 10
ENDMDL
MODEL 7
REMARK VINA RESULT:      -4.4     13.422     15.530
REMARK  10 active torsions:
REMARK  status: ('A' for Active; 'I' for Inactive)
REMARK    1  A    between atoms: C_1  and  C_13 
REMARK    2  A    between atoms: C_1  and  S_10 
REMARK    3  A    between atoms: C_2  and  C_11 
REMARK    4  A    between atoms: C_2  and  C_20 
REMARK    5  A    between atoms: N_3  and  C_14 
REMARK    6  A    between atoms: Se_5  and  C_11 
REMARK    7  A    between atoms: N_6  and  C_20 
REMARK       I    between atoms: N_6  and  C_7 
REMARK    8  A    between atoms: C_7  and  C_14 
REMARK    9  A    between atoms: C_13  and  C_14 
REMARK   10  A    between atoms: C_19  and  C_20 
ROOT
HETATM    1  N           1     -20.795  -6.719  -3.564  0.00  0.00    -0.345 N 
HETATM    2  C           1     -21.317  -6.681  -4.828  0.00  0.00     0.249 C 
HETATM    3  O           1     -22.248  -7.394  -5.119  0.00  0.00    -0.271 OA
HETATM    4  H           1     -20.016  -6.121  -3.320  0.00  0.00     0.163 HD
ENDROOT
BRANCH   2   5
HETATM    5  C           1     -20.730  -5.749  -5.860  0.00  0.00     0.275 C 
BRANCH   5   6
HETATM    6  N           1     -19.920  -6.540  -6.844  0.00  0.00    -0.066 N 
HETATM    7  H           1     -20.510  -6.770  -7.676  0.00  0.00     0.275 HD
HETATM    8  H           1     -19.094  -5.976  -7.148  0.00  0.00     0.275 HD
HETATM    9  H           1     -19.592  -7.424  -6.394  0.00  0.00     0.275 HD
ENDBRANCH   5   6
BRANCH   5  10
HETATM   10  C           1     -21.853  -5.028  -6.591  0.00  0.00     0.053 C 
BRANCH  10  11
HETATM   11  C           1     -21.561  -5.012  -8.085  0.00  0.00     0.076 C 
BRANCH  11  12
HETATM   12  S           1     -22.853  -4.074  -8.947  0.00  0.00    -0.173 SA
HETATM   13  C           1     -21.882  -3.723 -10.440  0.00  0.00     0.089 C 
ENDBRANCH  11  12
ENDBRANCH  10  11
ENDBRANCH   5  10
ENDBRANCH   2   5
BRANCH   1  14
HETATM   14  C           1     -21.359  -7.614  -2.572  0.00  0.00     0.185 C 
BRANCH  14  15
HETATM   15  C           1     -20.236  -8.348  -1.854  0.00  0.00     0.036 C 
BRANCH  15  16
HETATM   16  C           1     -20.551  -9.838  -1.802  0.00  0.00     0.003 C 
BRANCH  16  17
HETATM   17 Se           1     -21.893 -10.266  -3.149  0.00  0.00     0.000 Se
HETATM   18  C           1     -22.742 -11.666  -2.093  0.00  0.00     0.000 C 
ENDBRANCH  16  17
ENDBRANCH  15  16
ENDBRANCH  14  15
BRANCH  14  19
HETATM   19  C           1     -22.159  -6.816  -1.572  0.00  0.00     0.196 C 
HETATM   20  O           1     -22.400  -5.608  -1.785  0.00  0.00    -0.646 OA
HETATM   21  O           1     -22.583  -7.364  -0.531  0.00  0.00    -0.646 OA
ENDBRANCH  14  19
ENDBRANCH   1  14
TORSDOF 10
ENDMDL
MODEL 8
REMARK VINA RESULT:      -4.3     13.367     15.528
REMARK  10 active torsions:
REMARK  status: ('A' for Active; 'I' for Inactive)
REMARK    1  A    between atoms: C_1  and  C_13 
REMARK    2  A    between atoms: C_1  and  S_10 
REMARK    3  A    between atoms: C_2  and  C_11 
REMARK    4  A    between atoms: C_2  and  C_20 
REMARK    5  A    between atoms: N_3  and  C_14 
REMARK    6  A    between atoms: Se_5  and  C_11 
REMARK    7  A    between atoms: N_6  and  C_20 
REMARK       I    between atoms: N_6  and  C_7 
REMARK    8  A    between atoms: C_7  and  C_14 
REMARK    9  A    between atoms: C_13  and  C_14 
REMARK   10  A    between atoms: C_19  and  C_20 
ROOT
HETATM    1  N           1     -21.267  -7.955  -4.251  0.00  0.00    -0.345 N 
HETATM    2  C           1     -20.732  -7.409  -5.386  0.00  0.00     0.249 C 
HETATM    3  O           1     -19.734  -7.884  -5.874  0.00  0.00    -0.271 OA
HETATM    4  H           1     -22.103  -7.557  -3.844  0.00  0.00     0.163 HD
ENDROOT
BRANCH   2   5
HETATM    5  C           1     -21.389  -6.212  -6.029  0.00  0.00     0.275 C 
BRANCH   5   6
HETATM    6  N           1     -22.667  -5.897  -5.310  0.00  0.00    -0.066 N 
HETATM    7  H           1     -23.172  -6.785  -5.090  0.00  0.00     0.275 HD
HETATM    8  H           1     -22.451  -5.389  -4.423  0.00  0.00     0.275 HD
HETATM    9  H           1     -23.269  -5.296  -5.917  0.00  0.00     0.275 HD
ENDBRANCH   5   6
BRANCH   5  10
HETATM   10  C           1     -20.453  -5.014  -5.947  0.00  0.00     0.053 C 
BRANCH  10  11
HETATM   11  C           1     -20.926  -3.932  -6.909  0.00  0.00     0.076 C 
BRANCH  11  12
HETATM   12  S           1     -21.254  -4.666  -8.536  0.00  0.00    -0.173 SA
HETATM   13  C           1     -22.950  -4.043  -8.698  0.00  0.00     0.089 C 
ENDBRANCH  11  12
ENDBRANCH  10  11
ENDBRANCH   5  10
ENDBRANCH   2   5
BRANCH   1  14
HETATM   14  C           1     -20.636  -9.106  -3.634  0.00  0.00     0.185 C 
BRANCH  14  15
HETATM   15  C           1     -20.698  -8.966  -2.119  0.00  0.00     0.036 C 
BRANCH  15  16
HETATM   16  C           1     -21.097  -7.541  -1.755  0.00  0.00     0.003 C 
BRANCH  16  17
HETATM   17 Se           1     -22.427  -7.581  -0.331  0.00  0.00     0.000 Se
HETATM   18  C           1     -22.530  -9.526  -0.259  0.00  0.00     0.000 C 
ENDBRANCH  16  17
ENDBRANCH  15  16
ENDBRANCH  14  15
BRANCH  14  19
HETATM   19  C           1     -21.360 -10.361  -4.053  0.00  0.00     0.196 C 
HETATM   20  O           1     -20.808 -11.174  -4.826  0.00  0.00    -0.646 OA
HETATM   21  O           1     -22.514 -10.589  -3.628  0.00  0.00    -0.646 OA
ENDBRANCH  14  19
ENDBRANCH   1  14
TORSDOF 10
ENDMDL
MODEL 9
REMARK VINA RESULT:      -4.3     15.564     17.685
REMARK  10 active torsions:
REMARK  status: ('A' for Active; 'I' for Inactive)
REMARK    1  A    between atoms: C_1  and  C_13 
REMARK    2  A    between atoms: C_1  and  S_10 
REMARK    3  A    between atoms: C_2  and  C_11 
REMARK    4  A    between atoms: C_2  and  C_20 
REMARK    5  A    between atoms: N_3  and  C_14 
REMARK    6  A    between atoms: Se_5  and  C_11 
REMARK    7  A    between atoms: N_6  and  C_20 
REMARK       I    between atoms: N_6  and  C_7 
REMARK    8  A    between atoms: C_7  and  C_14 
REMARK    9  A    between atoms: C_13  and  C_14 
REMARK   10  A    between atoms: C_19  and  C_20 
ROOT
HETATM    1  N           1     -21.879  -8.971  -1.575  0.00  0.00    -0.345 N 
HETATM    2  C           1     -21.691  -7.732  -2.124  0.00  0.00     0.249 C 
HETATM    3  O           1     -21.973  -6.741  -1.493  0.00  0.00    -0.271 OA
HETATM    4  H           1     -21.642  -9.800  -2.104  0.00  0.00     0.163 HD
ENDROOT
BRANCH   2   5
HETATM    5  C           1     -21.130  -7.603  -3.520  0.00  0.00     0.275 C 
BRANCH   5   6
HETATM    6  N           1     -21.640  -8.729  -4.369  0.00  0.00    -0.066 N 
HETATM    7  H           1     -22.223  -9.371  -3.786  0.00  0.00     0.275 HD
HETATM    8  H           1     -22.221  -8.341  -5.147  0.00  0.00     0.275 HD
HETATM    9  H           1     -20.832  -9.258  -4.769  0.00  0.00     0.275 HD
ENDBRANCH   5   6
BRANCH   5  10
HETATM   10  C           1     -21.567  -6.275  -4.122  0.00  0.00     0.053 C 
BRANCH  10  11
HETATM   11  C           1     -21.217  -6.248  -5.604  0.00  0.00     0.076 C 
BRANCH  11  12
HETATM   12  S           1     -20.138  -4.830  -5.948  0.00  0.00    -0.173 SA
HETATM   13  C           1     -21.275  -3.986  -7.083  0.00  0.00     0.089 C 
ENDBRANCH  11  12
ENDBRANCH  10  11
ENDBRANCH   5  10
ENDBRANCH   2   5
BRANCH   1  14
HETATM   14  C           1     -22.418  -9.095  -0.234  0.00  0.00     0.185 C 
BRANCH  14  15
HETATM   15  C           1     -23.416 -10.244  -0.193  0.00  0.00     0.036 C 
BRANCH  15  16
HETATM   16  C           1     -23.312 -11.056  -1.478  0.00  0.00     0.003 C 
BRANCH  16  17
HETATM   17 Se           1     -23.703 -12.927  -1.099  0.00  0.00     0.000 Se
HETATM   18  C           1     -23.270 -12.803   0.797  0.00  0.00     0.000 C 
ENDBRANCH  16  17
ENDBRANCH  15  16
ENDBRANCH  14  15
BRANCH  14  19
HETATM   19  C           1     -21.294  -9.369   0.735  0.00  0.00     0.196 C 
HETATM   20  O           1     -20.992  -8.519   1.600  0.00  0.00    -0.646 OA
HETATM   21  O           1     -20.665 -10.448   0.673  0.00  0.00    -0.646 OA
ENDBRANCH  14  19
ENDBRANCH   1  14
TORSDOF 10
ENDMDL
