MODEL 1
REMARK VINA RESULT:      -6.8      0.000      0.000
REMARK  10 active torsions:
REMARK  status: ('A' for Active; 'I' for Inactive)
REMARK    1  A    between atoms: N_7  and  C_10 
REMARK    2  A    between atoms: Se_8  and  C_9 
REMARK    3  A    between atoms: C_9  and  C_10 
REMARK    4  A    between atoms: C_10  and  C_11 
REMARK       I    between atoms: C_11  and  N_12 
REMARK    5  A    between atoms: N_12  and  C_16 
REMARK    6  A    between atoms: C_15  and  C_16 
REMARK    7  A    between atoms: C_16  and  C_17 
REMARK    8  A    between atoms: C_17  and  C_18 
REMARK    9  A    between atoms: C_18  and  C_19 
REMARK   10  A    between atoms: C_19  and  N_20 
REMARK       I    between atoms: N_20  and  C_22 
REMARK       I    between atoms: N_21  and  C_22 
ROOT
HETATM    1  C           1     -34.921  -2.427 -12.057  0.00  0.00     0.185 C 
ENDROOT
BRANCH   1   2
HETATM    2  N           1     -34.849  -1.420 -13.097  0.00  0.00    -0.345 N 
HETATM    3  C           1     -35.973  -0.725 -13.455  0.00  0.00     0.249 C 
HETATM    4  O           1     -37.024  -0.950 -12.904  0.00  0.00    -0.271 OA
HETATM    5  H           1     -33.969  -1.232 -13.559  0.00  0.00     0.163 HD
BRANCH   3   6
HETATM    6  C           1     -35.899   0.322 -14.539  0.00  0.00     0.274 C 
BRANCH   6   7
HETATM    7  N           1     -34.464   0.580 -14.889  0.00  0.00    -0.067 N 
HETATM    8  H           1     -33.922  -0.311 -14.819  0.00  0.00     0.275 HD
HETATM    9  H           1     -34.403   0.948 -15.865  0.00  0.00     0.275 HD
HETATM   10  H           1     -34.064   1.283 -14.226  0.00  0.00     0.275 HD
ENDBRANCH   6   7
BRANCH   6  11
HETATM   11  C           1     -36.642  -0.170 -15.774  0.00  0.00     0.045 C 
BRANCH  11  12
HETATM   12 Se           1     -35.527  -1.445 -16.738  0.00  0.00     0.000 Se
HETATM   13  H           1     -36.329  -1.390 -17.972  0.00  0.00     0.000 HD
ENDBRANCH  11  12
ENDBRANCH   6  11
ENDBRANCH   3   6
ENDBRANCH   1   2
BRANCH   1  14
HETATM   14  C           1     -34.501  -1.820 -10.740  0.00  0.00     0.196 C 
HETATM   15  O           1     -33.298  -1.840 -10.399  0.00  0.00    -0.646 OA
HETATM   16  O           1     -35.354  -1.298  -9.992  0.00  0.00    -0.646 OA
ENDBRANCH   1  14
BRANCH   1  17
HETATM   17  C           1     -33.991  -3.582 -12.404  0.00  0.00     0.038 C 
BRANCH  17  18
HETATM   18  C           1     -34.715  -4.903 -12.179  0.00  0.00     0.023 C 
BRANCH  18  19
HETATM   19  C           1     -34.405  -5.421 -10.779  0.00  0.00     0.138 C 
BRANCH  19  20
HETATM   20  N           1     -33.732  -6.724 -10.876  0.00  0.00    -0.227 N 
HETATM   21  H           1     -32.880  -6.832 -11.479  0.00  0.00     0.177 HD
HETATM   22  C           1     -34.180  -7.717 -10.231  0.00  0.00     0.665 C 
HETATM   23  N           1     -35.208  -7.587  -9.502  0.00  0.00    -0.235 N 
HETATM   24  N           1     -33.586  -8.870 -10.316  0.00  0.00    -0.235 N 
HETATM   25  H           1     -35.580  -8.411  -8.968  0.00  0.00     0.174 HD
HETATM   26  H           1     -35.689  -6.656  -9.434  0.00  0.00     0.174 HD
HETATM   27  H           1     -33.956  -9.689  -9.784  0.00  0.00     0.174 HD
HETATM   28  H           1     -32.738  -8.976 -10.917  0.00  0.00     0.174 HD
ENDBRANCH  19  20
ENDBRANCH  18  19
ENDBRANCH  17  18
ENDBRANCH   1  17
TORSDOF 10
ENDMDL
MODEL 2
REMARK VINA RESULT:      -6.8      9.496     10.887
REMARK  10 active torsions:
REMARK  status: ('A' for Active; 'I' for Inactive)
REMARK    1  A    between atoms: N_7  and  C_10 
REMARK    2  A    between atoms: Se_8  and  C_9 
REMARK    3  A    between atoms: C_9  and  C_10 
REMARK    4  A    between atoms: C_10  and  C_11 
REMARK       I    between atoms: C_11  and  N_12 
REMARK    5  A    between atoms: N_12  and  C_16 
REMARK    6  A    between atoms: C_15  and  C_16 
REMARK    7  A    between atoms: C_16  and  C_17 
REMARK    8  A    between atoms: C_17  and  C_18 
REMARK    9  A    between atoms: C_18  and  C_19 
REMARK   10  A    between atoms: C_19  and  N_20 
REMARK       I    between atoms: N_20  and  C_22 
REMARK       I    between atoms: N_21  and  C_22 
ROOT
HETATM    1  C           1     -28.633  -6.388 -18.309  0.00  0.00     0.185 C 
ENDROOT
BRANCH   1   2
HETATM    2  N           1     -27.514  -6.732 -19.165  0.00  0.00    -0.345 N 
HETATM    3  C           1     -26.232  -6.536 -18.726  0.00  0.00     0.249 C 
HETATM    4  O           1     -26.033  -6.077 -17.626  0.00  0.00    -0.271 OA
HETATM    5  H           1     -27.680  -7.116 -20.086  0.00  0.00     0.163 HD
BRANCH   3   6
HETATM    6  C           1     -25.066  -6.893 -19.615  0.00  0.00     0.274 C 
BRANCH   6   7
HETATM    7  N           1     -24.052  -7.665 -18.825  0.00  0.00    -0.067 N 
HETATM    8  H           1     -23.169  -7.110 -18.753  0.00  0.00     0.275 HD
HETATM    9  H           1     -24.425  -7.851 -17.867  0.00  0.00     0.275 HD
HETATM   10  H           1     -23.855  -8.573 -19.304  0.00  0.00     0.275 HD
ENDBRANCH   6   7
BRANCH   6  11
HETATM   11  C           1     -25.557  -7.743 -20.779  0.00  0.00     0.045 C 
BRANCH  11  12
HETATM   12 Se           1     -24.175  -7.827 -22.151  0.00  0.00     0.000 Se
HETATM   13  H           1     -24.282  -9.283 -22.335  0.00  0.00     0.000 HD
ENDBRANCH  11  12
ENDBRANCH   6  11
ENDBRANCH   3   6
ENDBRANCH   1   2
BRANCH   1  14
HETATM   14  C           1     -29.682  -7.469 -18.396  0.00  0.00     0.196 C 
HETATM   15  O           1     -30.732  -7.375 -17.723  0.00  0.00    -0.646 OA
HETATM   16  O           1     -29.502  -8.457 -19.139  0.00  0.00    -0.646 OA
ENDBRANCH   1  14
BRANCH   1  17
HETATM   17  C           1     -29.229  -5.062 -18.764  0.00  0.00     0.038 C 
BRANCH  17  18
HETATM   18  C           1     -29.151  -4.052 -17.626  0.00  0.00     0.023 C 
BRANCH  18  19
HETATM   19  C           1     -30.528  -3.443 -17.392  0.00  0.00     0.138 C 
BRANCH  19  20
HETATM   20  N           1     -31.435  -4.469 -16.857  0.00  0.00    -0.227 N 
HETATM   21  H           1     -31.044  -5.357 -16.456  0.00  0.00     0.177 HD
HETATM   22  C           1     -32.686  -4.281 -16.880  0.00  0.00     0.665 C 
HETATM   23  N           1     -33.158  -3.210 -17.364  0.00  0.00    -0.235 N 
HETATM   24  N           1     -33.488  -5.188 -16.406  0.00  0.00    -0.235 N 
HETATM   25  H           1     -34.196  -3.055 -17.382  0.00  0.00     0.174 HD
HETATM   26  H           1     -32.510  -2.477 -17.746  0.00  0.00     0.174 HD
HETATM   27  H           1     -34.521  -5.033 -16.425  0.00  0.00     0.174 HD
HETATM   28  H           1     -33.099  -6.072 -16.007  0.00  0.00     0.174 HD
ENDBRANCH  19  20
ENDBRANCH  18  19
ENDBRANCH  17  18
ENDBRANCH   1  17
TORSDOF 10
ENDMDL
MODEL 3
REMARK VINA RESULT:      -6.7      9.913     11.263
REMARK  10 active torsions:
REMARK  status: ('A' for Active; 'I' for Inactive)
REMARK    1  A    between atoms: N_7  and  C_10 
REMARK    2  A    between atoms: Se_8  and  C_9 
REMARK    3  A    between atoms: C_9  and  C_10 
REMARK    4  A    between atoms: C_10  and  C_11 
REMARK       I    between atoms: C_11  and  N_12 
REMARK    5  A    between atoms: N_12  and  C_16 
REMARK    6  A    between atoms: C_15  and  C_16 
REMARK    7  A    between atoms: C_16  and  C_17 
REMARK    8  A    between atoms: C_17  and  C_18 
REMARK    9  A    between atoms: C_18  and  C_19 
REMARK   10  A    between atoms: C_19  and  N_20 
REMARK       I    between atoms: N_20  and  C_22 
REMARK       I    between atoms: N_21  and  C_22 
ROOT
HETATM    1  C           1     -26.438  -5.967 -17.016  0.00  0.00     0.185 C 
ENDROOT
BRANCH   1   2
HETATM    2  N           1     -26.475  -6.668 -18.284  0.00  0.00    -0.345 N 
HETATM    3  C           1     -25.318  -6.871 -18.987  0.00  0.00     0.249 C 
HETATM    4  O           1     -24.267  -6.467 -18.552  0.00  0.00    -0.271 OA
HETATM    5  H           1     -27.356  -7.007 -18.650  0.00  0.00     0.163 HD
BRANCH   3   6
HETATM    6  C           1     -25.356  -7.601 -20.308  0.00  0.00     0.274 C 
BRANCH   6   7
HETATM    7  N           1     -26.778  -7.920 -20.662  0.00  0.00    -0.067 N 
HETATM    8  H           1     -27.382  -7.089 -20.469  0.00  0.00     0.275 HD
HETATM    9  H           1     -26.838  -8.166 -21.676  0.00  0.00     0.275 HD
HETATM   10  H           1     -27.106  -8.730 -20.088  0.00  0.00     0.275 HD
ENDBRANCH   6   7
BRANCH   6  11
HETATM   11  C           1     -24.748  -6.721 -21.392  0.00  0.00     0.045 C 
BRANCH  11  12
HETATM   12 Se           1     -23.739  -7.829 -22.638  0.00  0.00     0.000 Se
HETATM   13  H           1     -24.841  -8.777 -22.869  0.00  0.00     0.000 HD
ENDBRANCH  11  12
ENDBRANCH   6  11
ENDBRANCH   3   6
ENDBRANCH   1   2
BRANCH   1  14
HETATM   14  C           1     -26.394  -6.969 -15.888  0.00  0.00     0.196 C 
HETATM   15  O           1     -25.293  -7.390 -15.470  0.00  0.00    -0.646 OA
HETATM   16  O           1     -27.456  -7.379 -15.374  0.00  0.00    -0.646 OA
ENDBRANCH   1  14
BRANCH   1  17
HETATM   17  C           1     -27.684  -5.101 -16.879  0.00  0.00     0.038 C 
BRANCH  17  18
HETATM   18  C           1     -28.556  -5.265 -18.116  0.00  0.00     0.023 C 
BRANCH  18  19
HETATM   19  C           1     -29.728  -4.293 -18.044  0.00  0.00     0.138 C 
BRANCH  19  20
HETATM   20  N           1     -30.711  -4.780 -17.066  0.00  0.00    -0.227 N 
HETATM   21  H           1     -30.504  -5.637 -16.497  0.00  0.00     0.177 HD
HETATM   22  C           1     -31.807  -4.166 -16.911  0.00  0.00     0.665 C 
HETATM   23  N           1     -32.056  -3.132 -17.598  0.00  0.00    -0.235 N 
HETATM   24  N           1     -32.676  -4.597 -16.046  0.00  0.00    -0.235 N 
HETATM   25  H           1     -32.965  -2.623 -17.469  0.00  0.00     0.174 HD
HETATM   26  H           1     -31.354  -2.784 -18.296  0.00  0.00     0.174 HD
HETATM   27  H           1     -33.581  -4.090 -15.918  0.00  0.00     0.174 HD
HETATM   28  H           1     -32.470  -5.450 -15.479  0.00  0.00     0.174 HD
ENDBRANCH  19  20
ENDBRANCH  18  19
ENDBRANCH  17  18
ENDBRANCH   1  17
TORSDOF 10
ENDMDL
MODEL 4
REMARK VINA RESULT:      -6.3      1.807      2.628
REMARK  10 active torsions:
REMARK  status: ('A' for Active; 'I' for Inactive)
REMARK    1  A    between atoms: N_7  and  C_10 
REMARK    2  A    between atoms: Se_8  and  C_9 
REMARK    3  A    between atoms: C_9  and  C_10 
REMARK    4  A    between atoms: C_10  and  C_11 
REMARK       I    between atoms: C_11  and  N_12 
REMARK    5  A    between atoms: N_12  and  C_16 
REMARK    6  A    between atoms: C_15  and  C_16 
REMARK    7  A    between atoms: C_16  and  C_17 
REMARK    8  A    between atoms: C_17  and  C_18 
REMARK    9  A    between atoms: C_18  and  C_19 
REMARK   10  A    between atoms: C_19  and  N_20 
REMARK       I    between atoms: N_20  and  C_22 
REMARK       I    between atoms: N_21  and  C_22 
ROOT
HETATM    1  C           1     -36.672  -0.834 -11.132  0.00  0.00     0.185 C 
ENDROOT
BRANCH   1   2
HETATM    2  N           1     -36.109  -0.139 -12.273  0.00  0.00    -0.345 N 
HETATM    3  C           1     -36.769  -0.146 -13.472  0.00  0.00     0.249 C 
HETATM    4  O           1     -37.820  -0.731 -13.581  0.00  0.00    -0.271 OA
HETATM    5  H           1     -35.229   0.351 -12.183  0.00  0.00     0.163 HD
BRANCH   3   6
HETATM    6  C           1     -36.184   0.577 -14.661  0.00  0.00     0.274 C 
BRANCH   6   7
HETATM    7  N           1     -34.692   0.426 -14.652  0.00  0.00    -0.067 N 
HETATM    8  H           1     -34.392  -0.033 -13.763  0.00  0.00     0.275 HD
HETATM    9  H           1     -34.396  -0.162 -15.464  0.00  0.00     0.275 HD
HETATM   10  H           1     -34.246   1.369 -14.725  0.00  0.00     0.275 HD
ENDBRANCH   6   7
BRANCH   6  11
HETATM   11  C           1     -36.747  -0.016 -15.945  0.00  0.00     0.045 C 
BRANCH  11  12
HETATM   12 Se           1     -35.518  -1.362 -16.634  0.00  0.00     0.000 Se
HETATM   13  H           1     -35.735  -2.298 -15.519  0.00  0.00     0.000 HD
ENDBRANCH  11  12
ENDBRANCH   6  11
ENDBRANCH   3   6
ENDBRANCH   1   2
BRANCH   1  14
HETATM   14  C           1     -36.907   0.148 -10.011  0.00  0.00     0.196 C 
HETATM   15  O           1     -36.194   0.106  -8.985  0.00  0.00    -0.646 OA
HETATM   16  O           1     -37.814   1.002 -10.108  0.00  0.00    -0.646 OA
ENDBRANCH   1  14
BRANCH   1  17
HETATM   17  C           1     -35.703  -1.914 -10.669  0.00  0.00     0.038 C 
BRANCH  17  18
HETATM   18  C           1     -34.410  -1.815 -11.466  0.00  0.00     0.023 C 
BRANCH  18  19
HETATM   19  C           1     -33.340  -2.679 -10.810  0.00  0.00     0.138 C 
BRANCH  19  20
HETATM   20  N           1     -33.832  -4.058 -10.683  0.00  0.00    -0.227 N 
HETATM   21  H           1     -34.612  -4.278 -10.016  0.00  0.00     0.177 HD
HETATM   22  C           1     -33.316  -4.981 -11.379  0.00  0.00     0.665 C 
HETATM   23  N           1     -32.376  -4.717 -12.185  0.00  0.00    -0.235 N 
HETATM   24  N           1     -33.752  -6.201 -11.267  0.00  0.00    -0.235 N 
HETATM   25  H           1     -31.948  -5.482 -12.762  0.00  0.00     0.174 HD
HETATM   26  H           1     -32.024  -3.731 -12.275  0.00  0.00     0.174 HD
HETATM   27  H           1     -33.326  -6.962 -11.841  0.00  0.00     0.174 HD
HETATM   28  H           1     -34.528  -6.419 -10.602  0.00  0.00     0.174 HD
ENDBRANCH  19  20
ENDBRANCH  18  19
ENDBRANCH  17  18
ENDBRANCH   1  17
TORSDOF 10
ENDMDL
MODEL 5
REMARK VINA RESULT:      -6.2      9.348     10.584
REMARK  10 active torsions:
REMARK  status: ('A' for Active; 'I' for Inactive)
REMARK    1  A    between atoms: N_7  and  C_10 
REMARK    2  A    between atoms: Se_8  and  C_9 
REMARK    3  A    between atoms: C_9  and  C_10 
REMARK    4  A    between atoms: C_10  and  C_11 
REMARK       I    between atoms: C_11  and  N_12 
REMARK    5  A    between atoms: N_12  and  C_16 
REMARK    6  A    between atoms: C_15  and  C_16 
REMARK    7  A    between atoms: C_16  and  C_17 
REMARK    8  A    between atoms: C_17  and  C_18 
REMARK    9  A    between atoms: C_18  and  C_19 
REMARK   10  A    between atoms: C_19  and  N_20 
REMARK       I    between atoms: N_20  and  C_22 
REMARK       I    between atoms: N_21  and  C_22 
ROOT
HETATM    1  C           1     -28.036  -5.942 -17.391  0.00  0.00     0.185 C 
ENDROOT
BRANCH   1   2
HETATM    2  N           1     -26.696  -6.297 -17.814  0.00  0.00    -0.345 N 
HETATM    3  C           1     -26.422  -6.467 -19.145  0.00  0.00     0.249 C 
HETATM    4  O           1     -27.296  -6.322 -19.966  0.00  0.00    -0.271 OA
HETATM    5  H           1     -25.964  -6.420 -17.127  0.00  0.00     0.163 HD
BRANCH   3   6
HETATM    6  C           1     -25.027  -6.838 -19.586  0.00  0.00     0.274 C 
BRANCH   6   7
HETATM    7  N           1     -24.302  -7.497 -18.451  0.00  0.00    -0.067 N 
HETATM    8  H           1     -24.823  -8.353 -18.154  0.00  0.00     0.275 HD
HETATM    9  H           1     -23.340  -7.766 -18.761  0.00  0.00     0.275 HD
HETATM   10  H           1     -24.236  -6.832 -17.647  0.00  0.00     0.275 HD
ENDBRANCH   6   7
BRANCH   6  11
HETATM   11  C           1     -25.105  -7.798 -20.765  0.00  0.00     0.045 C 
BRANCH  11  12
HETATM   12 Se           1     -23.304  -8.279 -21.333  0.00  0.00     0.000 Se
HETATM   13  H           1     -22.722  -8.160 -19.986  0.00  0.00     0.000 HD
ENDBRANCH  11  12
ENDBRANCH   6  11
ENDBRANCH   3   6
ENDBRANCH   1   2
BRANCH   1  14
HETATM   14  C           1     -27.970  -4.772 -16.440  0.00  0.00     0.196 C 
HETATM   15  O           1     -27.927  -4.971 -15.207  0.00  0.00    -0.646 OA
HETATM   16  O           1     -27.957  -3.604 -16.886  0.00  0.00    -0.646 OA
ENDBRANCH   1  14
BRANCH   1  17
HETATM   17  C           1     -28.679  -7.132 -16.689  0.00  0.00     0.038 C 
BRANCH  17  18
HETATM   18  C           1     -29.933  -7.551 -17.443  0.00  0.00     0.023 C 
BRANCH  18  19
HETATM   19  C           1     -30.669  -6.311 -17.937  0.00  0.00     0.138 C 
BRANCH  19  20
HETATM   20  N           1     -31.691  -5.923 -16.954  0.00  0.00    -0.227 N 
HETATM   21  H           1     -32.252  -6.660 -16.462  0.00  0.00     0.177 HD
HETATM   22  C           1     -31.895  -4.699 -16.703  0.00  0.00     0.665 C 
HETATM   23  N           1     -31.218  -3.809 -17.297  0.00  0.00    -0.235 N 
HETATM   24  N           1     -32.799  -4.356 -15.834  0.00  0.00    -0.235 N 
HETATM   25  H           1     -31.388  -2.794 -17.089  0.00  0.00     0.174 HD
HETATM   26  H           1     -30.488  -4.086 -17.999  0.00  0.00     0.174 HD
HETATM   27  H           1     -32.967  -3.346 -15.627  0.00  0.00     0.174 HD
HETATM   28  H           1     -33.358  -5.091 -15.344  0.00  0.00     0.174 HD
ENDBRANCH  19  20
ENDBRANCH  18  19
ENDBRANCH  17  18
ENDBRANCH   1  17
TORSDOF 10
ENDMDL
MODEL 6
REMARK VINA RESULT:      -6.1      8.581     10.286
REMARK  10 active torsions:
REMARK  status: ('A' for Active; 'I' for Inactive)
REMARK    1  A    between atoms: N_7  and  C_10 
REMARK    2  A    between atoms: Se_8  and  C_9 
REMARK    3  A    between atoms: C_9  and  C_10 
REMARK    4  A    between atoms: C_10  and  C_11 
REMARK       I    between atoms: C_11  and  N_12 
REMARK    5  A    between atoms: N_12  and  C_16 
REMARK    6  A    between atoms: C_15  and  C_16 
REMARK    7  A    between atoms: C_16  and  C_17 
REMARK    8  A    between atoms: C_17  and  C_18 
REMARK    9  A    between atoms: C_18  and  C_19 
REMARK   10  A    between atoms: C_19  and  N_20 
REMARK       I    between atoms: N_20  and  C_22 
REMARK       I    between atoms: N_21  and  C_22 
ROOT
HETATM    1  C           1     -29.077  -7.217 -17.185  0.00  0.00     0.185 C 
ENDROOT
BRANCH   1   2
HETATM    2  N           1     -27.720  -6.714 -17.270  0.00  0.00    -0.345 N 
HETATM    3  C           1     -26.843  -6.937 -16.243  0.00  0.00     0.249 C 
HETATM    4  O           1     -27.199  -7.551 -15.266  0.00  0.00    -0.271 OA
HETATM    5  H           1     -27.421  -6.199 -18.088  0.00  0.00     0.163 HD
BRANCH   3   6
HETATM    6  C           1     -25.430  -6.414 -16.330  0.00  0.00     0.274 C 
BRANCH   6   7
HETATM    7  N           1     -24.895  -6.183 -14.948  0.00  0.00    -0.067 N 
HETATM    8  H           1     -24.461  -7.064 -14.590  0.00  0.00     0.275 HD
HETATM    9  H           1     -24.176  -5.426 -14.975  0.00  0.00     0.275 HD
HETATM   10  H           1     -25.678  -5.898 -14.315  0.00  0.00     0.275 HD
ENDBRANCH   6   7
BRANCH   6  11
HETATM   11  C           1     -24.555  -7.431 -17.050  0.00  0.00     0.045 C 
BRANCH  11  12
HETATM   12 Se           1     -24.461  -6.984 -18.944  0.00  0.00     0.000 Se
HETATM   13  H           1     -25.904  -7.155 -19.176  0.00  0.00     0.000 HD
ENDBRANCH  11  12
ENDBRANCH   6  11
ENDBRANCH   3   6
ENDBRANCH   1   2
BRANCH   1  14
HETATM   14  C           1     -29.493  -7.772 -18.525  0.00  0.00     0.196 C 
HETATM   15  O           1     -28.663  -7.837 -19.459  0.00  0.00    -0.646 OA
HETATM   16  O           1     -30.665  -8.167 -18.702  0.00  0.00    -0.646 OA
ENDBRANCH   1  14
BRANCH   1  17
HETATM   17  C           1     -30.014  -6.082 -16.792  0.00  0.00     0.038 C 
BRANCH  17  18
HETATM   18  C           1     -29.810  -4.903 -17.735  0.00  0.00     0.023 C 
BRANCH  18  19
HETATM   19  C           1     -30.847  -3.828 -17.438  0.00  0.00     0.138 C 
BRANCH  19  20
HETATM   20  N           1     -31.864  -4.366 -16.523  0.00  0.00    -0.227 N 
HETATM   21  H           1     -31.593  -5.065 -15.789  0.00  0.00     0.177 HD
HETATM   22  C           1     -33.068  -3.987 -16.621  0.00  0.00     0.665 C 
HETATM   23  N           1     -33.396  -3.144 -17.507  0.00  0.00    -0.235 N 
HETATM   24  N           1     -33.968  -4.464 -15.812  0.00  0.00    -0.235 N 
HETATM   25  H           1     -34.395  -2.830 -17.588  0.00  0.00     0.174 HD
HETATM   26  H           1     -32.670  -2.759 -18.160  0.00  0.00     0.174 HD
HETATM   27  H           1     -34.961  -4.151 -15.893  0.00  0.00     0.174 HD
HETATM   28  H           1     -33.696  -5.159 -15.081  0.00  0.00     0.174 HD
ENDBRANCH  19  20
ENDBRANCH  18  19
ENDBRANCH  17  18
ENDBRANCH   1  17
TORSDOF 10
ENDMDL
MODEL 7
REMARK VINA RESULT:      -6.0     14.143     16.213
REMARK  10 active torsions:
REMARK  status: ('A' for Active; 'I' for Inactive)
REMARK    1  A    between atoms: N_7  and  C_10 
REMARK    2  A    between atoms: Se_8  and  C_9 
REMARK    3  A    between atoms: C_9  and  C_10 
REMARK    4  A    between atoms: C_10  and  C_11 
REMARK       I    between atoms: C_11  and  N_12 
REMARK    5  A    between atoms: N_12  and  C_16 
REMARK    6  A    between atoms: C_15  and  C_16 
REMARK    7  A    between atoms: C_16  and  C_17 
REMARK    8  A    between atoms: C_17  and  C_18 
REMARK    9  A    between atoms: C_18  and  C_19 
REMARK   10  A    between atoms: C_19  and  N_20 
REMARK       I    between atoms: N_20  and  C_22 
REMARK       I    between atoms: N_21  and  C_22 
ROOT
HETATM    1  C           1     -21.344  -5.410  -6.737  0.00  0.00     0.185 C 
ENDROOT
BRANCH   1   2
HETATM    2  N           1     -21.081  -5.363  -5.312  0.00  0.00    -0.345 N 
HETATM    3  C           1     -21.578  -6.339  -4.492  0.00  0.00     0.249 C 
HETATM    4  O           1     -22.236  -7.240  -4.954  0.00  0.00    -0.271 OA
HETATM    5  H           1     -20.530  -4.608  -4.925  0.00  0.00     0.163 HD
BRANCH   3   6
HETATM    6  C           1     -21.304  -6.289  -3.008  0.00  0.00     0.274 C 
BRANCH   6   7
HETATM    7  N           1     -22.550  -5.875  -2.283  0.00  0.00    -0.067 N 
HETATM    8  H           1     -22.921  -4.993  -2.703  0.00  0.00     0.275 HD
HETATM    9  H           1     -23.269  -6.629  -2.367  0.00  0.00     0.275 HD
HETATM   10  H           1     -22.329  -5.715  -1.274  0.00  0.00     0.275 HD
ENDBRANCH   6   7
BRANCH   6  11
HETATM   11  C           1     -20.870  -7.667  -2.525  0.00  0.00     0.045 C 
BRANCH  11  12
HETATM   12 Se           1     -21.805  -8.100  -0.871  0.00  0.00     0.000 Se
HETATM   13  H           1     -20.843  -7.398  -0.006  0.00  0.00     0.000 HD
ENDBRANCH  11  12
ENDBRANCH   6  11
ENDBRANCH   3   6
ENDBRANCH   1   2
BRANCH   1  14
HETATM   14  C           1     -20.074  -5.760  -7.472  0.00  0.00     0.196 C 
HETATM   15  O           1     -19.658  -5.018  -8.389  0.00  0.00    -0.646 OA
HETATM   16  O           1     -19.437  -6.791  -7.165  0.00  0.00    -0.646 OA
ENDBRANCH   1  14
BRANCH   1  17
HETATM   17  C           1     -21.846  -4.051  -7.206  0.00  0.00     0.038 C 
BRANCH  17  18
HETATM   18  C           1     -23.175  -4.220  -7.930  0.00  0.00     0.023 C 
BRANCH  18  19
HETATM   19  C           1     -22.917  -4.558  -9.394  0.00  0.00     0.138 C 
BRANCH  19  20
HETATM   20  N           1     -21.866  -3.676  -9.923  0.00  0.00    -0.227 N 
HETATM   21  H           1     -21.396  -2.982  -9.292  0.00  0.00     0.177 HD
HETATM   22  C           1     -21.529  -3.754 -11.141  0.00  0.00     0.665 C 
HETATM   23  N           1     -22.097  -4.591 -11.903  0.00  0.00    -0.235 N 
HETATM   24  N           1     -20.601  -2.974 -11.609  0.00  0.00    -0.235 N 
HETATM   25  H           1     -21.817  -4.655 -12.913  0.00  0.00     0.174 HD
HETATM   26  H           1     -22.847  -5.221 -11.525  0.00  0.00     0.174 HD
HETATM   27  H           1     -20.323  -3.038 -12.614  0.00  0.00     0.174 HD
HETATM   28  H           1     -20.133  -2.283 -10.980  0.00  0.00     0.174 HD
ENDBRANCH  19  20
ENDBRANCH  18  19
ENDBRANCH  17  18
ENDBRANCH   1  17
TORSDOF 10
ENDMDL
MODEL 8
REMARK VINA RESULT:      -5.7      3.201      4.251
REMARK  10 active torsions:
REMARK  status: ('A' for Active; 'I' for Inactive)
REMARK    1  A    between atoms: N_7  and  C_10 
REMARK    2  A    between atoms: Se_8  and  C_9 
REMARK    3  A    between atoms: C_9  and  C_10 
REMARK    4  A    between atoms: C_10  and  C_11 
REMARK       I    between atoms: C_11  and  N_12 
REMARK    5  A    between atoms: N_12  and  C_16 
REMARK    6  A    between atoms: C_15  and  C_16 
REMARK    7  A    between atoms: C_16  and  C_17 
REMARK    8  A    between atoms: C_17  and  C_18 
REMARK    9  A    between atoms: C_18  and  C_19 
REMARK   10  A    between atoms: C_19  and  N_20 
REMARK       I    between atoms: N_20  and  C_22 
REMARK       I    between atoms: N_21  and  C_22 
ROOT
HETATM    1  C           1     -34.630  -2.921 -12.517  0.00  0.00     0.185 C 
ENDROOT
BRANCH   1   2
HETATM    2  N           1     -34.664  -1.669 -13.247  0.00  0.00    -0.345 N 
HETATM    3  C           1     -35.790  -0.892 -13.220  0.00  0.00     0.249 C 
HETATM    4  O           1     -36.757  -1.248 -12.589  0.00  0.00    -0.271 OA
HETATM    5  H           1     -33.855  -1.370 -13.776  0.00  0.00     0.163 HD
BRANCH   3   6
HETATM    6  C           1     -35.826   0.412 -13.981  0.00  0.00     0.274 C 
BRANCH   6   7
HETATM    7  N           1     -34.479   0.674 -14.586  0.00  0.00    -0.067 N 
HETATM    8  H           1     -34.488   1.602 -15.068  0.00  0.00     0.275 HD
HETATM    9  H           1     -33.754   0.680 -13.834  0.00  0.00     0.275 HD
HETATM   10  H           1     -34.257  -0.077 -15.279  0.00  0.00     0.275 HD
ENDBRANCH   6   7
BRANCH   6  11
HETATM   11  C           1     -36.872   0.328 -15.084  0.00  0.00     0.045 C 
BRANCH  11  12
HETATM   12 Se           1     -36.202  -0.793 -16.531  0.00  0.00     0.000 Se
HETATM   13  H           1     -34.826  -0.843 -16.011  0.00  0.00     0.000 HD
ENDBRANCH  11  12
ENDBRANCH   6  11
ENDBRANCH   3   6
ENDBRANCH   1   2
BRANCH   1  14
HETATM   14  C           1     -33.722  -2.781 -11.320  0.00  0.00     0.196 C 
HETATM   15  O           1     -33.150  -3.788 -10.849  0.00  0.00    -0.646 OA
HETATM   16  O           1     -33.542  -1.659 -10.800  0.00  0.00    -0.646 OA
ENDBRANCH   1  14
BRANCH   1  17
HETATM   17  C           1     -34.107  -4.024 -13.427  0.00  0.00     0.038 C 
BRANCH  17  18
HETATM   18  C           1     -34.480  -3.714 -14.870  0.00  0.00     0.023 C 
BRANCH  18  19
HETATM   19  C           1     -33.694  -4.624 -15.806  0.00  0.00     0.138 C 
BRANCH  19  20
HETATM   20  N           1     -32.972  -3.808 -16.792  0.00  0.00    -0.227 N 
HETATM   21  H           1     -33.463  -3.022 -17.284  0.00  0.00     0.177 HD
HETATM   22  C           1     -31.757  -4.054 -17.049  0.00  0.00     0.665 C 
HETATM   23  N           1     -31.164  -5.003 -16.456  0.00  0.00    -0.235 N 
HETATM   24  N           1     -31.118  -3.333 -17.921  0.00  0.00    -0.235 N 
HETATM   25  H           1     -30.156  -5.207 -16.669  0.00  0.00     0.174 HD
HETATM   26  H           1     -31.680  -5.586 -15.752  0.00  0.00     0.174 HD
HETATM   27  H           1     -30.115  -3.536 -18.133  0.00  0.00     0.174 HD
HETATM   28  H           1     -31.607  -2.550 -18.410  0.00  0.00     0.174 HD
ENDBRANCH  19  20
ENDBRANCH  18  19
ENDBRANCH  17  18
ENDBRANCH   1  17
TORSDOF 10
ENDMDL
MODEL 9
REMARK VINA RESULT:      -5.6     14.479     16.942
REMARK  10 active torsions:
REMARK  status: ('A' for Active; 'I' for Inactive)
REMARK    1  A    between atoms: N_7  and  C_10 
REMARK    2  A    between atoms: Se_8  and  C_9 
REMARK    3  A    between atoms: C_9  and  C_10 
REMARK    4  A    between atoms: C_10  and  C_11 
REMARK       I    between atoms: C_11  and  N_12 
REMARK    5  A    between atoms: N_12  and  C_16 
REMARK    6  A    between atoms: C_15  and  C_16 
REMARK    7  A    between atoms: C_16  and  C_17 
REMARK    8  A    between atoms: C_17  and  C_18 
REMARK    9  A    between atoms: C_18  and  C_19 
REMARK   10  A    between atoms: C_19  and  N_20 
REMARK       I    between atoms: N_20  and  C_22 
REMARK       I    between atoms: N_21  and  C_22 
ROOT
HETATM    1  C           1     -20.595  -6.775  -5.476  0.00  0.00     0.185 C 
ENDROOT
BRANCH   1   2
HETATM    2  N           1     -20.756  -8.199  -5.693  0.00  0.00    -0.345 N 
HETATM    3  C           1     -20.032  -9.091  -4.947  0.00  0.00     0.249 C 
HETATM    4  O           1     -19.260  -8.691  -4.108  0.00  0.00    -0.271 OA
HETATM    5  H           1     -21.402  -8.535  -6.395  0.00  0.00     0.163 HD
BRANCH   3   6
HETATM    6  C           1     -20.199 -10.574  -5.172  0.00  0.00     0.274 C 
BRANCH   6   7
HETATM    7  N           1     -21.094 -10.803  -6.353  0.00  0.00    -0.067 N 
HETATM    8  H           1     -21.707 -11.630  -6.172  0.00  0.00     0.275 HD
HETATM    9  H           1     -21.688  -9.957  -6.510  0.00  0.00     0.275 HD
HETATM   10  H           1     -20.510 -10.980  -7.203  0.00  0.00     0.275 HD
ENDBRANCH   6   7
BRANCH   6  11
HETATM   11  C           1     -18.838 -11.204  -5.435  0.00  0.00     0.045 C 
BRANCH  11  12
HETATM   12 Se           1     -18.888 -12.175  -7.124  0.00  0.00     0.000 Se
HETATM   13  H           1     -20.269 -11.778  -7.446  0.00  0.00     0.000 HD
ENDBRANCH  11  12
ENDBRANCH   6  11
ENDBRANCH   3   6
ENDBRANCH   1   2
BRANCH   1  14
HETATM   14  C           1     -21.787  -6.244  -4.719  0.00  0.00     0.196 C 
HETATM   15  O           1     -21.691  -5.999  -3.496  0.00  0.00    -0.646 OA
HETATM   16  O           1     -22.869  -6.048  -5.313  0.00  0.00    -0.646 OA
ENDBRANCH   1  14
BRANCH   1  17
HETATM   17  C           1     -20.489  -6.067  -6.821  0.00  0.00     0.038 C 
BRANCH  17  18
HETATM   18  C           1     -19.965  -4.652  -6.611  0.00  0.00     0.023 C 
BRANCH  18  19
HETATM   19  C           1     -20.664  -3.703  -7.577  0.00  0.00     0.138 C 
BRANCH  19  20
HETATM   20  N           1     -22.120  -3.843  -7.436  0.00  0.00    -0.227 N 
HETATM   21  H           1     -22.549  -3.928  -6.481  0.00  0.00     0.177 HD
HETATM   22  C           1     -22.858  -3.859  -8.464  0.00  0.00     0.665 C 
HETATM   23  N           1     -22.341  -3.756  -9.616  0.00  0.00    -0.235 N 
HETATM   24  N           1     -24.146  -3.983  -8.339  0.00  0.00    -0.235 N 
HETATM   25  H           1     -22.952  -3.770 -10.469  0.00  0.00     0.174 HD
HETATM   26  H           1     -21.300  -3.656  -9.717  0.00  0.00     0.174 HD
HETATM   27  H           1     -24.754  -3.997  -9.189  0.00  0.00     0.174 HD
HETATM   28  H           1     -24.572  -4.068  -7.389  0.00  0.00     0.174 HD
ENDBRANCH  19  20
ENDBRANCH  18  19
ENDBRANCH  17  18
ENDBRANCH   1  17
TORSDOF 10
ENDMDL
