MODEL 1
REMARK VINA RESULT:      -7.5      0.000      0.000
REMARK  8 active torsions:
REMARK  status: ('A' for Active; 'I' for Inactive)
REMARK    1  A    between atoms: C_10  and  C_11 
REMARK    2  A    between atoms: C_11  and  N_14 
REMARK       I    between atoms: N_13  and  C_21 
REMARK       I    between atoms: N_14  and  C_15 
REMARK    3  A    between atoms: C_15  and  C_16 
REMARK    4  A    between atoms: C_16  and  C_17 
REMARK    5  A    between atoms: C_16  and  N_26 
REMARK    6  A    between atoms: C_17  and  C_18 
REMARK    7  A    between atoms: C_18  and  C_19 
REMARK    8  A    between atoms: C_19  and  N_20 
REMARK       I    between atoms: N_20  and  C_21 
ROOT
HETATM    1  C           1     -34.185  -1.940 -11.841  0.00  0.00     0.274 C 
ENDROOT
BRANCH   1   2
HETATM    2  C           1     -35.234  -1.408 -12.787  0.00  0.00     0.249 C 
HETATM    3  N           1     -34.860  -0.864 -13.986  0.00  0.00    -0.345 N 
HETATM    4  H           1     -33.881  -0.818 -14.238  0.00  0.00     0.163 HD
HETATM    5  O           1     -36.402  -1.463 -12.487  0.00  0.00    -0.271 OA
BRANCH   3   6
HETATM    6  C           1     -35.867  -0.352 -14.896  0.00  0.00     0.181 C 
HETATM    7  C           1     -35.593   1.119 -15.181  0.00  0.00     0.043 C 
BRANCH   6   8
HETATM    8  C           1     -35.821  -1.133 -16.187  0.00  0.00     0.196 C 
HETATM    9  O           1     -35.046  -2.107 -16.300  0.00  0.00    -0.646 OA
HETATM   10  O           1     -36.556  -0.804 -17.143  0.00  0.00    -0.646 OA
ENDBRANCH   6   8
ENDBRANCH   3   6
ENDBRANCH   1   2
BRANCH   1  11
HETATM   11  C           1     -33.915  -3.406 -12.155  0.00  0.00     0.044 C 
BRANCH  11  12
HETATM   12  C           1     -33.705  -4.173 -10.856  0.00  0.00     0.023 C 
BRANCH  12  13
HETATM   13  C           1     -34.644  -5.372 -10.818  0.00  0.00     0.138 C 
BRANCH  13  14
HETATM   14  N           1     -33.861  -6.612 -10.917  0.00  0.00    -0.227 N 
HETATM   15  C           1     -34.207  -7.634 -10.255  0.00  0.00     0.665 C 
HETATM   16  N           1     -35.254  -7.586  -9.485  0.00  0.00    -0.235 N 
HETATM   17  N           1     -33.532  -8.701 -10.340  0.00  0.00    -0.235 N 
HETATM   18  H           1     -35.811  -6.705  -9.416  0.00  0.00     0.174 HD
HETATM   19  H           1     -35.539  -8.430  -8.938  0.00  0.00     0.174 HD
HETATM   20  H           1     -32.687  -8.741 -10.961  0.00  0.00     0.174 HD
HETATM   21  H           1     -33.819  -9.549  -9.790  0.00  0.00     0.174 HD
HETATM   22  H           1     -33.015  -6.650 -11.538  0.00  0.00     0.177 HD
ENDBRANCH  13  14
ENDBRANCH  12  13
ENDBRANCH  11  12
ENDBRANCH   1  11
BRANCH   1  23
HETATM   23  N           1     -34.675  -1.813 -10.429  0.00  0.00    -0.067 N 
HETATM   24  H           1     -35.059  -2.731 -10.111  0.00  0.00     0.275 HD
HETATM   25  H           1     -35.425  -1.087 -10.384  0.00  0.00     0.275 HD
HETATM   26  H           1     -33.881  -1.534  -9.810  0.00  0.00     0.275 HD
ENDBRANCH   1  23
TORSDOF 8
ENDMDL
MODEL 2
REMARK VINA RESULT:      -6.6      2.952      6.479
REMARK  8 active torsions:
REMARK  status: ('A' for Active; 'I' for Inactive)
REMARK    1  A    between atoms: C_10  and  C_11 
REMARK    2  A    between atoms: C_11  and  N_14 
REMARK       I    between atoms: N_13  and  C_21 
REMARK       I    between atoms: N_14  and  C_15 
REMARK    3  A    between atoms: C_15  and  C_16 
REMARK    4  A    between atoms: C_16  and  C_17 
REMARK    5  A    between atoms: C_16  and  N_26 
REMARK    6  A    between atoms: C_17  and  C_18 
REMARK    7  A    between atoms: C_18  and  C_19 
REMARK    8  A    between atoms: C_19  and  N_20 
REMARK       I    between atoms: N_20  and  C_21 
ROOT
HETATM    1  C           1     -36.345  -0.975 -10.978  0.00  0.00     0.274 C 
ENDROOT
BRANCH   1   2
HETATM    2  C           1     -35.170  -1.882 -10.699  0.00  0.00     0.249 C 
HETATM    3  N           1     -35.129  -3.136 -11.247  0.00  0.00    -0.345 N 
HETATM    4  H           1     -35.885  -3.455 -11.839  0.00  0.00     0.163 HD
HETATM    5  O           1     -34.267  -1.501  -9.994  0.00  0.00    -0.271 OA
BRANCH   3   6
HETATM    6  C           1     -34.001  -4.007 -10.980  0.00  0.00     0.181 C 
HETATM    7  C           1     -34.509  -5.380 -10.560  0.00  0.00     0.043 C 
BRANCH   6   8
HETATM    8  C           1     -33.161  -4.140 -12.227  0.00  0.00     0.196 C 
HETATM    9  O           1     -31.993  -4.578 -12.151  0.00  0.00    -0.646 OA
HETATM   10  O           1     -33.634  -3.811 -13.337  0.00  0.00    -0.646 OA
ENDBRANCH   6   8
ENDBRANCH   3   6
ENDBRANCH   1   2
BRANCH   1  11
HETATM   11  C           1     -36.320  -0.547 -12.439  0.00  0.00     0.044 C 
BRANCH  11  12
HETATM   12  C           1     -34.947   0.016 -12.781  0.00  0.00     0.023 C 
BRANCH  12  13
HETATM   13  C           1     -35.039   0.841 -14.058  0.00  0.00     0.138 C 
BRANCH  13  14
HETATM   14  N           1     -35.165  -0.058 -15.215  0.00  0.00    -0.227 N 
HETATM   15  C           1     -36.130   0.080 -16.021  0.00  0.00     0.665 C 
HETATM   16  N           1     -37.012   1.016 -15.826  0.00  0.00    -0.235 N 
HETATM   17  N           1     -36.238  -0.694 -17.017  0.00  0.00    -0.235 N 
HETATM   18  H           1     -36.922   1.654 -15.003  0.00  0.00     0.174 HD
HETATM   19  H           1     -37.810   1.128 -16.491  0.00  0.00     0.174 HD
HETATM   20  H           1     -35.527  -1.449 -17.175  0.00  0.00     0.174 HD
HETATM   21  H           1     -37.040  -0.580 -17.685  0.00  0.00     0.174 HD
HETATM   22  H           1     -34.452  -0.813 -15.372  0.00  0.00     0.177 HD
ENDBRANCH  13  14
ENDBRANCH  12  13
ENDBRANCH  11  12
ENDBRANCH   1  11
BRANCH   1  23
HETATM   23  N           1     -36.259   0.238 -10.100  0.00  0.00    -0.067 N 
HETATM   24  H           1     -36.556   1.080 -10.642  0.00  0.00     0.275 HD
HETATM   25  H           1     -35.275   0.363  -9.772  0.00  0.00     0.275 HD
HETATM   26  H           1     -36.889   0.114  -9.275  0.00  0.00     0.275 HD
ENDBRANCH   1  23
TORSDOF 8
ENDMDL
MODEL 3
REMARK VINA RESULT:      -6.3      9.944     10.913
REMARK  8 active torsions:
REMARK  status: ('A' for Active; 'I' for Inactive)
REMARK    1  A    between atoms: C_10  and  C_11 
REMARK    2  A    between atoms: C_11  and  N_14 
REMARK       I    between atoms: N_13  and  C_21 
REMARK       I    between atoms: N_14  and  C_15 
REMARK    3  A    between atoms: C_15  and  C_16 
REMARK    4  A    between atoms: C_16  and  C_17 
REMARK    5  A    between atoms: C_16  and  N_26 
REMARK    6  A    between atoms: C_17  and  C_18 
REMARK    7  A    between atoms: C_18  and  C_19 
REMARK    8  A    between atoms: C_19  and  N_20 
REMARK       I    between atoms: N_20  and  C_21 
ROOT
HETATM    1  C           1     -29.751  -6.727 -17.923  0.00  0.00     0.274 C 
ENDROOT
BRANCH   1   2
HETATM    2  C           1     -28.667  -6.349 -18.903  0.00  0.00     0.249 C 
HETATM    3  N           1     -27.850  -7.316 -19.425  0.00  0.00    -0.345 N 
HETATM    4  H           1     -27.973  -8.283 -19.154  0.00  0.00     0.163 HD
HETATM    5  O           1     -28.521  -5.195 -19.227  0.00  0.00    -0.271 OA
BRANCH   3   6
HETATM    6  C           1     -26.809  -6.953 -20.367  0.00  0.00     0.181 C 
HETATM    7  C           1     -25.544  -6.578 -19.605  0.00  0.00     0.043 C 
BRANCH   6   8
HETATM    8  C           1     -26.521  -8.125 -21.274  0.00  0.00     0.196 C 
HETATM    9  O           1     -25.365  -8.307 -21.713  0.00  0.00    -0.646 OA
HETATM   10  O           1     -27.439  -8.914 -21.586  0.00  0.00    -0.646 OA
ENDBRANCH   6   8
ENDBRANCH   3   6
ENDBRANCH   1   2
BRANCH   1  11
HETATM   11  C           1     -29.533  -5.981 -16.613  0.00  0.00     0.044 C 
BRANCH  11  12
HETATM   12  C           1     -28.600  -6.786 -15.718  0.00  0.00     0.023 C 
BRANCH  12  13
HETATM   13  C           1     -27.215  -6.152 -15.728  0.00  0.00     0.138 C 
BRANCH  13  14
HETATM   14  N           1     -26.260  -7.069 -16.369  0.00  0.00    -0.227 N 
HETATM   15  C           1     -25.070  -7.140 -15.947  0.00  0.00     0.665 C 
HETATM   16  N           1     -24.689  -6.401 -14.947  0.00  0.00    -0.235 N 
HETATM   17  N           1     -24.248  -7.929 -16.499  0.00  0.00    -0.235 N 
HETATM   18  H           1     -25.368  -5.750 -14.491  0.00  0.00     0.174 HD
HETATM   19  H           1     -23.706  -6.459 -14.599  0.00  0.00     0.174 HD
HETATM   20  H           1     -24.554  -8.526 -17.306  0.00  0.00     0.174 HD
HETATM   21  H           1     -23.260  -7.987 -16.149  0.00  0.00     0.174 HD
HETATM   22  H           1     -26.568  -7.666 -17.177  0.00  0.00     0.177 HD
ENDBRANCH  13  14
ENDBRANCH  12  13
ENDBRANCH  11  12
ENDBRANCH   1  11
BRANCH   1  23
HETATM   23  N           1     -29.703  -8.205 -17.670  0.00  0.00    -0.067 N 
HETATM   24  H           1     -28.713  -8.498 -17.507  0.00  0.00     0.275 HD
HETATM   25  H           1     -30.085  -8.713 -18.499  0.00  0.00     0.275 HD
HETATM   26  H           1     -30.277  -8.432 -16.827  0.00  0.00     0.275 HD
ENDBRANCH   1  23
TORSDOF 8
ENDMDL
MODEL 4
REMARK VINA RESULT:      -6.3     13.491     14.748
REMARK  8 active torsions:
REMARK  status: ('A' for Active; 'I' for Inactive)
REMARK    1  A    between atoms: C_10  and  C_11 
REMARK    2  A    between atoms: C_11  and  N_14 
REMARK       I    between atoms: N_13  and  C_21 
REMARK       I    between atoms: N_14  and  C_15 
REMARK    3  A    between atoms: C_15  and  C_16 
REMARK    4  A    between atoms: C_16  and  C_17 
REMARK    5  A    between atoms: C_16  and  N_26 
REMARK    6  A    between atoms: C_17  and  C_18 
REMARK    7  A    between atoms: C_18  and  C_19 
REMARK    8  A    between atoms: C_19  and  N_20 
REMARK       I    between atoms: N_20  and  C_21 
ROOT
HETATM    1  C           1     -21.184  -5.806  -6.944  0.00  0.00     0.274 C 
ENDROOT
BRANCH   1   2
HETATM    2  C           1     -21.664  -4.608  -7.726  0.00  0.00     0.249 C 
HETATM    3  N           1     -22.228  -4.780  -8.962  0.00  0.00    -0.345 N 
HETATM    4  H           1     -22.324  -5.709  -9.350  0.00  0.00     0.163 HD
HETATM    5  O           1     -21.551  -3.499  -7.263  0.00  0.00    -0.271 OA
BRANCH   3   6
HETATM    6  C           1     -22.690  -3.629  -9.714  0.00  0.00     0.181 C 
HETATM    7  C           1     -21.813  -3.443 -10.946  0.00  0.00     0.043 C 
BRANCH   6   8
HETATM    8  C           1     -24.120  -3.849 -10.143  0.00  0.00     0.196 C 
HETATM    9  O           1     -24.702  -2.991 -10.840  0.00  0.00    -0.646 OA
HETATM   10  O           1     -24.722  -4.890  -9.800  0.00  0.00    -0.646 OA
ENDBRANCH   6   8
ENDBRANCH   3   6
ENDBRANCH   1   2
BRANCH   1  11
HETATM   11  C           1     -21.120  -5.454  -5.464  0.00  0.00     0.044 C 
BRANCH  11  12
HETATM   12  C           1     -21.729  -6.584  -4.645  0.00  0.00     0.023 C 
BRANCH  12  13
HETATM   13  C           1     -21.634  -6.246  -3.163  0.00  0.00     0.138 C 
BRANCH  13  14
HETATM   14  N           1     -21.088  -7.398  -2.430  0.00  0.00    -0.227 N 
HETATM   15  C           1     -21.507  -7.665  -1.267  0.00  0.00     0.665 C 
HETATM   16  N           1     -22.421  -6.920  -0.718  0.00  0.00    -0.235 N 
HETATM   17  N           1     -21.036  -8.656  -0.636  0.00  0.00    -0.235 N 
HETATM   18  H           1     -22.809  -6.101  -1.239  0.00  0.00     0.174 HD
HETATM   19  H           1     -22.766  -7.140   0.243  0.00  0.00     0.174 HD
HETATM   20  H           1     -20.299  -9.258  -1.079  0.00  0.00     0.174 HD
HETATM   21  H           1     -21.384  -8.877   0.329  0.00  0.00     0.174 HD
HETATM   22  H           1     -20.350  -7.999  -2.874  0.00  0.00     0.177 HD
ENDBRANCH  13  14
ENDBRANCH  12  13
ENDBRANCH  11  12
ENDBRANCH   1  11
BRANCH   1  23
HETATM   23  N           1     -19.819  -6.202  -7.423  0.00  0.00    -0.067 N 
HETATM   24  H           1     -19.904  -6.995  -8.098  0.00  0.00     0.275 HD
HETATM   25  H           1     -19.235  -6.499  -6.609  0.00  0.00     0.275 HD
HETATM   26  H           1     -19.367  -5.388  -7.897  0.00  0.00     0.275 HD
ENDBRANCH   1  23
TORSDOF 8
ENDMDL
MODEL 5
REMARK VINA RESULT:      -6.2      9.438     10.825
REMARK  8 active torsions:
REMARK  status: ('A' for Active; 'I' for Inactive)
REMARK    1  A    between atoms: C_10  and  C_11 
REMARK    2  A    between atoms: C_11  and  N_14 
REMARK       I    between atoms: N_13  and  C_21 
REMARK       I    between atoms: N_14  and  C_15 
REMARK    3  A    between atoms: C_15  and  C_16 
REMARK    4  A    between atoms: C_16  and  C_17 
REMARK    5  A    between atoms: C_16  and  N_26 
REMARK    6  A    between atoms: C_17  and  C_18 
REMARK    7  A    between atoms: C_18  and  C_19 
REMARK    8  A    between atoms: C_19  and  N_20 
REMARK       I    between atoms: N_20  and  C_21 
ROOT
HETATM    1  C           1     -28.666  -6.446 -18.309  0.00  0.00     0.274 C 
ENDROOT
BRANCH   1   2
HETATM    2  C           1     -27.556  -6.301 -19.322  0.00  0.00     0.249 C 
HETATM    3  N           1     -26.424  -7.063 -19.210  0.00  0.00    -0.345 N 
HETATM    4  H           1     -26.332  -7.724 -18.450  0.00  0.00     0.163 HD
HETATM    5  O           1     -27.666  -5.512 -20.230  0.00  0.00    -0.271 OA
BRANCH   3   6
HETATM    6  C           1     -25.357  -6.924 -20.183  0.00  0.00     0.181 C 
HETATM    7  C           1     -24.013  -7.099 -19.489  0.00  0.00     0.043 C 
BRANCH   6   8
HETATM    8  C           1     -25.513  -7.976 -21.254  0.00  0.00     0.196 C 
HETATM    9  O           1     -26.575  -8.631 -21.336  0.00  0.00    -0.646 OA
HETATM   10  O           1     -24.581  -8.193 -22.058  0.00  0.00    -0.646 OA
ENDBRANCH   6   8
ENDBRANCH   3   6
ENDBRANCH   1   2
BRANCH   1  11
HETATM   11  C           1     -28.127  -6.137 -16.918  0.00  0.00     0.044 C 
BRANCH  11  12
HETATM   12  C           1     -29.086  -5.198 -16.199  0.00  0.00     0.023 C 
BRANCH  12  13
HETATM   13  C           1     -30.218  -4.808 -17.141  0.00  0.00     0.138 C 
BRANCH  13  14
HETATM   14  N           1     -31.509  -5.024 -16.473  0.00  0.00    -0.227 N 
HETATM   15  C           1     -32.475  -4.236 -16.691  0.00  0.00     0.665 C 
HETATM   16  N           1     -32.325  -3.233 -17.505  0.00  0.00    -0.235 N 
HETATM   17  N           1     -33.587  -4.423 -16.116  0.00  0.00    -0.235 N 
HETATM   18  H           1     -31.406  -3.080 -17.980  0.00  0.00     0.174 HD
HETATM   19  H           1     -33.122  -2.582 -17.685  0.00  0.00     0.174 HD
HETATM   20  H           1     -33.709  -5.232 -15.458  0.00  0.00     0.174 HD
HETATM   21  H           1     -34.387  -3.768 -16.297  0.00  0.00     0.174 HD
HETATM   22  H           1     -31.631  -5.834 -15.815  0.00  0.00     0.177 HD
ENDBRANCH  13  14
ENDBRANCH  12  13
ENDBRANCH  11  12
ENDBRANCH   1  11
BRANCH   1  23
HETATM   23  N           1     -29.191  -7.850 -18.342  0.00  0.00    -0.067 N 
HETATM   24  H           1     -29.126  -8.223 -19.316  0.00  0.00     0.275 HD
HETATM   25  H           1     -30.189  -7.857 -18.032  0.00  0.00     0.275 HD
HETATM   26  H           1     -28.624  -8.449 -17.700  0.00  0.00     0.275 HD
ENDBRANCH   1  23
TORSDOF 8
ENDMDL
MODEL 6
REMARK VINA RESULT:      -6.1      7.847      9.748
REMARK  8 active torsions:
REMARK  status: ('A' for Active; 'I' for Inactive)
REMARK    1  A    between atoms: C_10  and  C_11 
REMARK    2  A    between atoms: C_11  and  N_14 
REMARK       I    between atoms: N_13  and  C_21 
REMARK       I    between atoms: N_14  and  C_15 
REMARK    3  A    between atoms: C_15  and  C_16 
REMARK    4  A    between atoms: C_16  and  C_17 
REMARK    5  A    between atoms: C_16  and  N_26 
REMARK    6  A    between atoms: C_17  and  C_18 
REMARK    7  A    between atoms: C_18  and  C_19 
REMARK    8  A    between atoms: C_19  and  N_20 
REMARK       I    between atoms: N_20  and  C_21 
ROOT
HETATM    1  C           1     -29.834  -7.420 -18.804  0.00  0.00     0.274 C 
ENDROOT
BRANCH   1   2
HETATM    2  C           1     -28.736  -6.455 -18.429  0.00  0.00     0.249 C 
HETATM    3  N           1     -28.088  -6.587 -17.231  0.00  0.00    -0.345 N 
HETATM    4  H           1     -28.345  -7.333 -16.596  0.00  0.00     0.163 HD
HETATM    5  O           1     -28.429  -5.565 -19.187  0.00  0.00    -0.271 OA
BRANCH   3   6
HETATM    6  C           1     -27.033  -5.659 -16.870  0.00  0.00     0.181 C 
HETATM    7  C           1     -27.632  -4.481 -16.113  0.00  0.00     0.043 C 
BRANCH   6   8
HETATM    8  C           1     -26.025  -6.361 -15.993  0.00  0.00     0.196 C 
HETATM    9  O           1     -24.860  -5.917 -15.902  0.00  0.00    -0.646 OA
HETATM   10  O           1     -26.355  -7.386 -15.358  0.00  0.00    -0.646 OA
ENDBRANCH   6   8
ENDBRANCH   3   6
ENDBRANCH   1   2
BRANCH   1  11
HETATM   11  C           1     -30.704  -7.697 -17.585  0.00  0.00     0.044 C 
BRANCH  11  12
HETATM   12  C           1     -31.926  -6.790 -17.617  0.00  0.00     0.023 C 
BRANCH  12  13
HETATM   13  C           1     -31.658  -5.547 -16.779  0.00  0.00     0.138 C 
BRANCH  13  14
HETATM   14  N           1     -32.846  -4.680 -16.793  0.00  0.00    -0.227 N 
HETATM   15  C           1     -32.765  -3.502 -17.249  0.00  0.00     0.665 C 
HETATM   16  N           1     -31.630  -3.057 -17.703  0.00  0.00    -0.235 N 
HETATM   17  N           1     -33.787  -2.756 -17.260  0.00  0.00    -0.235 N 
HETATM   18  H           1     -30.786  -3.674 -17.693  0.00  0.00     0.174 HD
HETATM   19  H           1     -31.564  -2.085 -18.079  0.00  0.00     0.174 HD
HETATM   20  H           1     -34.703  -3.114 -16.894  0.00  0.00     0.174 HD
HETATM   21  H           1     -33.719  -1.779 -17.638  0.00  0.00     0.174 HD
HETATM   22  H           1     -33.762  -5.039 -16.426  0.00  0.00     0.177 HD
ENDBRANCH  13  14
ENDBRANCH  12  13
ENDBRANCH  11  12
ENDBRANCH   1  11
BRANCH   1  23
HETATM   23  N           1     -29.226  -8.704 -19.287  0.00  0.00    -0.067 N 
HETATM   24  H           1     -28.641  -9.119 -18.528  0.00  0.00     0.275 HD
HETATM   25  H           1     -28.629  -8.515 -20.123  0.00  0.00     0.275 HD
HETATM   26  H           1     -29.987  -9.372 -19.546  0.00  0.00     0.275 HD
ENDBRANCH   1  23
TORSDOF 8
ENDMDL
MODEL 7
REMARK VINA RESULT:      -6.1     13.763     16.138
REMARK  8 active torsions:
REMARK  status: ('A' for Active; 'I' for Inactive)
REMARK    1  A    between atoms: C_10  and  C_11 
REMARK    2  A    between atoms: C_11  and  N_14 
REMARK       I    between atoms: N_13  and  C_21 
REMARK       I    between atoms: N_14  and  C_15 
REMARK    3  A    between atoms: C_15  and  C_16 
REMARK    4  A    between atoms: C_16  and  C_17 
REMARK    5  A    between atoms: C_16  and  N_26 
REMARK    6  A    between atoms: C_17  and  C_18 
REMARK    7  A    between atoms: C_18  and  C_19 
REMARK    8  A    between atoms: C_19  and  N_20 
REMARK       I    between atoms: N_20  and  C_21 
ROOT
HETATM    1  C           1     -20.672  -5.205  -6.334  0.00  0.00     0.274 C 
ENDROOT
BRANCH   1   2
HETATM    2  C           1     -21.509  -6.003  -5.364  0.00  0.00     0.249 C 
HETATM    3  N           1     -20.907  -6.879  -4.501  0.00  0.00    -0.345 N 
HETATM    4  H           1     -19.902  -6.991  -4.513  0.00  0.00     0.163 HD
HETATM    5  O           1     -22.710  -5.869  -5.348  0.00  0.00    -0.271 OA
BRANCH   3   6
HETATM    6  C           1     -21.711  -7.646  -3.568  0.00  0.00     0.181 C 
HETATM    7  C           1     -21.160  -9.062  -3.470  0.00  0.00     0.043 C 
BRANCH   6   8
HETATM    8  C           1     -21.664  -6.991  -2.208  0.00  0.00     0.196 C 
HETATM    9  O           1     -22.313  -5.945  -1.997  0.00  0.00    -0.646 OA
HETATM   10  O           1     -20.977  -7.496  -1.295  0.00  0.00    -0.646 OA
ENDBRANCH   6   8
ENDBRANCH   3   6
ENDBRANCH   1   2
BRANCH   1  11
HETATM   11  C           1     -21.573  -4.274  -7.135  0.00  0.00     0.044 C 
BRANCH  11  12
HETATM   12  C           1     -21.689  -4.785  -8.565  0.00  0.00     0.023 C 
BRANCH  12  13
HETATM   13  C           1     -22.229  -3.676  -9.458  0.00  0.00     0.138 C 
BRANCH  13  14
HETATM   14  N           1     -23.631  -3.403  -9.108  0.00  0.00    -0.227 N 
HETATM   15  C           1     -24.560  -3.763  -9.888  0.00  0.00     0.665 C 
HETATM   16  N           1     -24.275  -4.373 -11.002  0.00  0.00    -0.235 N 
HETATM   17  N           1     -25.767  -3.527  -9.587  0.00  0.00    -0.235 N 
HETATM   18  H           1     -23.279  -4.567 -11.250  0.00  0.00     0.174 HD
HETATM   19  H           1     -25.043  -4.668 -11.646  0.00  0.00     0.174 HD
HETATM   20  H           1     -25.997  -3.035  -8.689  0.00  0.00     0.174 HD
HETATM   21  H           1     -26.537  -3.825 -10.235  0.00  0.00     0.174 HD
HETATM   22  H           1     -23.861  -2.911  -8.210  0.00  0.00     0.177 HD
ENDBRANCH  13  14
ENDBRANCH  12  13
ENDBRANCH  11  12
ENDBRANCH   1  11
BRANCH   1  23
HETATM   23  N           1     -19.963  -6.140  -7.268  0.00  0.00    -0.067 N 
HETATM   24  H           1     -19.853  -5.682  -8.201  0.00  0.00     0.275 HD
HETATM   25  H           1     -20.520  -7.017  -7.374  0.00  0.00     0.275 HD
HETATM   26  H           1     -19.021  -6.370  -6.879  0.00  0.00     0.275 HD
ENDBRANCH   1  23
TORSDOF 8
ENDMDL
MODEL 8
REMARK VINA RESULT:      -5.8     13.890     16.006
REMARK  8 active torsions:
REMARK  status: ('A' for Active; 'I' for Inactive)
REMARK    1  A    between atoms: C_10  and  C_11 
REMARK    2  A    between atoms: C_11  and  N_14 
REMARK       I    between atoms: N_13  and  C_21 
REMARK       I    between atoms: N_14  and  C_15 
REMARK    3  A    between atoms: C_15  and  C_16 
REMARK    4  A    between atoms: C_16  and  C_17 
REMARK    5  A    between atoms: C_16  and  N_26 
REMARK    6  A    between atoms: C_17  and  C_18 
REMARK    7  A    between atoms: C_18  and  C_19 
REMARK    8  A    between atoms: C_19  and  N_20 
REMARK       I    between atoms: N_20  and  C_21 
ROOT
HETATM    1  C           1     -22.059  -5.172  -6.687  0.00  0.00     0.274 C 
ENDROOT
BRANCH   1   2
HETATM    2  C           1     -21.338  -5.632  -5.444  0.00  0.00     0.249 C 
HETATM    3  N           1     -22.052  -6.071  -4.362  0.00  0.00    -0.345 N 
HETATM    4  H           1     -23.063  -6.087  -4.395  0.00  0.00     0.163 HD
HETATM    5  O           1     -20.131  -5.613  -5.403  0.00  0.00    -0.271 OA
BRANCH   3   6
HETATM    6  C           1     -21.360  -6.513  -3.166  0.00  0.00     0.181 C 
HETATM    7  C           1     -22.236  -6.254  -1.948  0.00  0.00     0.043 C 
BRANCH   6   8
HETATM    8  C           1     -21.067  -7.990  -3.272  0.00  0.00     0.196 C 
HETATM    9  O           1     -21.820  -8.729  -3.941  0.00  0.00    -0.646 OA
HETATM   10  O           1     -20.071  -8.473  -2.691  0.00  0.00    -0.646 OA
ENDBRANCH   6   8
ENDBRANCH   3   6
ENDBRANCH   1   2
BRANCH   1  11
HETATM   11  C           1     -21.399  -3.907  -7.218  0.00  0.00     0.044 C 
BRANCH  11  12
HETATM   12  C           1     -21.096  -4.075  -8.701  0.00  0.00     0.023 C 
BRANCH  12  13
HETATM   13  C           1     -22.298  -3.623  -9.520  0.00  0.00     0.138 C 
BRANCH  13  14
HETATM   14  N           1     -22.405  -4.449 -10.732  0.00  0.00    -0.227 N 
HETATM   15  C           1     -23.533  -4.634 -11.274  0.00  0.00     0.665 C 
HETATM   16  N           1     -24.599  -4.096 -10.758  0.00  0.00    -0.235 N 
HETATM   17  N           1     -23.625  -5.345 -12.317  0.00  0.00    -0.235 N 
HETATM   18  H           1     -24.522  -3.508  -9.897  0.00  0.00     0.174 HD
HETATM   19  H           1     -25.530  -4.250 -11.206  0.00  0.00     0.174 HD
HETATM   20  H           1     -22.765  -5.781 -12.733  0.00  0.00     0.174 HD
HETATM   21  H           1     -24.561  -5.500 -12.766  0.00  0.00     0.174 HD
HETATM   22  H           1     -21.544  -4.883 -11.148  0.00  0.00     0.177 HD
ENDBRANCH  13  14
ENDBRANCH  12  13
ENDBRANCH  11  12
ENDBRANCH   1  11
BRANCH   1  23
HETATM   23  N           1     -23.494  -4.887  -6.356  0.00  0.00    -0.067 N 
HETATM   24  H           1     -23.760  -5.408  -5.490  0.00  0.00     0.275 HD
HETATM   25  H           1     -24.102  -5.194  -7.148  0.00  0.00     0.275 HD
HETATM   26  H           1     -23.617  -3.862  -6.199  0.00  0.00     0.275 HD
ENDBRANCH   1  23
TORSDOF 8
ENDMDL
MODEL 9
REMARK VINA RESULT:      -5.7     14.823     17.439
REMARK  8 active torsions:
REMARK  status: ('A' for Active; 'I' for Inactive)
REMARK    1  A    between atoms: C_10  and  C_11 
REMARK    2  A    between atoms: C_11  and  N_14 
REMARK       I    between atoms: N_13  and  C_21 
REMARK       I    between atoms: N_14  and  C_15 
REMARK    3  A    between atoms: C_15  and  C_16 
REMARK    4  A    between atoms: C_16  and  C_17 
REMARK    5  A    between atoms: C_16  and  N_26 
REMARK    6  A    between atoms: C_17  and  C_18 
REMARK    7  A    between atoms: C_18  and  C_19 
REMARK    8  A    between atoms: C_19  and  N_20 
REMARK       I    between atoms: N_20  and  C_21 
ROOT
HETATM    1  C           1     -20.268  -7.688  -4.927  0.00  0.00     0.274 C 
ENDROOT
BRANCH   1   2
HETATM    2  C           1     -21.092  -8.341  -3.844  0.00  0.00     0.249 C 
HETATM    3  N           1     -20.990  -7.904  -2.550  0.00  0.00    -0.345 N 
HETATM    4  H           1     -20.363  -7.144  -2.320  0.00  0.00     0.163 HD
HETATM    5  O           1     -21.840  -9.248  -4.118  0.00  0.00    -0.271 OA
BRANCH   3   6
HETATM    6  C           1     -21.781  -8.532  -1.509  0.00  0.00     0.181 C 
HETATM    7  C           1     -20.871  -9.356  -0.608  0.00  0.00     0.043 C 
BRANCH   6   8
HETATM    8  C           1     -22.470  -7.467  -0.690  0.00  0.00     0.196 C 
HETATM    9  O           1     -23.044  -7.773   0.377  0.00  0.00    -0.646 OA
HETATM   10  O           1     -22.466  -6.279  -1.080  0.00  0.00    -0.646 OA
ENDBRANCH   6   8
ENDBRANCH   3   6
ENDBRANCH   1   2
BRANCH   1  11
HETATM   11  C           1     -21.195  -7.061  -5.961  0.00  0.00     0.044 C 
BRANCH  11  12
HETATM   12  C           1     -21.463  -5.609  -5.589  0.00  0.00     0.023 C 
BRANCH  12  13
HETATM   13  C           1     -21.382  -4.741  -6.838  0.00  0.00     0.138 C 
BRANCH  13  14
HETATM   14  N           1     -22.725  -4.255  -7.186  0.00  0.00    -0.227 N 
HETATM   15  C           1     -23.049  -4.107  -8.400  0.00  0.00     0.665 C 
HETATM   16  N           1     -22.194  -4.382  -9.340  0.00  0.00    -0.235 N 
HETATM   17  N           1     -24.206  -3.688  -8.700  0.00  0.00    -0.235 N 
HETATM   18  H           1     -21.239  -4.728  -9.092  0.00  0.00     0.174 HD
HETATM   19  H           1     -22.462  -4.259 -10.342  0.00  0.00     0.174 HD
HETATM   20  H           1     -24.897  -3.465  -7.942  0.00  0.00     0.174 HD
HETATM   21  H           1     -24.474  -3.565  -9.707  0.00  0.00     0.174 HD
HETATM   22  H           1     -23.416  -4.032  -6.427  0.00  0.00     0.177 HD
ENDBRANCH  13  14
ENDBRANCH  12  13
ENDBRANCH  11  12
ENDBRANCH   1  11
BRANCH   1  23
HETATM   23  N           1     -19.405  -8.720  -5.590  0.00  0.00    -0.067 N 
HETATM   24  H           1     -18.416  -8.384  -5.609  0.00  0.00     0.275 HD
HETATM   25  H           1     -19.738  -8.878  -6.567  0.00  0.00     0.275 HD
HETATM   26  H           1     -19.460  -9.615  -5.054  0.00  0.00     0.275 HD
ENDBRANCH   1  23
TORSDOF 8
ENDMDL
