MODEL 1
REMARK VINA RESULT:      -7.6      0.000      0.000
REMARK  10 active torsions:
REMARK  status: ('A' for Active; 'I' for Inactive)
REMARK    1  A    between atoms: N_7  and  C_20 
REMARK    2  A    between atoms: O_12  and  P_13 
REMARK    3  A    between atoms: P_13  and  O_14 
REMARK    4  A    between atoms: O_14  and  C_15 
REMARK    5  A    between atoms: C_18  and  C_19 
REMARK    6  A    between atoms: C_19  and  C_20 
REMARK    7  A    between atoms: C_20  and  C_21 
REMARK       I    between atoms: C_21  and  N_22 
REMARK    8  A    between atoms: N_22  and  C_26 
REMARK    9  A    between atoms: C_25  and  C_26 
REMARK   10  A    between atoms: C_26  and  C_28 
ROOT
HETATM    1  C           1     -20.402  -7.480  -5.265  0.00  0.00     0.278 C 
ENDROOT
BRANCH   1   2
HETATM    2  N           1     -21.472  -8.160  -6.066  0.00  0.00    -0.066 N 
HETATM    3  H           1     -21.320  -9.193  -6.044  0.00  0.00     0.275 HD
HETATM    4  H           1     -21.434  -7.822  -7.055  0.00  0.00     0.275 HD
HETATM    5  H           1     -22.408  -7.937  -5.659  0.00  0.00     0.275 HD
ENDBRANCH   1   2
BRANCH   1   6
HETATM    6  C           1     -20.774  -6.016  -5.064  0.00  0.00     0.081 C 
BRANCH   6   7
HETATM    7  C           1     -21.056  -5.385  -6.393  0.00  0.00    -0.056 A 
HETATM    8  C           1     -20.092  -5.421  -7.400  0.00  0.00     0.010 A 
HETATM    9  C           1     -20.356  -4.834  -8.638  0.00  0.00     0.038 A 
HETATM   10  C           1     -21.583  -4.212  -8.867  0.00  0.00     0.081 A 
HETATM   11  C           1     -22.547  -4.176  -7.859  0.00  0.00     0.038 A 
HETATM   12  C           1     -22.283  -4.764  -6.622  0.00  0.00     0.010 A 
BRANCH  10  13
HETATM   13  O           1     -21.839  -3.641 -10.069  0.00  0.00    -0.247 OA
BRANCH  13  14
HETATM   14  P           1     -23.148  -4.133 -10.878  0.00  0.00     0.411 P 
HETATM   15  O           1     -24.192  -3.087 -10.810  0.00  0.00    -0.624 OA
HETATM   16  O           1     -23.660  -5.383 -10.275  0.00  0.00    -0.624 OA
BRANCH  14  17
HETATM   17  O           1     -22.757  -4.403 -12.422  0.00  0.00    -0.300 OA
HETATM   18  H           1     -23.580  -4.430 -12.881  0.00  0.00     0.223 HD
ENDBRANCH  14  17
ENDBRANCH  13  14
ENDBRANCH  10  13
ENDBRANCH   6   7
ENDBRANCH   1   6
BRANCH   1  19
HETATM   19  C           1     -20.275  -8.155  -3.921  0.00  0.00     0.249 C 
HETATM   20  O           1     -19.221  -8.642  -3.588  0.00  0.00    -0.271 OA
HETATM   21  N           1     -21.354  -8.216  -3.081  0.00  0.00    -0.344 N 
HETATM   22  H           1     -22.237  -7.809  -3.361  0.00  0.00     0.163 HD
BRANCH  21  23
HETATM   23  C           1     -21.233  -8.865  -1.790  0.00  0.00     0.189 C 
BRANCH  23  24
HETATM   24  C           1     -21.615 -10.319  -1.921  0.00  0.00     0.197 C 
HETATM   25  O           1     -22.746 -10.632  -2.352  0.00  0.00    -0.646 OA
HETATM   26  O           1     -20.801 -11.211  -1.597  0.00  0.00    -0.646 OA
ENDBRANCH  23  24
BRANCH  23  27
HETATM   27  C           1     -22.159  -8.185  -0.791  0.00  0.00     0.010 C 
HETATM   28  C           1     -21.590  -8.338   0.613  0.00  0.00     0.012 C 
HETATM   29  C           1     -22.276  -6.706  -1.131  0.00  0.00     0.012 C 
ENDBRANCH  23  27
ENDBRANCH  21  23
ENDBRANCH   1  19
TORSDOF 10
ENDMDL
MODEL 2
REMARK VINA RESULT:      -7.6      3.299      8.930
REMARK  10 active torsions:
REMARK  status: ('A' for Active; 'I' for Inactive)
REMARK    1  A    between atoms: N_7  and  C_20 
REMARK    2  A    between atoms: O_12  and  P_13 
REMARK    3  A    between atoms: P_13  and  O_14 
REMARK    4  A    between atoms: O_14  and  C_15 
REMARK    5  A    between atoms: C_18  and  C_19 
REMARK    6  A    between atoms: C_19  and  C_20 
REMARK    7  A    between atoms: C_20  and  C_21 
REMARK       I    between atoms: C_21  and  N_22 
REMARK    8  A    between atoms: N_22  and  C_26 
REMARK    9  A    between atoms: C_25  and  C_26 
REMARK   10  A    between atoms: C_26  and  C_28 
ROOT
HETATM    1  C           1     -20.993  -5.493  -6.192  0.00  0.00     0.278 C 
ENDROOT
BRANCH   1   2
HETATM    2  N           1     -20.066  -4.814  -5.227  0.00  0.00    -0.066 N 
HETATM    3  H           1     -19.902  -3.829  -5.536  0.00  0.00     0.275 HD
HETATM    4  H           1     -19.157  -5.328  -5.199  0.00  0.00     0.275 HD
HETATM    5  H           1     -20.495  -4.813  -4.274  0.00  0.00     0.275 HD
ENDBRANCH   1   2
BRANCH   1   6
HETATM    6  C           1     -22.219  -6.001  -5.445  0.00  0.00     0.081 C 
BRANCH   6   7
HETATM    7  C           1     -21.784  -6.821  -4.270  0.00  0.00    -0.056 A 
HETATM    8  C           1     -21.287  -8.110  -4.466  0.00  0.00     0.010 A 
HETATM    9  C           1     -20.882  -8.874  -3.371  0.00  0.00     0.038 A 
HETATM   10  C           1     -20.973  -8.349  -2.083  0.00  0.00     0.081 A 
HETATM   11  C           1     -21.470  -7.060  -1.887  0.00  0.00     0.038 A 
HETATM   12  C           1     -21.875  -6.297  -2.982  0.00  0.00     0.010 A 
BRANCH  10  13
HETATM   13  O           1     -20.579  -9.091  -1.019  0.00  0.00    -0.247 OA
BRANCH  13  14
HETATM   14  P           1     -21.690  -9.478   0.087  0.00  0.00     0.411 P 
HETATM   15  O           1     -21.291 -10.729   0.771  0.00  0.00    -0.624 OA
HETATM   16  O           1     -22.999  -9.673  -0.574  0.00  0.00    -0.624 OA
BRANCH  14  17
HETATM   17  O           1     -21.808  -8.287   1.172  0.00  0.00    -0.300 OA
HETATM   18  H           1     -22.324  -7.621   0.749  0.00  0.00     0.223 HD
ENDBRANCH  14  17
ENDBRANCH  13  14
ENDBRANCH  10  13
ENDBRANCH   6   7
ENDBRANCH   1   6
BRANCH   1  19
HETATM   19  C           1     -21.422  -4.508  -7.253  0.00  0.00     0.249 C 
HETATM   20  O           1     -21.450  -3.327  -7.004  0.00  0.00    -0.271 OA
HETATM   21  N           1     -21.778  -4.956  -8.497  0.00  0.00    -0.344 N 
HETATM   22  H           1     -21.754  -5.945  -8.705  0.00  0.00     0.163 HD
BRANCH  21  23
HETATM   23  C           1     -22.191  -4.010  -9.516  0.00  0.00     0.189 C 
BRANCH  23  24
HETATM   24  C           1     -23.663  -4.186  -9.799  0.00  0.00     0.197 C 
HETATM   25  O           1     -24.059  -5.174 -10.454  0.00  0.00    -0.646 OA
HETATM   26  O           1     -24.485  -3.343  -9.379  0.00  0.00    -0.646 OA
ENDBRANCH  23  24
BRANCH  23  27
HETATM   27  C           1     -21.396  -4.260 -10.791  0.00  0.00     0.010 C 
HETATM   28  C           1     -21.263  -2.957 -11.569  0.00  0.00     0.012 C 
HETATM   29  C           1     -20.010  -4.779 -10.433  0.00  0.00     0.012 C 
ENDBRANCH  23  27
ENDBRANCH  21  23
ENDBRANCH   1  19
TORSDOF 10
ENDMDL
MODEL 3
REMARK VINA RESULT:      -7.5     12.416     14.651
REMARK  10 active torsions:
REMARK  status: ('A' for Active; 'I' for Inactive)
REMARK    1  A    between atoms: N_7  and  C_20 
REMARK    2  A    between atoms: O_12  and  P_13 
REMARK    3  A    between atoms: P_13  and  O_14 
REMARK    4  A    between atoms: O_14  and  C_15 
REMARK    5  A    between atoms: C_18  and  C_19 
REMARK    6  A    between atoms: C_19  and  C_20 
REMARK    7  A    between atoms: C_20  and  C_21 
REMARK       I    between atoms: C_21  and  N_22 
REMARK    8  A    between atoms: N_22  and  C_26 
REMARK    9  A    between atoms: C_25  and  C_26 
REMARK   10  A    between atoms: C_26  and  C_28 
ROOT
HETATM    1  C           1     -32.809  -4.672 -16.838  0.00  0.00     0.278 C 
ENDROOT
BRANCH   1   2
HETATM    2  N           1     -31.777  -3.584 -16.798  0.00  0.00    -0.066 N 
HETATM    3  H           1     -32.027  -2.842 -17.491  0.00  0.00     0.275 HD
HETATM    4  H           1     -30.842  -3.984 -17.037  0.00  0.00     0.275 HD
HETATM    5  H           1     -31.745  -3.169 -15.840  0.00  0.00     0.275 HD
ENDBRANCH   1   2
BRANCH   1   6
HETATM    6  C           1     -32.115  -6.028 -16.850  0.00  0.00     0.081 C 
BRANCH   6   7
HETATM    7  C           1     -30.632  -5.830 -16.786  0.00  0.00    -0.056 A 
HETATM    8  C           1     -30.015  -5.570 -15.563  0.00  0.00     0.010 A 
HETATM    9  C           1     -28.633  -5.386 -15.505  0.00  0.00     0.038 A 
HETATM   10  C           1     -27.870  -5.463 -16.669  0.00  0.00     0.081 A 
HETATM   11  C           1     -28.486  -5.724 -17.892  0.00  0.00     0.038 A 
HETATM   12  C           1     -29.868  -5.908 -17.951  0.00  0.00     0.010 A 
BRANCH  10  13
HETATM   13  O           1     -26.527  -5.284 -16.612  0.00  0.00    -0.247 OA
BRANCH  13  14
HETATM   14  P           1     -25.629  -6.480 -16.003  0.00  0.00     0.411 P 
HETATM   15  O           1     -24.687  -6.966 -17.037  0.00  0.00    -0.624 OA
HETATM   16  O           1     -26.509  -7.590 -15.576  0.00  0.00    -0.624 OA
BRANCH  14  17
HETATM   17  O           1     -24.796  -5.935 -14.731  0.00  0.00    -0.300 OA
HETATM   18  H           1     -23.986  -6.416 -14.745  0.00  0.00     0.223 HD
ENDBRANCH  14  17
ENDBRANCH  13  14
ENDBRANCH  10  13
ENDBRANCH   6   7
ENDBRANCH   1   6
BRANCH   1  19
HETATM   19  C           1     -33.693  -4.571 -15.619  0.00  0.00     0.249 C 
HETATM   20  O           1     -34.858  -4.881 -15.691  0.00  0.00    -0.271 OA
HETATM   21  N           1     -33.174  -4.127 -14.433  0.00  0.00    -0.344 N 
HETATM   22  H           1     -32.199  -3.867 -14.373  0.00  0.00     0.163 HD
BRANCH  21  23
HETATM   23  C           1     -34.023  -4.029 -13.261  0.00  0.00     0.189 C 
BRANCH  23  24
HETATM   24  C           1     -34.534  -2.615 -13.128  0.00  0.00     0.197 C 
HETATM   25  O           1     -34.416  -2.008 -12.041  0.00  0.00    -0.646 OA
HETATM   26  O           1     -35.077  -2.052 -14.103  0.00  0.00    -0.646 OA
ENDBRANCH  23  24
BRANCH  23  27
HETATM   27  C           1     -33.221  -4.398 -12.020  0.00  0.00     0.010 C 
HETATM   28  C           1     -33.890  -5.570 -11.315  0.00  0.00     0.012 C 
HETATM   29  C           1     -31.808  -4.792 -12.428  0.00  0.00     0.012 C 
ENDBRANCH  23  27
ENDBRANCH  21  23
ENDBRANCH   1  19
TORSDOF 10
ENDMDL
MODEL 4
REMARK VINA RESULT:      -7.5      3.083      8.799
REMARK  10 active torsions:
REMARK  status: ('A' for Active; 'I' for Inactive)
REMARK    1  A    between atoms: N_7  and  C_20 
REMARK    2  A    between atoms: O_12  and  P_13 
REMARK    3  A    between atoms: P_13  and  O_14 
REMARK    4  A    between atoms: O_14  and  C_15 
REMARK    5  A    between atoms: C_18  and  C_19 
REMARK    6  A    between atoms: C_19  and  C_20 
REMARK    7  A    between atoms: C_20  and  C_21 
REMARK       I    between atoms: C_21  and  N_22 
REMARK    8  A    between atoms: N_22  and  C_26 
REMARK    9  A    between atoms: C_25  and  C_26 
REMARK   10  A    between atoms: C_26  and  C_28 
ROOT
HETATM    1  C           1     -21.178  -5.673  -6.951  0.00  0.00     0.278 C 
ENDROOT
BRANCH   1   2
HETATM    2  N           1     -19.875  -6.120  -7.547  0.00  0.00    -0.066 N 
HETATM    3  H           1     -19.089  -5.834  -6.920  0.00  0.00     0.275 HD
HETATM    4  H           1     -19.753  -5.677  -8.485  0.00  0.00     0.275 HD
HETATM    5  H           1     -19.878  -7.159  -7.650  0.00  0.00     0.275 HD
ENDBRANCH   1   2
BRANCH   1   6
HETATM    6  C           1     -20.948  -5.218  -5.515  0.00  0.00     0.081 C 
BRANCH   6   7
HETATM    7  C           1     -21.188  -6.366  -4.583  0.00  0.00    -0.056 A 
HETATM    8  C           1     -21.213  -6.152  -3.205  0.00  0.00     0.010 A 
HETATM    9  C           1     -21.437  -7.222  -2.338  0.00  0.00     0.038 A 
HETATM   10  C           1     -21.636  -8.504  -2.849  0.00  0.00     0.081 A 
HETATM   11  C           1     -21.611  -8.718  -4.227  0.00  0.00     0.038 A 
HETATM   12  C           1     -21.387  -7.648  -5.094  0.00  0.00     0.010 A 
BRANCH  10  13
HETATM   13  O           1     -21.854  -9.543  -2.006  0.00  0.00    -0.247 OA
BRANCH  13  14
HETATM   14  P           1     -20.634 -10.567  -1.735  0.00  0.00     0.411 P 
HETATM   15  O           1     -20.671 -11.016  -0.326  0.00  0.00    -0.624 OA
HETATM   16  O           1     -19.349  -9.885  -2.003  0.00  0.00    -0.624 OA
BRANCH  14  17
HETATM   17  O           1     -20.777 -11.845  -2.712  0.00  0.00    -0.300 OA
HETATM   18  H           1     -20.846 -12.587  -2.134  0.00  0.00     0.223 HD
ENDBRANCH  14  17
ENDBRANCH  13  14
ENDBRANCH  10  13
ENDBRANCH   6   7
ENDBRANCH   1   6
BRANCH   1  19
HETATM   19  C           1     -21.732  -4.525  -7.759  0.00  0.00     0.249 C 
HETATM   20  O           1     -21.712  -3.405  -7.309  0.00  0.00    -0.271 OA
HETATM   21  N           1     -22.257  -4.755  -9.002  0.00  0.00    -0.344 N 
HETATM   22  H           1     -22.274  -5.694  -9.379  0.00  0.00     0.163 HD
BRANCH  21  23
HETATM   23  C           1     -22.791  -3.653  -9.779  0.00  0.00     0.189 C 
BRANCH  23  24
HETATM   24  C           1     -24.246  -3.911 -10.083  0.00  0.00     0.197 C 
HETATM   25  O           1     -24.769  -5.000  -9.760  0.00  0.00    -0.646 OA
HETATM   26  O           1     -24.929  -3.036 -10.658  0.00  0.00    -0.646 OA
ENDBRANCH  23  24
BRANCH  23  27
HETATM   27  C           1     -22.014  -3.529 -11.083  0.00  0.00     0.010 C 
HETATM   28  C           1     -20.523  -3.467 -10.782  0.00  0.00     0.012 C 
HETATM   29  C           1     -22.302  -4.738 -11.964  0.00  0.00     0.012 C 
ENDBRANCH  23  27
ENDBRANCH  21  23
ENDBRANCH   1  19
TORSDOF 10
ENDMDL
MODEL 5
REMARK VINA RESULT:      -7.4      1.657      2.245
REMARK  10 active torsions:
REMARK  status: ('A' for Active; 'I' for Inactive)
REMARK    1  A    between atoms: N_7  and  C_20 
REMARK    2  A    between atoms: O_12  and  P_13 
REMARK    3  A    between atoms: P_13  and  O_14 
REMARK    4  A    between atoms: O_14  and  C_15 
REMARK    5  A    between atoms: C_18  and  C_19 
REMARK    6  A    between atoms: C_19  and  C_20 
REMARK    7  A    between atoms: C_20  and  C_21 
REMARK       I    between atoms: C_21  and  N_22 
REMARK    8  A    between atoms: N_22  and  C_26 
REMARK    9  A    between atoms: C_25  and  C_26 
REMARK   10  A    between atoms: C_26  and  C_28 
ROOT
HETATM    1  C           1     -21.231  -6.390  -5.022  0.00  0.00     0.278 C 
ENDROOT
BRANCH   1   2
HETATM    2  N           1     -21.522  -5.954  -3.617  0.00  0.00    -0.066 N 
HETATM    3  H           1     -20.625  -5.744  -3.124  0.00  0.00     0.275 HD
HETATM    4  H           1     -22.026  -6.719  -3.113  0.00  0.00     0.275 HD
HETATM    5  H           1     -22.119  -5.096  -3.634  0.00  0.00     0.275 HD
ENDBRANCH   1   2
BRANCH   1   6
HETATM    6  C           1     -20.258  -5.411  -5.665  0.00  0.00     0.081 C 
BRANCH   6   7
HETATM    7  C           1     -20.827  -4.917  -6.959  0.00  0.00    -0.056 A 
HETATM    8  C           1     -20.061  -4.970  -8.124  0.00  0.00     0.010 A 
HETATM    9  C           1     -20.593  -4.510  -9.329  0.00  0.00     0.038 A 
HETATM   10  C           1     -21.889  -3.997  -9.369  0.00  0.00     0.081 A 
HETATM   11  C           1     -22.655  -3.944  -8.204  0.00  0.00     0.038 A 
HETATM   12  C           1     -22.123  -4.404  -6.999  0.00  0.00     0.010 A 
BRANCH  10  13
HETATM   13  O           1     -22.405  -3.550 -10.539  0.00  0.00    -0.247 OA
BRANCH  13  14
HETATM   14  P           1     -23.729  -4.278 -11.111  0.00  0.00     0.411 P 
HETATM   15  O           1     -24.883  -3.358 -11.005  0.00  0.00    -0.624 OA
HETATM   16  O           1     -23.998  -5.502 -10.324  0.00  0.00    -0.624 OA
BRANCH  14  17
HETATM   17  O           1     -23.499  -4.675 -12.660  0.00  0.00    -0.300 OA
HETATM   18  H           1     -24.195  -5.278 -12.863  0.00  0.00     0.223 HD
ENDBRANCH  14  17
ENDBRANCH  13  14
ENDBRANCH  10  13
ENDBRANCH   6   7
ENDBRANCH   1   6
BRANCH   1  19
HETATM   19  C           1     -20.619  -7.769  -5.004  0.00  0.00     0.249 C 
HETATM   20  O           1     -19.626  -7.997  -5.652  0.00  0.00    -0.271 OA
HETATM   21  N           1     -21.189  -8.760  -4.251  0.00  0.00    -0.344 N 
HETATM   22  H           1     -22.021  -8.569  -3.708  0.00  0.00     0.163 HD
BRANCH  21  23
HETATM   23  C           1     -20.601 -10.086  -4.233  0.00  0.00     0.189 C 
BRANCH  23  24
HETATM   24  C           1     -21.355 -10.983  -5.184  0.00  0.00     0.197 C 
HETATM   25  O           1     -22.139 -11.849  -4.737  0.00  0.00    -0.646 OA
HETATM   26  O           1     -21.195 -10.862  -6.418  0.00  0.00    -0.646 OA
ENDBRANCH  23  24
BRANCH  23  27
HETATM   27  C           1     -20.681 -10.658  -2.824  0.00  0.00     0.010 C 
HETATM   28  C           1     -19.287 -11.050  -2.356  0.00  0.00     0.012 C 
HETATM   29  C           1     -21.256  -9.609  -1.882  0.00  0.00     0.012 C 
ENDBRANCH  23  27
ENDBRANCH  21  23
ENDBRANCH   1  19
TORSDOF 10
ENDMDL
MODEL 6
REMARK VINA RESULT:      -7.2     13.652     15.354
REMARK  10 active torsions:
REMARK  status: ('A' for Active; 'I' for Inactive)
REMARK    1  A    between atoms: N_7  and  C_20 
REMARK    2  A    between atoms: O_12  and  P_13 
REMARK    3  A    between atoms: P_13  and  O_14 
REMARK    4  A    between atoms: O_14  and  C_15 
REMARK    5  A    between atoms: C_18  and  C_19 
REMARK    6  A    between atoms: C_19  and  C_20 
REMARK    7  A    between atoms: C_20  and  C_21 
REMARK       I    between atoms: C_21  and  N_22 
REMARK    8  A    between atoms: N_22  and  C_26 
REMARK    9  A    between atoms: C_25  and  C_26 
REMARK   10  A    between atoms: C_26  and  C_28 
ROOT
HETATM    1  C           1     -32.807  -4.530 -16.586  0.00  0.00     0.278 C 
ENDROOT
BRANCH   1   2
HETATM    2  N           1     -32.965  -3.323 -17.463  0.00  0.00    -0.066 N 
HETATM    3  H           1     -32.182  -3.289 -18.154  0.00  0.00     0.275 HD
HETATM    4  H           1     -32.947  -2.460 -16.872  0.00  0.00     0.275 HD
HETATM    5  H           1     -33.876  -3.378 -17.971  0.00  0.00     0.275 HD
ENDBRANCH   1   2
BRANCH   1   6
HETATM    6  C           1     -31.383  -4.582 -16.048  0.00  0.00     0.081 C 
BRANCH   6   7
HETATM    7  C           1     -30.500  -5.278 -17.037  0.00  0.00    -0.056 A 
HETATM    8  C           1     -29.671  -4.533 -17.876  0.00  0.00     0.010 A 
HETATM    9  C           1     -28.849  -5.181 -18.798  0.00  0.00     0.038 A 
HETATM   10  C           1     -28.856  -6.573 -18.880  0.00  0.00     0.081 A 
HETATM   11  C           1     -29.685  -7.318 -18.041  0.00  0.00     0.038 A 
HETATM   12  C           1     -30.507  -6.669 -17.119  0.00  0.00     0.010 A 
BRANCH  10  13
HETATM   13  O           1     -28.057  -7.203 -19.775  0.00  0.00    -0.247 OA
BRANCH  13  14
HETATM   14  P           1     -26.514  -6.735 -19.876  0.00  0.00     0.411 P 
HETATM   15  O           1     -26.045  -6.291 -18.544  0.00  0.00    -0.624 OA
HETATM   16  O           1     -26.400  -5.616 -20.838  0.00  0.00    -0.624 OA
BRANCH  14  17
HETATM   17  O           1     -25.607  -7.972 -20.381  0.00  0.00    -0.300 OA
HETATM   18  H           1     -25.611  -7.910 -21.321  0.00  0.00     0.223 HD
ENDBRANCH  14  17
ENDBRANCH  13  14
ENDBRANCH  10  13
ENDBRANCH   6   7
ENDBRANCH   1   6
BRANCH   1  19
HETATM   19  C           1     -33.778  -4.444 -15.433  0.00  0.00     0.249 C 
HETATM   20  O           1     -34.934  -4.756 -15.593  0.00  0.00    -0.271 OA
HETATM   21  N           1     -33.347  -4.013 -14.208  0.00  0.00    -0.344 N 
HETATM   22  H           1     -32.380  -3.751 -14.074  0.00  0.00     0.163 HD
BRANCH  21  23
HETATM   23  C           1     -34.280  -3.929 -13.100  0.00  0.00     0.189 C 
BRANCH  23  24
HETATM   24  C           1     -34.703  -2.494 -12.906  0.00  0.00     0.197 C 
HETATM   25  O           1     -35.105  -1.824 -13.882  0.00  0.00    -0.646 OA
HETATM   26  O           1     -34.650  -1.975 -11.770  0.00  0.00    -0.646 OA
ENDBRANCH  23  24
BRANCH  23  27
HETATM   27  C           1     -33.607  -4.436 -11.831  0.00  0.00     0.010 C 
HETATM   28  C           1     -34.270  -5.735 -11.391  0.00  0.00     0.012 C 
HETATM   29  C           1     -32.130  -4.689 -12.105  0.00  0.00     0.012 C 
ENDBRANCH  23  27
ENDBRANCH  21  23
ENDBRANCH   1  19
TORSDOF 10
ENDMDL
MODEL 7
REMARK VINA RESULT:      -7.2     13.606     14.918
REMARK  10 active torsions:
REMARK  status: ('A' for Active; 'I' for Inactive)
REMARK    1  A    between atoms: N_7  and  C_20 
REMARK    2  A    between atoms: O_12  and  P_13 
REMARK    3  A    between atoms: P_13  and  O_14 
REMARK    4  A    between atoms: O_14  and  C_15 
REMARK    5  A    between atoms: C_18  and  C_19 
REMARK    6  A    between atoms: C_19  and  C_20 
REMARK    7  A    between atoms: C_20  and  C_21 
REMARK       I    between atoms: C_21  and  N_22 
REMARK    8  A    between atoms: N_22  and  C_26 
REMARK    9  A    between atoms: C_25  and  C_26 
REMARK   10  A    between atoms: C_26  and  C_28 
ROOT
HETATM    1  C           1     -33.598  -4.874 -15.632  0.00  0.00     0.278 C 
ENDROOT
BRANCH   1   2
HETATM    2  N           1     -34.724  -5.755 -16.087  0.00  0.00    -0.066 N 
HETATM    3  H           1     -35.465  -5.780 -15.351  0.00  0.00     0.275 HD
HETATM    4  H           1     -34.363  -6.722 -16.252  0.00  0.00     0.275 HD
HETATM    5  H           1     -35.127  -5.377 -16.974  0.00  0.00     0.275 HD
ENDBRANCH   1   2
BRANCH   1   6
HETATM    6  C           1     -33.070  -4.075 -16.817  0.00  0.00     0.081 C 
BRANCH   6   7
HETATM    7  C           1     -31.724  -4.599 -17.213  0.00  0.00    -0.056 A 
HETATM    8  C           1     -30.740  -3.720 -17.667  0.00  0.00     0.010 A 
HETATM    9  C           1     -29.486  -4.209 -18.034  0.00  0.00     0.038 A 
HETATM   10  C           1     -29.217  -5.574 -17.948  0.00  0.00     0.081 A 
HETATM   11  C           1     -30.200  -6.453 -17.494  0.00  0.00     0.038 A 
HETATM   12  C           1     -31.455  -5.964 -17.126  0.00  0.00     0.010 A 
BRANCH  10  13
HETATM   13  O           1     -27.998  -6.048 -18.305  0.00  0.00    -0.247 OA
BRANCH  13  14
HETATM   14  P           1     -26.863  -6.158 -17.162  0.00  0.00     0.411 P 
HETATM   15  O           1     -26.780  -4.878 -16.424  0.00  0.00    -0.624 OA
HETATM   16  O           1     -25.556  -6.449 -17.792  0.00  0.00    -0.624 OA
BRANCH  14  17
HETATM   17  O           1     -27.242  -7.347 -16.137  0.00  0.00    -0.300 OA
HETATM   18  H           1     -27.667  -6.919 -15.413  0.00  0.00     0.223 HD
ENDBRANCH  14  17
ENDBRANCH  13  14
ENDBRANCH  10  13
ENDBRANCH   6   7
ENDBRANCH   1   6
BRANCH   1  19
HETATM   19  C           1     -34.099  -3.926 -14.570  0.00  0.00     0.249 C 
HETATM   20  O           1     -34.663  -2.907 -14.888  0.00  0.00    -0.271 OA
HETATM   21  N           1     -33.915  -4.223 -13.247  0.00  0.00    -0.344 N 
HETATM   22  H           1     -33.442  -5.076 -12.981  0.00  0.00     0.163 HD
BRANCH  21  23
HETATM   23  C           1     -34.396  -3.312 -12.225  0.00  0.00     0.189 C 
BRANCH  23  24
HETATM   24  C           1     -33.235  -2.844 -11.383  0.00  0.00     0.197 C 
HETATM   25  O           1     -32.153  -3.470 -11.406  0.00  0.00    -0.646 OA
HETATM   26  O           1     -33.355  -1.830 -10.661  0.00  0.00    -0.646 OA
ENDBRANCH  23  24
BRANCH  23  27
HETATM   27  C           1     -35.408  -4.029 -11.342  0.00  0.00     0.010 C 
HETATM   28  C           1     -34.686  -5.042 -10.464  0.00  0.00     0.012 C 
HETATM   29  C           1     -36.123  -3.014 -10.460  0.00  0.00     0.012 C 
ENDBRANCH  23  27
ENDBRANCH  21  23
ENDBRANCH   1  19
TORSDOF 10
ENDMDL
MODEL 8
REMARK VINA RESULT:      -7.1      1.761      2.608
REMARK  10 active torsions:
REMARK  status: ('A' for Active; 'I' for Inactive)
REMARK    1  A    between atoms: N_7  and  C_20 
REMARK    2  A    between atoms: O_12  and  P_13 
REMARK    3  A    between atoms: P_13  and  O_14 
REMARK    4  A    between atoms: O_14  and  C_15 
REMARK    5  A    between atoms: C_18  and  C_19 
REMARK    6  A    between atoms: C_19  and  C_20 
REMARK    7  A    between atoms: C_20  and  C_21 
REMARK       I    between atoms: C_21  and  N_22 
REMARK    8  A    between atoms: N_22  and  C_26 
REMARK    9  A    between atoms: C_25  and  C_26 
REMARK   10  A    between atoms: C_26  and  C_28 
ROOT
HETATM    1  C           1     -21.508  -6.596  -4.708  0.00  0.00     0.278 C 
ENDROOT
BRANCH   1   2
HETATM    2  N           1     -21.651  -5.990  -3.343  0.00  0.00    -0.066 N 
HETATM    3  H           1     -22.641  -6.082  -3.023  0.00  0.00     0.275 HD
HETATM    4  H           1     -21.390  -4.978  -3.383  0.00  0.00     0.275 HD
HETATM    5  H           1     -21.021  -6.486  -2.674  0.00  0.00     0.275 HD
ENDBRANCH   1   2
BRANCH   1   6
HETATM    6  C           1     -20.376  -5.901  -5.454  0.00  0.00     0.081 C 
BRANCH   6   7
HETATM    7  C           1     -20.912  -5.277  -6.706  0.00  0.00    -0.056 A 
HETATM    8  C           1     -20.135  -5.262  -7.865  0.00  0.00     0.010 A 
HETATM    9  C           1     -20.636  -4.681  -9.031  0.00  0.00     0.038 A 
HETATM   10  C           1     -21.911  -4.117  -9.037  0.00  0.00     0.081 A 
HETATM   11  C           1     -22.687  -4.132  -7.878  0.00  0.00     0.038 A 
HETATM   12  C           1     -22.187  -4.713  -6.713  0.00  0.00     0.010 A 
BRANCH  10  13
HETATM   13  O           1     -22.396  -3.553 -10.170  0.00  0.00    -0.247 OA
BRANCH  13  14
HETATM   14  P           1     -23.640  -4.275 -10.903  0.00  0.00     0.411 P 
HETATM   15  O           1     -24.825  -3.391 -10.853  0.00  0.00    -0.624 OA
HETATM   16  O           1     -23.946  -5.550 -10.216  0.00  0.00    -0.624 OA
BRANCH  14  17
HETATM   17  O           1     -23.257  -4.574 -12.444  0.00  0.00    -0.300 OA
HETATM   18  H           1     -22.983  -3.743 -12.793  0.00  0.00     0.223 HD
ENDBRANCH  14  17
ENDBRANCH  13  14
ENDBRANCH  10  13
ENDBRANCH   6   7
ENDBRANCH   1   6
BRANCH   1  19
HETATM   19  C           1     -21.194  -8.066  -4.574  0.00  0.00     0.249 C 
HETATM   20  O           1     -21.874  -8.883  -5.148  0.00  0.00    -0.271 OA
HETATM   21  N           1     -20.138  -8.472  -3.803  0.00  0.00    -0.344 N 
HETATM   22  H           1     -19.569  -7.788  -3.323  0.00  0.00     0.163 HD
BRANCH  21  23
HETATM   23  C           1     -19.836  -9.885  -3.674  0.00  0.00     0.189 C 
BRANCH  23  24
HETATM   24  C           1     -20.106 -10.329  -2.257  0.00  0.00     0.197 C 
HETATM   25  O           1     -19.906 -11.518  -1.927  0.00  0.00    -0.646 OA
HETATM   26  O           1     -20.532  -9.509  -1.416  0.00  0.00    -0.646 OA
ENDBRANCH  23  24
BRANCH  23  27
HETATM   27  C           1     -18.371 -10.124  -4.010  0.00  0.00     0.010 C 
HETATM   28  C           1     -18.088  -9.630  -5.422  0.00  0.00     0.012 C 
HETATM   29  C           1     -17.493  -9.366  -3.023  0.00  0.00     0.012 C 
ENDBRANCH  23  27
ENDBRANCH  21  23
ENDBRANCH   1  19
TORSDOF 10
ENDMDL
MODEL 9
REMARK VINA RESULT:      -6.9      2.233      3.525
REMARK  10 active torsions:
REMARK  status: ('A' for Active; 'I' for Inactive)
REMARK    1  A    between atoms: N_7  and  C_20 
REMARK    2  A    between atoms: O_12  and  P_13 
REMARK    3  A    between atoms: P_13  and  O_14 
REMARK    4  A    between atoms: O_14  and  C_15 
REMARK    5  A    between atoms: C_18  and  C_19 
REMARK    6  A    between atoms: C_19  and  C_20 
REMARK    7  A    between atoms: C_20  and  C_21 
REMARK       I    between atoms: C_21  and  N_22 
REMARK    8  A    between atoms: N_22  and  C_26 
REMARK    9  A    between atoms: C_25  and  C_26 
REMARK   10  A    between atoms: C_26  and  C_28 
ROOT
HETATM    1  C           1     -21.315  -6.733  -4.966  0.00  0.00     0.278 C 
ENDROOT
BRANCH   1   2
HETATM    2  N           1     -21.916  -6.043  -3.777  0.00  0.00    -0.066 N 
HETATM    3  H           1     -21.620  -6.533  -2.903  0.00  0.00     0.275 HD
HETATM    4  H           1     -22.958  -6.063  -3.854  0.00  0.00     0.275 HD
HETATM    5  H           1     -21.588  -5.051  -3.748  0.00  0.00     0.275 HD
ENDBRANCH   1   2
BRANCH   1   6
HETATM    6  C           1     -20.285  -5.818  -5.616  0.00  0.00     0.081 C 
BRANCH   6   7
HETATM    7  C           1     -20.873  -5.200  -6.847  0.00  0.00    -0.056 A 
HETATM    8  C           1     -20.151  -5.201  -8.041  0.00  0.00     0.010 A 
HETATM    9  C           1     -20.699  -4.625  -9.187  0.00  0.00     0.038 A 
HETATM   10  C           1     -21.968  -4.049  -9.139  0.00  0.00     0.081 A 
HETATM   11  C           1     -22.690  -4.048  -7.946  0.00  0.00     0.038 A 
HETATM   12  C           1     -22.142  -4.624  -6.799  0.00  0.00     0.010 A 
BRANCH  10  13
HETATM   13  O           1     -22.501  -3.490 -10.253  0.00  0.00    -0.247 OA
BRANCH  13  14
HETATM   14  P           1     -23.812  -4.180 -10.895  0.00  0.00     0.411 P 
HETATM   15  O           1     -23.537  -4.548 -12.302  0.00  0.00    -0.624 OA
HETATM   16  O           1     -24.944  -3.229 -10.845  0.00  0.00    -0.624 OA
BRANCH  14  17
HETATM   17  O           1     -24.188  -5.508 -10.055  0.00  0.00    -0.300 OA
HETATM   18  H           1     -24.730  -5.203  -9.347  0.00  0.00     0.223 HD
ENDBRANCH  14  17
ENDBRANCH  13  14
ENDBRANCH  10  13
ENDBRANCH   6   7
ENDBRANCH   1   6
BRANCH   1  19
HETATM   19  C           1     -20.643  -8.009  -4.519  0.00  0.00     0.249 C 
HETATM   20  O           1     -20.644  -8.314  -3.351  0.00  0.00    -0.271 OA
HETATM   21  N           1     -20.035  -8.819  -5.439  0.00  0.00    -0.344 N 
HETATM   22  H           1     -20.034  -8.563  -6.417  0.00  0.00     0.163 HD
BRANCH  21  23
HETATM   23  C           1     -19.389 -10.045  -5.010  0.00  0.00     0.189 C 
BRANCH  23  24
HETATM   24  C           1     -17.892  -9.859  -5.031  0.00  0.00     0.197 C 
HETATM   25  O           1     -17.257  -9.777  -3.957  0.00  0.00    -0.646 OA
HETATM   26  O           1     -17.286  -9.783  -6.122  0.00  0.00    -0.646 OA
ENDBRANCH  23  24
BRANCH  23  27
HETATM   27  C           1     -19.773 -11.178  -5.954  0.00  0.00     0.010 C 
HETATM   28  C           1     -19.295 -12.503  -5.376  0.00  0.00     0.012 C 
HETATM   29  C           1     -21.286 -11.213  -6.116  0.00  0.00     0.012 C 
ENDBRANCH  23  27
ENDBRANCH  21  23
ENDBRANCH   1  19
TORSDOF 10
ENDMDL
