MODEL 1
REMARK VINA RESULT:      -5.2      0.000      0.000
REMARK  4 active torsions:
REMARK  status: ('A' for Active; 'I' for Inactive)
REMARK       I    between atoms: C_2  and  N_14 
REMARK    1  A    between atoms: C_2  and  C_3 
REMARK    2  A    between atoms: C_3  and  N_5 
REMARK    3  A    between atoms: C_11  and  C_13 
REMARK    4  A    between atoms: C_13  and  N_14 
ROOT
HETATM    1  C           1     -28.788  -4.517 -16.835  0.00  0.00     0.248 C 
HETATM    2  O           1     -27.995  -3.643 -16.579  0.00  0.00    -0.271 OA
HETATM    3  H           1     -29.019  -6.536 -17.228  0.00  0.00     0.163 HD
HETATM    4  N           1     -28.355  -5.803 -17.013  0.00  0.00    -0.349 N 
ENDROOT
BRANCH   1   5
HETATM    5  C           1     -30.257  -4.191 -16.959  0.00  0.00     0.270 C 
HETATM    6  C           1     -31.048  -5.478 -17.154  0.00  0.00     0.050 C 
BRANCH   5   7
HETATM    7  N           1     -30.470  -3.290 -18.138  0.00  0.00    -0.067 N 
HETATM    8  H           1     -29.578  -3.200 -18.674  0.00  0.00     0.275 HD
HETATM    9  H           1     -31.208  -3.695 -18.757  0.00  0.00     0.275 HD
HETATM   10  H           1     -30.774  -2.347 -17.805  0.00  0.00     0.275 HD
ENDBRANCH   5   7
ENDBRANCH   1   5
BRANCH   4  11
HETATM   11  C           1     -26.944  -6.116 -16.894  0.00  0.00     0.235 C 
BRANCH  11  12
HETATM   12  C           1     -26.729  -7.041 -15.721  0.00  0.00     0.191 C 
HETATM   13  O           1     -27.712  -7.483 -15.087  0.00  0.00    -0.647 OA
HETATM   14  O           1     -25.570  -7.364 -15.384  0.00  0.00    -0.647 OA
ENDBRANCH  11  12
ENDBRANCH   4  11
TORSDOF 4
ENDMDL
MODEL 2
REMARK VINA RESULT:      -5.0      9.412     11.035
REMARK  4 active torsions:
REMARK  status: ('A' for Active; 'I' for Inactive)
REMARK       I    between atoms: C_2  and  N_14 
REMARK    1  A    between atoms: C_2  and  C_3 
REMARK    2  A    between atoms: C_3  and  N_5 
REMARK    3  A    between atoms: C_11  and  C_13 
REMARK    4  A    between atoms: C_13  and  N_14 
ROOT
HETATM    1  C           1     -22.084  -4.578  -7.371  0.00  0.00     0.248 C 
HETATM    2  O           1     -22.924  -4.761  -6.523  0.00  0.00    -0.271 OA
HETATM    3  H           1     -21.752  -4.014  -9.335  0.00  0.00     0.163 HD
HETATM    4  N           1     -22.455  -4.168  -8.624  0.00  0.00    -0.349 N 
ENDROOT
BRANCH   1   5
HETATM    5  C           1     -20.626  -4.800  -7.051  0.00  0.00     0.270 C 
HETATM    6  C           1     -19.764  -4.054  -8.062  0.00  0.00     0.050 C 
BRANCH   5   7
HETATM    7  N           1     -20.318  -6.266  -7.117  0.00  0.00    -0.067 N 
HETATM    8  H           1     -20.936  -6.720  -7.826  0.00  0.00     0.275 HD
HETATM    9  H           1     -19.318  -6.400  -7.389  0.00  0.00     0.275 HD
HETATM   10  H           1     -20.485  -6.699  -6.180  0.00  0.00     0.275 HD
ENDBRANCH   5   7
ENDBRANCH   1   5
BRANCH   4  11
HETATM   11  C           1     -23.856  -3.955  -8.932  0.00  0.00     0.235 C 
BRANCH  11  12
HETATM   12  C           1     -23.993  -3.492 -10.361  0.00  0.00     0.191 C 
HETATM   13  O           1     -25.118  -3.185 -10.813  0.00  0.00    -0.647 OA
HETATM   14  O           1     -22.983  -3.414 -11.093  0.00  0.00    -0.647 OA
ENDBRANCH  11  12
ENDBRANCH   4  11
TORSDOF 4
ENDMDL
MODEL 3
REMARK VINA RESULT:      -5.0      8.204      9.690
REMARK  4 active torsions:
REMARK  status: ('A' for Active; 'I' for Inactive)
REMARK       I    between atoms: C_2  and  N_14 
REMARK    1  A    between atoms: C_2  and  C_3 
REMARK    2  A    between atoms: C_3  and  N_5 
REMARK    3  A    between atoms: C_11  and  C_13 
REMARK    4  A    between atoms: C_13  and  N_14 
ROOT
HETATM    1  C           1     -34.693  -1.802 -12.573  0.00  0.00     0.248 C 
HETATM    2  O           1     -34.690  -0.996 -11.673  0.00  0.00    -0.271 OA
HETATM    3  H           1     -35.079  -2.097 -14.585  0.00  0.00     0.163 HD
HETATM    4  N           1     -35.077  -1.422 -13.831  0.00  0.00    -0.349 N 
ENDROOT
BRANCH   1   5
HETATM    5  C           1     -34.274  -3.228 -12.310  0.00  0.00     0.270 C 
HETATM    6  C           1     -33.097  -3.242 -11.344  0.00  0.00     0.050 C 
BRANCH   5   7
HETATM    7  N           1     -33.867  -3.875 -13.601  0.00  0.00    -0.067 N 
HETATM    8  H           1     -33.597  -4.868 -13.423  0.00  0.00     0.275 HD
HETATM    9  H           1     -34.667  -3.847 -14.272  0.00  0.00     0.275 HD
HETATM   10  H           1     -33.054  -3.359 -14.007  0.00  0.00     0.275 HD
ENDBRANCH   5   7
ENDBRANCH   1   5
BRANCH   4  11
HETATM   11  C           1     -35.479  -0.052 -14.083  0.00  0.00     0.235 C 
BRANCH  11  12
HETATM   12  C           1     -36.848  -0.037 -14.718  0.00  0.00     0.191 C 
HETATM   13  O           1     -37.769  -0.729 -14.232  0.00  0.00    -0.647 OA
HETATM   14  O           1     -37.061   0.666 -15.729  0.00  0.00    -0.647 OA
ENDBRANCH  11  12
ENDBRANCH   4  11
TORSDOF 4
ENDMDL
MODEL 4
REMARK VINA RESULT:      -4.7      7.787      9.421
REMARK  4 active torsions:
REMARK  status: ('A' for Active; 'I' for Inactive)
REMARK       I    between atoms: C_2  and  N_14 
REMARK    1  A    between atoms: C_2  and  C_3 
REMARK    2  A    between atoms: C_3  and  N_5 
REMARK    3  A    between atoms: C_11  and  C_13 
REMARK    4  A    between atoms: C_13  and  N_14 
ROOT
HETATM    1  C           1     -34.268  -3.381 -12.826  0.00  0.00     0.248 C 
HETATM    2  O           1     -34.370  -3.478 -14.026  0.00  0.00    -0.271 OA
HETATM    3  H           1     -34.551  -2.140 -11.194  0.00  0.00     0.163 HD
HETATM    4  N           1     -34.636  -2.221 -12.199  0.00  0.00    -0.349 N 
ENDROOT
BRANCH   1   5
HETATM    5  C           1     -33.735  -4.539 -12.018  0.00  0.00     0.270 C 
HETATM    6  C           1     -33.956  -4.269 -10.535  0.00  0.00     0.050 C 
BRANCH   5   7
HETATM    7  N           1     -32.267  -4.698 -12.282  0.00  0.00    -0.067 N 
HETATM    8  H           1     -31.757  -3.854 -11.937  0.00  0.00     0.275 HD
HETATM    9  H           1     -31.913  -5.546 -11.786  0.00  0.00     0.275 HD
HETATM   10  H           1     -32.109  -4.805 -13.310  0.00  0.00     0.275 HD
ENDBRANCH   5   7
ENDBRANCH   1   5
BRANCH   4  11
HETATM   11  C           1     -35.149  -1.109 -12.976  0.00  0.00     0.235 C 
BRANCH  11  12
HETATM   12  C           1     -36.255  -0.426 -12.209  0.00  0.00     0.191 C 
HETATM   13  O           1     -37.445  -0.579 -12.561  0.00  0.00    -0.647 OA
HETATM   14  O           1     -35.982   0.292 -11.224  0.00  0.00    -0.647 OA
ENDBRANCH  11  12
ENDBRANCH   4  11
TORSDOF 4
ENDMDL
MODEL 5
REMARK VINA RESULT:      -4.7      8.648     10.343
REMARK  4 active torsions:
REMARK  status: ('A' for Active; 'I' for Inactive)
REMARK       I    between atoms: C_2  and  N_14 
REMARK    1  A    between atoms: C_2  and  C_3 
REMARK    2  A    between atoms: C_3  and  N_5 
REMARK    3  A    between atoms: C_11  and  C_13 
REMARK    4  A    between atoms: C_13  and  N_14 
ROOT
HETATM    1  C           1     -34.603  -1.851 -12.348  0.00  0.00     0.248 C 
HETATM    2  O           1     -34.787  -2.320 -13.447  0.00  0.00    -0.271 OA
HETATM    3  H           1     -34.957  -0.227 -11.116  0.00  0.00     0.163 HD
HETATM    4  N           1     -35.112  -0.620 -12.035  0.00  0.00    -0.349 N 
ENDROOT
BRANCH   1   5
HETATM    5  C           1     -33.811  -2.624 -11.322  0.00  0.00     0.270 C 
HETATM    6  C           1     -34.557  -3.902 -10.961  0.00  0.00     0.050 C 
BRANCH   5   7
HETATM    7  N           1     -33.635  -1.784 -10.092  0.00  0.00    -0.067 N 
HETATM    8  H           1     -34.568  -1.607  -9.654  0.00  0.00     0.275 HD
HETATM    9  H           1     -33.021  -2.286  -9.412  0.00  0.00     0.275 HD
HETATM   10  H           1     -33.194  -0.873 -10.352  0.00  0.00     0.275 HD
ENDBRANCH   5   7
ENDBRANCH   1   5
BRANCH   4  11
HETATM   11  C           1     -35.873   0.122 -13.022  0.00  0.00     0.235 C 
BRANCH  11  12
HETATM   12  C           1     -37.344  -0.158 -12.839  0.00  0.00     0.191 C 
HETATM   13  O           1     -37.916   0.174 -11.779  0.00  0.00    -0.647 OA
HETATM   14  O           1     -37.990  -0.722 -13.748  0.00  0.00    -0.647 OA
ENDBRANCH  11  12
ENDBRANCH   4  11
TORSDOF 4
ENDMDL
MODEL 6
REMARK VINA RESULT:      -4.7      9.242     10.853
REMARK  4 active torsions:
REMARK  status: ('A' for Active; 'I' for Inactive)
REMARK       I    between atoms: C_2  and  N_14 
REMARK    1  A    between atoms: C_2  and  C_3 
REMARK    2  A    between atoms: C_3  and  N_5 
REMARK    3  A    between atoms: C_11  and  C_13 
REMARK    4  A    between atoms: C_13  and  N_14 
ROOT
HETATM    1  C           1     -21.144  -4.042  -8.606  0.00  0.00     0.248 C 
HETATM    2  O           1     -20.367  -4.235  -9.511  0.00  0.00    -0.271 OA
HETATM    3  H           1     -23.091  -3.533  -8.121  0.00  0.00     0.163 HD
HETATM    4  N           1     -22.440  -3.696  -8.879  0.00  0.00    -0.349 N 
ENDROOT
BRANCH   1   5
HETATM    5  C           1     -20.685  -4.181  -7.175  0.00  0.00     0.270 C 
HETATM    6  C           1     -19.277  -4.762  -7.147  0.00  0.00     0.050 C 
BRANCH   5   7
HETATM    7  N           1     -21.617  -5.096  -6.439  0.00  0.00    -0.067 N 
HETATM    8  H           1     -21.321  -6.088  -6.586  0.00  0.00     0.275 HD
HETATM    9  H           1     -21.592  -4.873  -5.419  0.00  0.00     0.275 HD
HETATM   10  H           1     -22.590  -4.966  -6.800  0.00  0.00     0.275 HD
ENDBRANCH   5   7
ENDBRANCH   1   5
BRANCH   4  11
HETATM   11  C           1     -22.881  -3.562 -10.254  0.00  0.00     0.235 C 
BRANCH  11  12
HETATM   12  C           1     -24.352  -3.884 -10.346  0.00  0.00     0.191 C 
HETATM   13  O           1     -24.798  -4.923  -9.812  0.00  0.00    -0.647 OA
HETATM   14  O           1     -25.124  -3.114 -10.955  0.00  0.00    -0.647 OA
ENDBRANCH  11  12
ENDBRANCH   4  11
TORSDOF 4
ENDMDL
MODEL 7
REMARK VINA RESULT:      -4.5      9.329     10.436
REMARK  4 active torsions:
REMARK  status: ('A' for Active; 'I' for Inactive)
REMARK       I    between atoms: C_2  and  N_14 
REMARK    1  A    between atoms: C_2  and  C_3 
REMARK    2  A    between atoms: C_3  and  N_5 
REMARK    3  A    between atoms: C_11  and  C_13 
REMARK    4  A    between atoms: C_13  and  N_14 
ROOT
HETATM    1  C           1     -22.787  -4.058  -9.145  0.00  0.00     0.248 C 
HETATM    2  O           1     -21.887  -3.623  -9.824  0.00  0.00    -0.271 OA
HETATM    3  H           1     -23.419  -4.446  -7.213  0.00  0.00     0.163 HD
HETATM    4  N           1     -22.666  -4.082  -7.782  0.00  0.00    -0.349 N 
ENDROOT
BRANCH   1   5
HETATM    5  C           1     -24.045  -4.574  -9.800  0.00  0.00     0.270 C 
HETATM    6  C           1     -23.768  -4.873 -11.268  0.00  0.00     0.050 C 
BRANCH   5   7
HETATM    7  N           1     -25.123  -3.537  -9.697  0.00  0.00    -0.067 N 
HETATM    8  H           1     -24.886  -2.725 -10.310  0.00  0.00     0.275 HD
HETATM    9  H           1     -26.034  -3.948 -10.002  0.00  0.00     0.275 HD
HETATM   10  H           1     -25.202  -3.214  -8.706  0.00  0.00     0.275 HD
ENDBRANCH   5   7
ENDBRANCH   1   5
BRANCH   4  11
HETATM   11  C           1     -21.457  -3.586  -7.153  0.00  0.00     0.235 C 
BRANCH  11  12
HETATM   12  C           1     -20.734  -4.727  -6.480  0.00  0.00     0.191 C 
HETATM   13  O           1     -20.655  -5.838  -7.047  0.00  0.00    -0.647 OA
HETATM   14  O           1     -20.215  -4.561  -5.355  0.00  0.00    -0.647 OA
ENDBRANCH  11  12
ENDBRANCH   4  11
TORSDOF 4
ENDMDL
MODEL 8
REMARK VINA RESULT:      -4.4      8.217      9.192
REMARK  4 active torsions:
REMARK  status: ('A' for Active; 'I' for Inactive)
REMARK       I    between atoms: C_2  and  N_14 
REMARK    1  A    between atoms: C_2  and  C_3 
REMARK    2  A    between atoms: C_3  and  N_5 
REMARK    3  A    between atoms: C_11  and  C_13 
REMARK    4  A    between atoms: C_13  and  N_14 
ROOT
HETATM    1  C           1     -34.883  -4.940 -11.727  0.00  0.00     0.248 C 
HETATM    2  O           1     -35.136  -4.741 -12.892  0.00  0.00    -0.271 OA
HETATM    3  H           1     -34.850  -4.107  -9.833  0.00  0.00     0.163 HD
HETATM    4  N           1     -35.062  -3.941 -10.808  0.00  0.00    -0.349 N 
ENDROOT
BRANCH   1   5
HETATM    5  C           1     -34.370  -6.289 -11.286  0.00  0.00     0.270 C 
HETATM    6  C           1     -34.868  -6.587  -9.878  0.00  0.00     0.050 C 
BRANCH   5   7
HETATM    7  N           1     -32.870  -6.278 -11.293  0.00  0.00    -0.067 N 
HETATM    8  H           1     -32.529  -5.299 -11.422  0.00  0.00     0.275 HD
HETATM    9  H           1     -32.515  -6.655 -10.385  0.00  0.00     0.275 HD
HETATM   10  H           1     -32.522  -6.875 -12.077  0.00  0.00     0.275 HD
ENDBRANCH   5   7
ENDBRANCH   1   5
BRANCH   4  11
HETATM   11  C           1     -35.555  -2.645 -11.233  0.00  0.00     0.235 C 
BRANCH  11  12
HETATM   12  C           1     -34.421  -1.650 -11.235  0.00  0.00     0.191 C 
HETATM   13  O           1     -34.505  -0.610 -11.923  0.00  0.00    -0.647 OA
HETATM   14  O           1     -33.399  -1.866 -10.550  0.00  0.00    -0.647 OA
ENDBRANCH  11  12
ENDBRANCH   4  11
TORSDOF 4
ENDMDL
MODEL 9
REMARK VINA RESULT:      -4.3      9.353     10.997
REMARK  4 active torsions:
REMARK  status: ('A' for Active; 'I' for Inactive)
REMARK       I    between atoms: C_2  and  N_14 
REMARK    1  A    between atoms: C_2  and  C_3 
REMARK    2  A    between atoms: C_3  and  N_5 
REMARK    3  A    between atoms: C_11  and  C_13 
REMARK    4  A    between atoms: C_13  and  N_14 
ROOT
HETATM    1  C           1     -21.275  -4.982  -7.883  0.00  0.00     0.248 C 
HETATM    2  O           1     -20.549  -5.932  -8.057  0.00  0.00    -0.271 OA
HETATM    3  H           1     -22.081  -3.283  -8.747  0.00  0.00     0.163 HD
HETATM    4  N           1     -21.473  -4.079  -8.892  0.00  0.00    -0.349 N 
ENDROOT
BRANCH   1   5
HETATM    5  C           1     -21.962  -4.792  -6.553  0.00  0.00     0.270 C 
HETATM    6  C           1     -21.725  -6.015  -5.678  0.00  0.00     0.050 C 
BRANCH   5   7
HETATM    7  N           1     -23.435  -4.614  -6.773  0.00  0.00    -0.067 N 
HETATM    8  H           1     -23.863  -4.168  -5.931  0.00  0.00     0.275 HD
HETATM    9  H           1     -23.592  -4.005  -7.607  0.00  0.00     0.275 HD
HETATM   10  H           1     -23.877  -5.547  -6.936  0.00  0.00     0.275 HD
ENDBRANCH   5   7
ENDBRANCH   1   5
BRANCH   4  11
HETATM   11  C           1     -20.813  -4.262 -10.170  0.00  0.00     0.235 C 
BRANCH  11  12
HETATM   12  C           1     -21.696  -3.736 -11.274  0.00  0.00     0.191 C 
HETATM   13  O           1     -21.570  -2.555 -11.665  0.00  0.00    -0.647 OA
HETATM   14  O           1     -22.552  -4.480 -11.798  0.00  0.00    -0.647 OA
ENDBRANCH  11  12
ENDBRANCH   4  11
TORSDOF 4
ENDMDL
