MODEL 1
REMARK VINA RESULT:      -6.3      0.000      0.000
REMARK  8 active torsions:
REMARK  status: ('A' for Active; 'I' for Inactive)
REMARK    1  A    between atoms: C_1  and  C_19 
REMARK    2  A    between atoms: C_1  and  C_2 
REMARK    3  A    between atoms: C_1  and  N_10 
REMARK    4  A    between atoms: C_2  and  C_3 
REMARK    5  A    between atoms: C_5  and  C_7 
REMARK    6  A    between atoms: C_7  and  C_12 
REMARK    7  A    between atoms: C_8  and  C_12 
REMARK    8  A    between atoms: C_12  and  N_18 
REMARK       I    between atoms: N_18  and  C_19 
ROOT
HETATM    1  O           1     -34.488  -3.028 -13.467  0.00  0.00    -0.271 OA
HETATM    2  H           1     -35.024  -0.652 -11.491  0.00  0.00     0.163 HD
HETATM    3  N           1     -35.087  -1.194 -12.343  0.00  0.00    -0.344 N 
HETATM    4  C           1     -34.414  -2.382 -12.449  0.00  0.00     0.249 C 
ENDROOT
BRANCH   4   5
HETATM    5  C           1     -33.580  -2.883 -11.296  0.00  0.00     0.284 C 
BRANCH   5   6
HETATM    6  C           1     -34.258  -4.092 -10.666  0.00  0.00     0.155 C 
BRANCH   6   7
HETATM    7  C           1     -33.536  -5.350 -11.084  0.00  0.00     0.175 C 
HETATM    8  O           1     -34.019  -6.469 -10.804  0.00  0.00    -0.648 OA
HETATM    9  O           1     -32.458  -5.272 -11.709  0.00  0.00    -0.648 OA
ENDBRANCH   6   7
ENDBRANCH   5   6
BRANCH   5  10
HETATM   10  N           1     -33.442  -1.797 -10.271  0.00  0.00    -0.066 N 
HETATM   11  H           1     -34.247  -1.840  -9.606  0.00  0.00     0.275 HD
HETATM   12  H           1     -32.549  -1.929  -9.744  0.00  0.00     0.275 HD
HETATM   13  H           1     -33.432  -0.867 -10.748  0.00  0.00     0.275 HD
ENDBRANCH   5  10
ENDBRANCH   4   5
BRANCH   3  14
HETATM   14  C           1     -35.888  -0.712 -13.451  0.00  0.00     0.195 C 
BRANCH  14  15
HETATM   15  C           1     -37.136  -0.024 -12.912  0.00  0.00     0.149 C 
BRANCH  15  16
HETATM   16  C           1     -37.188  -0.179 -11.413  0.00  0.00     0.175 C 
HETATM   17  O           1     -37.917  -1.056 -10.899  0.00  0.00    -0.648 OA
HETATM   18  O           1     -36.502   0.569 -10.683  0.00  0.00    -0.648 OA
ENDBRANCH  15  16
ENDBRANCH  14  15
BRANCH  14  19
HETATM   19  C           1     -35.082   0.271 -14.263  0.00  0.00     0.197 C 
HETATM   20  O           1     -34.732   1.361 -13.761  0.00  0.00    -0.646 OA
HETATM   21  O           1     -34.762  -0.005 -15.440  0.00  0.00    -0.646 OA
ENDBRANCH  14  19
ENDBRANCH   3  14
TORSDOF 8
ENDMDL
MODEL 2
REMARK VINA RESULT:      -6.2     10.270     11.721
REMARK  8 active torsions:
REMARK  status: ('A' for Active; 'I' for Inactive)
REMARK    1  A    between atoms: C_1  and  C_19 
REMARK    2  A    between atoms: C_1  and  C_2 
REMARK    3  A    between atoms: C_1  and  N_10 
REMARK    4  A    between atoms: C_2  and  C_3 
REMARK    5  A    between atoms: C_5  and  C_7 
REMARK    6  A    between atoms: C_7  and  C_12 
REMARK    7  A    between atoms: C_8  and  C_12 
REMARK    8  A    between atoms: C_12  and  N_18 
REMARK       I    between atoms: N_18  and  C_19 
ROOT
HETATM    1  O           1     -25.894  -6.322 -17.296  0.00  0.00    -0.271 OA
HETATM    2  H           1     -27.573  -6.445 -19.943  0.00  0.00     0.163 HD
HETATM    3  N           1     -27.394  -6.367 -18.950  0.00  0.00    -0.344 N 
HETATM    4  C           1     -26.108  -6.413 -18.481  0.00  0.00     0.249 C 
ENDROOT
BRANCH   4   5
HETATM    5  C           1     -24.958  -6.580 -19.444  0.00  0.00     0.284 C 
BRANCH   5   6
HETATM    6  C           1     -25.479  -6.511 -20.874  0.00  0.00     0.155 C 
BRANCH   6   7
HETATM    7  C           1     -25.522  -7.900 -21.462  0.00  0.00     0.175 C 
HETATM    8  O           1     -26.535  -8.614 -21.304  0.00  0.00    -0.648 OA
HETATM    9  O           1     -24.545  -8.335 -22.108  0.00  0.00    -0.648 OA
ENDBRANCH   6   7
ENDBRANCH   5   6
BRANCH   5  10
HETATM   10  N           1     -24.303  -7.910 -19.216  0.00  0.00    -0.066 N 
HETATM   11  H           1     -24.029  -8.326 -20.134  0.00  0.00     0.275 HD
HETATM   12  H           1     -23.452  -7.780 -18.624  0.00  0.00     0.275 HD
HETATM   13  H           1     -24.973  -8.548 -18.729  0.00  0.00     0.275 HD
ENDBRANCH   5  10
ENDBRANCH   4   5
BRANCH   3  14
HETATM   14  C           1     -28.498  -6.207 -18.025  0.00  0.00     0.195 C 
BRANCH  14  15
HETATM   15  C           1     -29.177  -4.867 -18.273  0.00  0.00     0.149 C 
BRANCH  15  16
HETATM   16  C           1     -28.705  -3.867 -17.247  0.00  0.00     0.175 C 
HETATM   17  O           1     -27.971  -4.236 -16.305  0.00  0.00    -0.648 OA
HETATM   18  O           1     -29.047  -2.668 -17.340  0.00  0.00    -0.648 OA
ENDBRANCH  15  16
ENDBRANCH  14  15
BRANCH  14  19
HETATM   19  C           1     -29.493  -7.323 -18.234  0.00  0.00     0.197 C 
HETATM   20  O           1     -30.464  -7.450 -17.457  0.00  0.00    -0.646 OA
HETATM   21  O           1     -29.345  -8.120 -19.185  0.00  0.00    -0.646 OA
ENDBRANCH  14  19
ENDBRANCH   3  14
TORSDOF 8
ENDMDL
MODEL 3
REMARK VINA RESULT:      -6.2     11.715     13.828
REMARK  8 active torsions:
REMARK  status: ('A' for Active; 'I' for Inactive)
REMARK    1  A    between atoms: C_1  and  C_19 
REMARK    2  A    between atoms: C_1  and  C_2 
REMARK    3  A    between atoms: C_1  and  N_10 
REMARK    4  A    between atoms: C_2  and  C_3 
REMARK    5  A    between atoms: C_5  and  C_7 
REMARK    6  A    between atoms: C_7  and  C_12 
REMARK    7  A    between atoms: C_8  and  C_12 
REMARK    8  A    between atoms: C_12  and  N_18 
REMARK       I    between atoms: N_18  and  C_19 
ROOT
HETATM    1  O           1     -20.414  -5.216  -8.582  0.00  0.00    -0.271 OA
HETATM    2  H           1     -23.085  -3.640  -9.054  0.00  0.00     0.163 HD
HETATM    3  N           1     -22.258  -4.174  -9.289  0.00  0.00    -0.344 N 
HETATM    4  C           1     -21.402  -4.580  -8.301  0.00  0.00     0.249 C 
ENDROOT
BRANCH   4   5
HETATM    5  C           1     -21.691  -4.232  -6.861  0.00  0.00     0.284 C 
BRANCH   5   6
HETATM    6  C           1     -20.628  -4.854  -5.965  0.00  0.00     0.155 C 
BRANCH   6   7
HETATM    7  C           1     -21.216  -6.033  -5.230  0.00  0.00     0.175 C 
HETATM    8  O           1     -21.242  -7.158  -5.773  0.00  0.00    -0.648 OA
HETATM    9  O           1     -21.676  -5.885  -4.078  0.00  0.00    -0.648 OA
ENDBRANCH   6   7
ENDBRANCH   5   6
BRANCH   5  10
HETATM   10  N           1     -23.040  -4.765  -6.479  0.00  0.00    -0.066 N 
HETATM   11  H           1     -23.202  -5.679  -6.958  0.00  0.00     0.275 HD
HETATM   12  H           1     -23.078  -4.903  -5.444  0.00  0.00     0.275 HD
HETATM   13  H           1     -23.778  -4.083  -6.769  0.00  0.00     0.275 HD
ENDBRANCH   5  10
ENDBRANCH   4   5
BRANCH   3  14
HETATM   14  C           1     -21.981  -4.508 -10.672  0.00  0.00     0.195 C 
BRANCH  14  15
HETATM   15  C           1     -23.293  -4.731 -11.413  0.00  0.00     0.149 C 
BRANCH  15  16
HETATM   16  C           1     -24.438  -4.223 -10.572  0.00  0.00     0.175 C 
HETATM   17  O           1     -24.903  -3.080 -10.772  0.00  0.00    -0.648 OA
HETATM   18  O           1     -24.922  -4.946  -9.673  0.00  0.00    -0.648 OA
ENDBRANCH  15  16
ENDBRANCH  14  15
BRANCH  14  19
HETATM   19  C           1     -21.223  -3.376 -11.320  0.00  0.00     0.197 C 
HETATM   20  O           1     -19.979  -3.438 -11.430  0.00  0.00    -0.646 OA
HETATM   21  O           1     -21.838  -2.375 -11.746  0.00  0.00    -0.646 OA
ENDBRANCH  14  19
ENDBRANCH   3  14
TORSDOF 8
ENDMDL
MODEL 4
REMARK VINA RESULT:      -6.1      2.522      5.382
REMARK  8 active torsions:
REMARK  status: ('A' for Active; 'I' for Inactive)
REMARK    1  A    between atoms: C_1  and  C_19 
REMARK    2  A    between atoms: C_1  and  C_2 
REMARK    3  A    between atoms: C_1  and  N_10 
REMARK    4  A    between atoms: C_2  and  C_3 
REMARK    5  A    between atoms: C_5  and  C_7 
REMARK    6  A    between atoms: C_7  and  C_12 
REMARK    7  A    between atoms: C_8  and  C_12 
REMARK    8  A    between atoms: C_12  and  N_18 
REMARK       I    between atoms: N_18  and  C_19 
ROOT
HETATM    1  O           1     -38.032  -0.623 -13.220  0.00  0.00    -0.271 OA
HETATM    2  H           1     -35.410   0.286 -11.757  0.00  0.00     0.163 HD
HETATM    3  N           1     -36.345  -0.086 -11.857  0.00  0.00    -0.344 N 
HETATM    4  C           1     -36.914  -0.181 -13.100  0.00  0.00     0.249 C 
ENDROOT
BRANCH   4   5
HETATM    5  C           1     -36.145   0.269 -14.318  0.00  0.00     0.284 C 
BRANCH   5   6
HETATM    6  C           1     -37.117   0.558 -15.454  0.00  0.00     0.155 C 
BRANCH   6   7
HETATM    7  C           1     -37.185  -0.636 -16.375  0.00  0.00     0.175 C 
HETATM    8  O           1     -38.075  -1.500 -16.213  0.00  0.00    -0.648 OA
HETATM    9  O           1     -36.354  -0.761 -17.299  0.00  0.00    -0.648 OA
ENDBRANCH   6   7
ENDBRANCH   5   6
BRANCH   5  10
HETATM   10  N           1     -35.196  -0.815 -14.737  0.00  0.00    -0.066 N 
HETATM   11  H           1     -34.958  -1.408 -13.911  0.00  0.00     0.275 HD
HETATM   12  H           1     -35.646  -1.405 -15.472  0.00  0.00     0.275 HD
HETATM   13  H           1     -34.324  -0.384 -15.120  0.00  0.00     0.275 HD
ENDBRANCH   5  10
ENDBRANCH   4   5
BRANCH   3  14
HETATM   14  C           1     -37.084  -0.518 -10.687  0.00  0.00     0.195 C 
BRANCH  14  15
HETATM   15  C           1     -36.556  -1.869 -10.224  0.00  0.00     0.149 C 
BRANCH  15  16
HETATM   16  C           1     -35.297  -2.205 -10.985  0.00  0.00     0.175 C 
HETATM   17  O           1     -34.189  -1.801 -10.570  0.00  0.00    -0.648 OA
HETATM   18  O           1     -35.363  -2.887 -12.030  0.00  0.00    -0.648 OA
ENDBRANCH  15  16
ENDBRANCH  14  15
BRANCH  14  19
HETATM   19  C           1     -36.910   0.497  -9.582  0.00  0.00     0.197 C 
HETATM   20  O           1     -36.161   0.246  -8.614  0.00  0.00    -0.646 OA
HETATM   21  O           1     -37.516   1.588  -9.637  0.00  0.00    -0.646 OA
ENDBRANCH  14  19
ENDBRANCH   3  14
TORSDOF 8
ENDMDL
MODEL 5
REMARK VINA RESULT:      -6.1      9.290     11.009
REMARK  8 active torsions:
REMARK  status: ('A' for Active; 'I' for Inactive)
REMARK    1  A    between atoms: C_1  and  C_19 
REMARK    2  A    between atoms: C_1  and  C_2 
REMARK    3  A    between atoms: C_1  and  N_10 
REMARK    4  A    between atoms: C_2  and  C_3 
REMARK    5  A    between atoms: C_5  and  C_7 
REMARK    6  A    between atoms: C_7  and  C_12 
REMARK    7  A    between atoms: C_8  and  C_12 
REMARK    8  A    between atoms: C_12  and  N_18 
REMARK       I    between atoms: N_18  and  C_19 
ROOT
HETATM    1  O           1     -26.647  -7.376 -15.278  0.00  0.00    -0.271 OA
HETATM    2  H           1     -27.635  -6.191 -18.010  0.00  0.00     0.163 HD
HETATM    3  N           1     -27.702  -6.571 -17.074  0.00  0.00    -0.344 N 
HETATM    4  C           1     -26.566  -6.921 -16.394  0.00  0.00     0.249 C 
ENDROOT
BRANCH   4   5
HETATM    5  C           1     -25.214  -6.741 -17.040  0.00  0.00     0.284 C 
BRANCH   5   6
HETATM    6  C           1     -25.377  -6.685 -18.553  0.00  0.00     0.155 C 
BRANCH   6   7
HETATM    7  C           1     -24.100  -7.142 -19.215  0.00  0.00     0.175 C 
HETATM    8  O           1     -24.143  -7.971 -20.150  0.00  0.00    -0.648 OA
HETATM    9  O           1     -23.001  -6.691 -18.829  0.00  0.00    -0.648 OA
ENDBRANCH   6   7
ENDBRANCH   5   6
BRANCH   5  10
HETATM   10  N           1     -24.329  -7.895 -16.676  0.00  0.00    -0.066 N 
HETATM   11  H           1     -24.817  -8.792 -16.896  0.00  0.00     0.275 HD
HETATM   12  H           1     -23.441  -7.839 -17.225  0.00  0.00     0.275 HD
HETATM   13  H           1     -24.111  -7.857 -15.654  0.00  0.00     0.275 HD
ENDBRANCH   5  10
ENDBRANCH   4   5
BRANCH   3  14
HETATM   14  C           1     -29.001  -6.744 -16.454  0.00  0.00     0.195 C 
BRANCH  14  15
HETATM   15  C           1     -29.556  -5.385 -16.049  0.00  0.00     0.149 C 
BRANCH  15  16
HETATM   16  C           1     -28.923  -4.311 -16.899  0.00  0.00     0.175 C 
HETATM   17  O           1     -29.379  -4.065 -18.037  0.00  0.00    -0.648 OA
HETATM   18  O           1     -27.944  -3.666 -16.465  0.00  0.00    -0.648 OA
ENDBRANCH  15  16
ENDBRANCH  14  15
BRANCH  14  19
HETATM   19  C           1     -29.942  -7.400 -17.435  0.00  0.00     0.197 C 
HETATM   20  O           1     -31.128  -7.016 -17.518  0.00  0.00    -0.646 OA
HETATM   21  O           1     -29.533  -8.329 -18.166  0.00  0.00    -0.646 OA
ENDBRANCH  14  19
ENDBRANCH   3  14
TORSDOF 8
ENDMDL
MODEL 6
REMARK VINA RESULT:      -5.8     10.557     12.341
REMARK  8 active torsions:
REMARK  status: ('A' for Active; 'I' for Inactive)
REMARK    1  A    between atoms: C_1  and  C_19 
REMARK    2  A    between atoms: C_1  and  C_2 
REMARK    3  A    between atoms: C_1  and  N_10 
REMARK    4  A    between atoms: C_2  and  C_3 
REMARK    5  A    between atoms: C_5  and  C_7 
REMARK    6  A    between atoms: C_7  and  C_12 
REMARK    7  A    between atoms: C_8  and  C_12 
REMARK    8  A    between atoms: C_12  and  N_18 
REMARK       I    between atoms: N_18  and  C_19 
ROOT
HETATM    1  O           1     -24.761  -6.450 -18.282  0.00  0.00    -0.271 OA
HETATM    2  H           1     -27.872  -6.825 -18.440  0.00  0.00     0.163 HD
HETATM    3  N           1     -26.981  -6.540 -18.054  0.00  0.00    -0.344 N 
HETATM    4  C           1     -25.825  -6.789 -18.744  0.00  0.00     0.249 C 
ENDROOT
BRANCH   4   5
HETATM    5  C           1     -25.879  -7.487 -20.081  0.00  0.00     0.284 C 
BRANCH   5   6
HETATM    6  C           1     -25.006  -6.739 -21.080  0.00  0.00     0.155 C 
BRANCH   6   7
HETATM    7  C           1     -23.981  -7.684 -21.660  0.00  0.00     0.175 C 
HETATM    8  O           1     -23.246  -8.351 -20.900  0.00  0.00    -0.648 OA
HETATM    9  O           1     -23.868  -7.799 -22.898  0.00  0.00    -0.648 OA
ENDBRANCH   6   7
ENDBRANCH   5   6
BRANCH   5  10
HETATM   10  N           1     -27.295  -7.511 -20.575  0.00  0.00    -0.066 N 
HETATM   11  H           1     -27.772  -6.621 -20.308  0.00  0.00     0.275 HD
HETATM   12  H           1     -27.298  -7.609 -21.615  0.00  0.00     0.275 HD
HETATM   13  H           1     -27.799  -8.320 -20.146  0.00  0.00     0.275 HD
ENDBRANCH   5  10
ENDBRANCH   4   5
BRANCH   3  14
HETATM   14  C           1     -26.929  -5.869 -16.769  0.00  0.00     0.195 C 
BRANCH  14  15
HETATM   15  C           1     -28.192  -5.040 -16.579  0.00  0.00     0.149 C 
BRANCH  15  16
HETATM   16  C           1     -29.165  -5.342 -17.692  0.00  0.00     0.175 C 
HETATM   17  O           1     -29.953  -6.307 -17.589  0.00  0.00    -0.648 OA
HETATM   18  O           1     -29.182  -4.628 -18.718  0.00  0.00    -0.648 OA
ENDBRANCH  15  16
ENDBRANCH  14  15
BRANCH  14  19
HETATM   19  C           1     -26.832  -6.899 -15.670  0.00  0.00     0.197 C 
HETATM   20  O           1     -27.862  -7.272 -15.069  0.00  0.00    -0.646 OA
HETATM   21  O           1     -25.720  -7.378 -15.361  0.00  0.00    -0.646 OA
ENDBRANCH  14  19
ENDBRANCH   3  14
TORSDOF 8
ENDMDL
MODEL 7
REMARK VINA RESULT:      -5.8     11.939     14.216
REMARK  8 active torsions:
REMARK  status: ('A' for Active; 'I' for Inactive)
REMARK    1  A    between atoms: C_1  and  C_19 
REMARK    2  A    between atoms: C_1  and  C_2 
REMARK    3  A    between atoms: C_1  and  N_10 
REMARK    4  A    between atoms: C_2  and  C_3 
REMARK    5  A    between atoms: C_5  and  C_7 
REMARK    6  A    between atoms: C_7  and  C_12 
REMARK    7  A    between atoms: C_8  and  C_12 
REMARK    8  A    between atoms: C_12  and  N_18 
REMARK       I    between atoms: N_18  and  C_19 
ROOT
HETATM    1  O           1     -21.608  -3.271  -7.150  0.00  0.00    -0.271 OA
HETATM    2  H           1     -22.686  -5.467  -9.114  0.00  0.00     0.163 HD
HETATM    3  N           1     -22.522  -4.539  -8.745  0.00  0.00    -0.344 N 
HETATM    4  C           1     -21.803  -4.379  -7.591  0.00  0.00     0.249 C 
ENDROOT
BRANCH   4   5
HETATM    5  C           1     -21.254  -5.585  -6.870  0.00  0.00     0.284 C 
BRANCH   5   6
HETATM    6  C           1     -20.817  -5.183  -5.467  0.00  0.00     0.155 C 
BRANCH   6   7
HETATM    7  C           1     -21.199  -6.267  -4.490  0.00  0.00     0.175 C 
HETATM    8  O           1     -20.727  -7.418  -4.616  0.00  0.00    -0.648 OA
HETATM    9  O           1     -21.988  -6.016  -3.554  0.00  0.00    -0.648 OA
ENDBRANCH   6   7
ENDBRANCH   5   6
BRANCH   5  10
HETATM   10  N           1     -20.076  -6.126  -7.624  0.00  0.00    -0.066 N 
HETATM   11  H           1     -19.285  -5.445  -7.569  0.00  0.00     0.275 HD
HETATM   12  H           1     -19.782  -7.036  -7.204  0.00  0.00     0.275 HD
HETATM   13  H           1     -20.342  -6.272  -8.625  0.00  0.00     0.275 HD
ENDBRANCH   5  10
ENDBRANCH   4   5
BRANCH   3  14
HETATM   14  C           1     -23.049  -3.380  -9.439  0.00  0.00     0.195 C 
BRANCH  14  15
HETATM   15  C           1     -22.072  -2.950 -10.524  0.00  0.00     0.149 C 
BRANCH  15  16
HETATM   16  C           1     -21.384  -4.167 -11.092  0.00  0.00     0.175 C 
HETATM   17  O           1     -21.915  -4.808 -12.024  0.00  0.00    -0.648 OA
HETATM   18  O           1     -20.282  -4.535 -10.629  0.00  0.00    -0.648 OA
ENDBRANCH  15  16
ENDBRANCH  14  15
BRANCH  14  19
HETATM   19  C           1     -24.376  -3.732 -10.066  0.00  0.00     0.197 C 
HETATM   20  O           1     -24.941  -4.808  -9.774  0.00  0.00    -0.646 OA
HETATM   21  O           1     -24.911  -2.946 -10.878  0.00  0.00    -0.646 OA
ENDBRANCH  14  19
ENDBRANCH   3  14
TORSDOF 8
ENDMDL
MODEL 8
REMARK VINA RESULT:      -5.8      2.050      5.431
REMARK  8 active torsions:
REMARK  status: ('A' for Active; 'I' for Inactive)
REMARK    1  A    between atoms: C_1  and  C_19 
REMARK    2  A    between atoms: C_1  and  C_2 
REMARK    3  A    between atoms: C_1  and  N_10 
REMARK    4  A    between atoms: C_2  and  C_3 
REMARK    5  A    between atoms: C_5  and  C_7 
REMARK    6  A    between atoms: C_7  and  C_12 
REMARK    7  A    between atoms: C_8  and  C_12 
REMARK    8  A    between atoms: C_12  and  N_18 
REMARK       I    between atoms: N_18  and  C_19 
ROOT
HETATM    1  O           1     -36.984  -0.983 -12.764  0.00  0.00    -0.271 OA
HETATM    2  H           1     -33.925  -1.070 -13.453  0.00  0.00     0.163 HD
HETATM    3  N           1     -34.790  -1.331 -12.999  0.00  0.00    -0.344 N 
HETATM    4  C           1     -35.951  -0.672 -13.308  0.00  0.00     0.249 C 
ENDROOT
BRANCH   4   5
HETATM    5  C           1     -35.939   0.441 -14.326  0.00  0.00     0.284 C 
BRANCH   5   6
HETATM    6  C           1     -36.851   0.076 -15.489  0.00  0.00     0.155 C 
BRANCH   6   7
HETATM    7  C           1     -36.154  -0.920 -16.383  0.00  0.00     0.175 C 
HETATM    8  O           1     -36.318  -0.869 -17.622  0.00  0.00    -0.648 OA
HETATM    9  O           1     -35.413  -1.794 -15.886  0.00  0.00    -0.648 OA
ENDBRANCH   6   7
ENDBRANCH   5   6
BRANCH   5  10
HETATM   10  N           1     -34.540   0.640 -14.832  0.00  0.00    -0.066 N 
HETATM   11  H           1     -34.571   0.929 -15.836  0.00  0.00     0.275 HD
HETATM   12  H           1     -34.071   1.385 -14.270  0.00  0.00     0.275 HD
HETATM   13  H           1     -34.007  -0.255 -14.742  0.00  0.00     0.275 HD
ENDBRANCH   5  10
ENDBRANCH   4   5
BRANCH   3  14
HETATM   14  C           1     -34.802  -2.401 -12.020  0.00  0.00     0.195 C 
BRANCH  14  15
HETATM   15  C           1     -33.800  -3.473 -12.429  0.00  0.00     0.149 C 
BRANCH  15  16
HETATM   16  C           1     -34.352  -4.834 -12.084  0.00  0.00     0.175 C 
HETATM   17  O           1     -35.192  -5.377 -12.833  0.00  0.00    -0.648 OA
HETATM   18  O           1     -33.968  -5.418 -11.047  0.00  0.00    -0.648 OA
ENDBRANCH  15  16
ENDBRANCH  14  15
BRANCH  14  19
HETATM   19  C           1     -34.424  -1.847 -10.668  0.00  0.00     0.197 C 
HETATM   20  O           1     -33.229  -1.849 -10.302  0.00  0.00    -0.646 OA
HETATM   21  O           1     -35.308  -1.387  -9.913  0.00  0.00    -0.646 OA
ENDBRANCH  14  19
ENDBRANCH   3  14
TORSDOF 8
ENDMDL
MODEL 9
REMARK VINA RESULT:      -5.4     12.354     15.337
REMARK  8 active torsions:
REMARK  status: ('A' for Active; 'I' for Inactive)
REMARK    1  A    between atoms: C_1  and  C_19 
REMARK    2  A    between atoms: C_1  and  C_2 
REMARK    3  A    between atoms: C_1  and  N_10 
REMARK    4  A    between atoms: C_2  and  C_3 
REMARK    5  A    between atoms: C_5  and  C_7 
REMARK    6  A    between atoms: C_7  and  C_12 
REMARK    7  A    between atoms: C_8  and  C_12 
REMARK    8  A    between atoms: C_12  and  N_18 
REMARK       I    between atoms: N_18  and  C_19 
ROOT
HETATM    1  O           1     -20.496  -3.885  -6.991  0.00  0.00    -0.271 OA
HETATM    2  H           1     -23.026  -5.738  -7.059  0.00  0.00     0.163 HD
HETATM    3  N           1     -22.132  -5.383  -6.742  0.00  0.00    -0.344 N 
HETATM    4  C           1     -21.563  -4.306  -7.368  0.00  0.00     0.249 C 
ENDROOT
BRANCH   4   5
HETATM    5  C           1     -22.268  -3.648  -8.528  0.00  0.00     0.284 C 
BRANCH   5   6
HETATM    6  C           1     -23.643  -4.278  -8.712  0.00  0.00     0.155 C 
BRANCH   6   7
HETATM    7  C           1     -24.367  -3.588  -9.841  0.00  0.00     0.175 C 
HETATM    8  O           1     -24.047  -3.826 -11.027  0.00  0.00    -0.648 OA
HETATM    9  O           1     -25.285  -2.779  -9.593  0.00  0.00    -0.648 OA
ENDBRANCH   6   7
ENDBRANCH   5   6
BRANCH   5  10
HETATM   10  N           1     -21.461  -3.839  -9.777  0.00  0.00    -0.066 N 
HETATM   11  H           1     -21.604  -4.809 -10.140  0.00  0.00     0.275 HD
HETATM   12  H           1     -21.769  -3.149 -10.499  0.00  0.00     0.275 HD
HETATM   13  H           1     -20.448  -3.692  -9.563  0.00  0.00     0.275 HD
ENDBRANCH   5  10
ENDBRANCH   4   5
BRANCH   3  14
HETATM   14  C           1     -21.455  -6.017  -5.628  0.00  0.00     0.195 C 
BRANCH  14  15
HETATM   15  C           1     -22.486  -6.492  -4.612  0.00  0.00     0.149 C 
BRANCH  15  16
HETATM   16  C           1     -21.875  -6.480  -3.233  0.00  0.00     0.175 C 
HETATM   17  O           1     -22.381  -5.779  -2.331  0.00  0.00    -0.648 OA
HETATM   18  O           1     -20.862  -7.172  -2.992  0.00  0.00    -0.648 OA
ENDBRANCH  15  16
ENDBRANCH  14  15
BRANCH  14  19
HETATM   19  C           1     -20.660  -7.197  -6.129  0.00  0.00     0.197 C 
HETATM   20  O           1     -19.511  -7.027  -6.591  0.00  0.00    -0.646 OA
HETATM   21  O           1     -21.150  -8.346  -6.082  0.00  0.00    -0.646 OA
ENDBRANCH  14  19
ENDBRANCH   3  14
TORSDOF 8
ENDMDL
