MODEL 1
REMARK VINA RESULT:      -6.4      0.000      0.000
REMARK  6 active torsions:
REMARK  status: ('A' for Active; 'I' for Inactive)
REMARK    1  A    between atoms: N_5  and  C_6 
REMARK    2  A    between atoms: C_6  and  C_13 
REMARK    3  A    between atoms: C_7  and  C_9 
REMARK    4  A    between atoms: C_9  and  C_17 
REMARK    5  A    between atoms: C_9  and  N_14 
REMARK       I    between atoms: C_13  and  N_14 
REMARK    6  A    between atoms: C_17  and  C_18 
ROOT
HETATM    1  C           1     -28.520  -6.309 -18.129  0.00  0.00     0.191 C 
ENDROOT
BRANCH   1   2
HETATM    2  C           1     -29.534  -7.403 -17.895  0.00  0.00     0.197 C 
HETATM    3  O           1     -30.512  -7.523 -18.665  0.00  0.00    -0.646 OA
HETATM    4  O           1     -29.396  -8.188 -16.933  0.00  0.00    -0.646 OA
ENDBRANCH   1   2
BRANCH   1   5
HETATM    5  C           1     -27.800  -5.998 -16.824  0.00  0.00     0.094 C 
BRANCH   5   6
HETATM    6  C           1     -26.378  -6.457 -16.917  0.00  0.00     0.028 A 
HETATM    7  C           1     -25.557  -6.680 -15.836  0.00  0.00     0.114 A 
HETATM    8  N           1     -24.366  -7.082 -16.374  0.00  0.00    -0.360 N 
HETATM    9  C           1     -24.510  -7.087 -17.733  0.00  0.00     0.180 A 
HETATM   10  H           1     -23.499  -7.340 -15.841  0.00  0.00     0.166 HD
HETATM   11  N           1     -25.716  -6.714 -18.089  0.00  0.00    -0.354 N 
ATOM     12  HN          1     -26.084  -6.632 -19.038  1.00  0.00     0.166 HD
ENDBRANCH   5   6
ENDBRANCH   1   5
BRANCH   1  13
HETATM   13  N           1     -29.197  -5.117 -18.603  0.00  0.00    -0.345 N 
HETATM   14  C           1     -29.622  -4.172 -17.709  0.00  0.00     0.243 C 
HETATM   15  O           1     -28.888  -3.264 -17.396  0.00  0.00    -0.272 OA
HETATM   16  H           1     -29.356  -4.985 -19.593  0.00  0.00     0.163 HD
BRANCH  14  17
HETATM   17  C           1     -31.006  -4.262 -17.115  0.00  0.00     0.332 C 
BRANCH  17  18
HETATM   18  N           1     -31.836  -3.112 -17.601  0.00  0.00    -0.071 N 
HETATM   19  H           1     -32.810  -3.440 -17.790  0.00  0.00     0.274 HD
HETATM   20  H           1     -31.856  -2.365 -16.871  0.00  0.00     0.274 HD
HETATM   21  H           1     -31.421  -2.729 -18.480  0.00  0.00     0.274 HD
ENDBRANCH  17  18
ENDBRANCH  14  17
ENDBRANCH   1  13
TORSDOF 6
ENDMDL
MODEL 2
REMARK VINA RESULT:      -6.2     10.451     12.440
REMARK  6 active torsions:
REMARK  status: ('A' for Active; 'I' for Inactive)
REMARK    1  A    between atoms: N_5  and  C_6 
REMARK    2  A    between atoms: C_6  and  C_13 
REMARK    3  A    between atoms: C_7  and  C_9 
REMARK    4  A    between atoms: C_9  and  C_17 
REMARK    5  A    between atoms: C_9  and  N_14 
REMARK       I    between atoms: C_13  and  N_14 
REMARK    6  A    between atoms: C_17  and  C_18 
ROOT
HETATM    1  C           1     -36.354  -0.268 -11.694  0.00  0.00     0.191 C 
ENDROOT
BRANCH   1   2
HETATM    2  C           1     -35.560  -1.476 -11.258  0.00  0.00     0.197 C 
HETATM    3  O           1     -36.082  -2.611 -11.292  0.00  0.00    -0.646 OA
HETATM    4  O           1     -34.383  -1.341 -10.862  0.00  0.00    -0.646 OA
ENDBRANCH   1   2
BRANCH   1   5
HETATM    5  C           1     -37.616  -0.158 -10.849  0.00  0.00     0.094 C 
BRANCH   5   6
HETATM    6  C           1     -37.284   0.478  -9.535  0.00  0.00     0.028 A 
HETATM    7  C           1     -37.859   1.633  -9.059  0.00  0.00     0.114 A 
HETATM    8  N           1     -37.270   1.846  -7.843  0.00  0.00    -0.360 N 
HETATM    9  C           1     -36.379   0.830  -7.635  0.00  0.00     0.180 A 
HETATM   10  H           1     -37.466   2.643  -7.189  0.00  0.00     0.166 HD
HETATM   11  N           1     -36.367  -0.011  -8.642  0.00  0.00    -0.354 N 
ATOM     12  HN          1     -35.796  -0.851  -8.740  1.00  0.00     0.166 HD
ENDBRANCH   5   6
ENDBRANCH   1   5
BRANCH   1  13
HETATM   13  N           1     -36.718  -0.409 -13.091  0.00  0.00    -0.345 N 
HETATM   14  C           1     -35.749  -0.373 -14.057  0.00  0.00     0.243 C 
HETATM   15  O           1     -35.207  -1.394 -14.408  0.00  0.00    -0.272 OA
HETATM   16  H           1     -37.687  -0.535 -13.351  0.00  0.00     0.163 HD
BRANCH  14  17
HETATM   17  C           1     -35.357   0.943 -14.684  0.00  0.00     0.332 C 
BRANCH  17  18
HETATM   18  N           1     -36.359   1.314 -15.736  0.00  0.00    -0.071 N 
HETATM   19  H           1     -36.107   2.241 -16.147  0.00  0.00     0.274 HD
HETATM   20  H           1     -36.359   0.589 -16.488  0.00  0.00     0.274 HD
HETATM   21  H           1     -37.310   1.371 -15.308  0.00  0.00     0.274 HD
ENDBRANCH  17  18
ENDBRANCH  14  17
ENDBRANCH   1  13
TORSDOF 6
ENDMDL
MODEL 3
REMARK VINA RESULT:      -6.1      2.523      4.735
REMARK  6 active torsions:
REMARK  status: ('A' for Active; 'I' for Inactive)
REMARK    1  A    between atoms: N_5  and  C_6 
REMARK    2  A    between atoms: C_6  and  C_13 
REMARK    3  A    between atoms: C_7  and  C_9 
REMARK    4  A    between atoms: C_9  and  C_17 
REMARK    5  A    between atoms: C_9  and  N_14 
REMARK       I    between atoms: C_13  and  N_14 
REMARK    6  A    between atoms: C_17  and  C_18 
ROOT
HETATM    1  C           1     -27.225  -5.611 -17.922  0.00  0.00     0.191 C 
ENDROOT
BRANCH   1   2
HETATM    2  C           1     -28.248  -4.782 -17.183  0.00  0.00     0.197 C 
HETATM    3  O           1     -29.456  -5.099 -17.222  0.00  0.00    -0.646 OA
HETATM    4  O           1     -27.887  -3.777 -16.534  0.00  0.00    -0.646 OA
ENDBRANCH   1   2
BRANCH   1   5
HETATM    5  C           1     -27.868  -6.226 -19.158  0.00  0.00     0.094 C 
BRANCH   5   6
HETATM    6  C           1     -26.803  -6.783 -20.050  0.00  0.00     0.028 A 
HETATM    7  C           1     -25.696  -6.085 -20.474  0.00  0.00     0.114 A 
HETATM    8  N           1     -25.002  -6.965 -21.258  0.00  0.00    -0.360 N 
HETATM    9  C           1     -25.703  -8.138 -21.278  0.00  0.00     0.180 A 
HETATM   10  H           1     -24.098  -6.774 -21.755  0.00  0.00     0.166 HD
HETATM   11  N           1     -26.796  -8.057 -20.556  0.00  0.00    -0.354 N 
ATOM     12  HN          1     -27.493  -8.786 -20.404  1.00  0.00     0.166 HD
ENDBRANCH   5   6
ENDBRANCH   1   5
BRANCH   1  13
HETATM   13  N           1     -26.742  -6.667 -17.053  0.00  0.00    -0.345 N 
HETATM   14  C           1     -25.472  -6.607 -16.546  0.00  0.00     0.243 C 
HETATM   15  O           1     -25.268  -6.057 -15.489  0.00  0.00    -0.272 OA
HETATM   16  H           1     -27.343  -7.447 -16.821  0.00  0.00     0.163 HD
BRANCH  14  17
HETATM   17  C           1     -24.326  -7.226 -17.307  0.00  0.00     0.332 C 
BRANCH  17  18
HETATM   18  N           1     -23.621  -8.218 -16.431  0.00  0.00    -0.071 N 
HETATM   19  H           1     -22.613  -7.955 -16.346  0.00  0.00     0.274 HD
HETATM   20  H           1     -24.061  -8.220 -15.483  0.00  0.00     0.274 HD
HETATM   21  H           1     -23.697  -9.171 -16.852  0.00  0.00     0.274 HD
ENDBRANCH  17  18
ENDBRANCH  14  17
ENDBRANCH   1  13
TORSDOF 6
ENDMDL
MODEL 4
REMARK VINA RESULT:      -6.0      9.019     10.502
REMARK  6 active torsions:
REMARK  status: ('A' for Active; 'I' for Inactive)
REMARK    1  A    between atoms: N_5  and  C_6 
REMARK    2  A    between atoms: C_6  and  C_13 
REMARK    3  A    between atoms: C_7  and  C_9 
REMARK    4  A    between atoms: C_9  and  C_17 
REMARK    5  A    between atoms: C_9  and  N_14 
REMARK       I    between atoms: C_13  and  N_14 
REMARK    6  A    between atoms: C_17  and  C_18 
ROOT
HETATM    1  C           1     -36.336  -0.555 -12.315  0.00  0.00     0.191 C 
ENDROOT
BRANCH   1   2
HETATM    2  C           1     -36.948  -0.058 -11.028  0.00  0.00     0.197 C 
HETATM    3  O           1     -38.075   0.482 -11.039  0.00  0.00    -0.646 OA
HETATM    4  O           1     -36.328  -0.186  -9.950  0.00  0.00    -0.646 OA
ENDBRANCH   1   2
BRANCH   1   5
HETATM    5  C           1     -34.818  -0.495 -12.211  0.00  0.00     0.094 C 
BRANCH   5   6
HETATM    6  C           1     -34.272  -1.881 -12.058  0.00  0.00     0.028 A 
HETATM    7  C           1     -33.609  -2.341 -10.944  0.00  0.00     0.114 A 
HETATM    8  N           1     -33.294  -3.640 -11.231  0.00  0.00    -0.360 N 
HETATM    9  C           1     -33.771  -3.911 -12.483  0.00  0.00     0.180 A 
HETATM   10  H           1     -32.780  -4.308 -10.605  0.00  0.00     0.166 HD
HETATM   11  N           1     -34.367  -2.866 -13.006  0.00  0.00    -0.354 N 
ATOM     12  HN          1     -34.808  -2.800 -13.924  1.00  0.00     0.166 HD
ENDBRANCH   5   6
ENDBRANCH   1   5
BRANCH   1  13
HETATM   13  N           1     -36.778   0.281 -13.413  0.00  0.00    -0.345 N 
HETATM   14  C           1     -36.986  -0.267 -14.650  0.00  0.00     0.243 C 
HETATM   15  O           1     -38.075  -0.704 -14.942  0.00  0.00    -0.272 OA
HETATM   16  H           1     -36.933   1.270 -13.266  0.00  0.00     0.163 HD
BRANCH  14  17
HETATM   17  C           1     -35.857  -0.328 -15.649  0.00  0.00     0.332 C 
BRANCH  17  18
HETATM   18  N           1     -36.408  -0.628 -17.011  0.00  0.00    -0.071 N 
HETATM   19  H           1     -36.360  -1.656 -17.189  0.00  0.00     0.274 HD
HETATM   20  H           1     -37.403  -0.312 -17.061  0.00  0.00     0.274 HD
HETATM   21  H           1     -35.846  -0.123 -17.733  0.00  0.00     0.274 HD
ENDBRANCH  17  18
ENDBRANCH  14  17
ENDBRANCH   1  13
TORSDOF 6
ENDMDL
MODEL 5
REMARK VINA RESULT:      -5.9      2.508      3.654
REMARK  6 active torsions:
REMARK  status: ('A' for Active; 'I' for Inactive)
REMARK    1  A    between atoms: N_5  and  C_6 
REMARK    2  A    between atoms: C_6  and  C_13 
REMARK    3  A    between atoms: C_7  and  C_9 
REMARK    4  A    between atoms: C_9  and  C_17 
REMARK    5  A    between atoms: C_9  and  N_14 
REMARK       I    between atoms: C_13  and  N_14 
REMARK    6  A    between atoms: C_17  and  C_18 
ROOT
HETATM    1  C           1     -27.419  -6.686 -17.495  0.00  0.00     0.191 C 
ENDROOT
BRANCH   1   2
HETATM    2  C           1     -26.964  -5.519 -16.653  0.00  0.00     0.197 C 
HETATM    3  O           1     -25.851  -5.554 -16.086  0.00  0.00    -0.646 OA
HETATM    4  O           1     -27.700  -4.518 -16.523  0.00  0.00    -0.646 OA
ENDBRANCH   1   2
BRANCH   1   5
HETATM    5  C           1     -27.723  -6.206 -18.908  0.00  0.00     0.094 C 
BRANCH   5   6
HETATM    6  C           1     -26.823  -6.906 -19.878  0.00  0.00     0.028 A 
HETATM    7  C           1     -25.516  -6.556 -20.124  0.00  0.00     0.114 A 
HETATM    8  N           1     -25.082  -7.450 -21.064  0.00  0.00    -0.360 N 
HETATM    9  C           1     -26.123  -8.290 -21.344  0.00  0.00     0.180 A 
HETATM   10  H           1     -24.124  -7.484 -21.492  0.00  0.00     0.166 HD
HETATM   11  N           1     -27.189  -7.984 -20.642  0.00  0.00    -0.354 N 
ATOM     12  HN          1     -28.096  -8.450 -20.660  1.00  0.00     0.166 HD
ENDBRANCH   5   6
ENDBRANCH   1   5
BRANCH   1  13
HETATM   13  N           1     -28.615  -7.263 -16.913  0.00  0.00    -0.345 N 
HETATM   14  C           1     -29.800  -7.214 -17.597  0.00  0.00     0.243 C 
HETATM   15  O           1     -30.100  -8.110 -18.351  0.00  0.00    -0.272 OA
HETATM   16  H           1     -28.575  -7.702 -16.002  0.00  0.00     0.163 HD
BRANCH  14  17
HETATM   17  C           1     -30.731  -6.042 -17.411  0.00  0.00     0.332 C 
BRANCH  17  18
HETATM   18  N           1     -30.575  -5.493 -16.024  0.00  0.00    -0.071 N 
HETATM   19  H           1     -29.964  -6.129 -15.463  0.00  0.00     0.274 HD
HETATM   20  H           1     -30.138  -4.545 -16.072  0.00  0.00     0.274 HD
HETATM   21  H           1     -31.513  -5.422 -15.569  0.00  0.00     0.274 HD
ENDBRANCH  17  18
ENDBRANCH  14  17
ENDBRANCH   1  13
TORSDOF 6
ENDMDL
MODEL 6
REMARK VINA RESULT:      -5.9      1.616      1.971
REMARK  6 active torsions:
REMARK  status: ('A' for Active; 'I' for Inactive)
REMARK    1  A    between atoms: N_5  and  C_6 
REMARK    2  A    between atoms: C_6  and  C_13 
REMARK    3  A    between atoms: C_7  and  C_9 
REMARK    4  A    between atoms: C_9  and  C_17 
REMARK    5  A    between atoms: C_9  and  N_14 
REMARK       I    between atoms: C_13  and  N_14 
REMARK    6  A    between atoms: C_17  and  C_18 
ROOT
HETATM    1  C           1     -27.740  -6.255 -16.851  0.00  0.00     0.191 C 
ENDROOT
BRANCH   1   2
HETATM    2  C           1     -28.354  -7.432 -16.133  0.00  0.00     0.197 C 
HETATM    3  O           1     -29.175  -8.166 -16.725  0.00  0.00    -0.646 OA
HETATM    4  O           1     -28.044  -7.672 -14.947  0.00  0.00    -0.646 OA
ENDBRANCH   1   2
BRANCH   1   5
HETATM    5  C           1     -26.250  -6.193 -16.541  0.00  0.00     0.094 C 
BRANCH   5   6
HETATM    6  C           1     -25.472  -6.665 -17.731  0.00  0.00     0.028 A 
HETATM    7  C           1     -24.189  -7.157 -17.680  0.00  0.00     0.114 A 
HETATM    8  N           1     -23.877  -7.463 -18.975  0.00  0.00    -0.360 N 
HETATM    9  C           1     -24.962  -7.150 -19.745  0.00  0.00     0.180 A 
HETATM   10  H           1     -22.969  -7.864 -19.317  0.00  0.00     0.166 HD
HETATM   11  N           1     -25.942  -6.666 -19.018  0.00  0.00    -0.354 N 
ATOM     12  HN          1     -26.858  -6.356 -19.343  1.00  0.00     0.166 HD
ENDBRANCH   5   6
ENDBRANCH   1   5
BRANCH   1  13
HETATM   13  N           1     -28.377  -5.032 -16.405  0.00  0.00    -0.345 N 
HETATM   14  C           1     -29.671  -4.765 -16.763  0.00  0.00     0.243 C 
HETATM   15  O           1     -30.581  -5.138 -16.060  0.00  0.00    -0.272 OA
HETATM   16  H           1     -27.866  -4.375 -15.829  0.00  0.00     0.163 HD
BRANCH  14  17
HETATM   17  C           1     -29.961  -4.005 -18.034  0.00  0.00     0.332 C 
BRANCH  17  18
HETATM   18  N           1     -30.995  -2.953 -17.764  0.00  0.00    -0.071 N 
HETATM   19  H           1     -31.133  -2.855 -16.733  0.00  0.00     0.274 HD
HETATM   20  H           1     -30.675  -2.041 -18.161  0.00  0.00     0.274 HD
HETATM   21  H           1     -31.899  -3.230 -18.210  0.00  0.00     0.274 HD
ENDBRANCH  17  18
ENDBRANCH  14  17
ENDBRANCH   1  13
TORSDOF 6
ENDMDL
MODEL 7
REMARK VINA RESULT:      -5.8      2.341      5.215
REMARK  6 active torsions:
REMARK  status: ('A' for Active; 'I' for Inactive)
REMARK    1  A    between atoms: N_5  and  C_6 
REMARK    2  A    between atoms: C_6  and  C_13 
REMARK    3  A    between atoms: C_7  and  C_9 
REMARK    4  A    between atoms: C_9  and  C_17 
REMARK    5  A    between atoms: C_9  and  N_14 
REMARK       I    between atoms: C_13  and  N_14 
REMARK    6  A    between atoms: C_17  and  C_18 
ROOT
HETATM    1  C           1     -27.252  -6.007 -17.869  0.00  0.00     0.191 C 
ENDROOT
BRANCH   1   2
HETATM    2  C           1     -27.301  -5.970 -16.361  0.00  0.00     0.197 C 
HETATM    3  O           1     -27.115  -7.017 -15.704  0.00  0.00    -0.646 OA
HETATM    4  O           1     -27.527  -4.893 -15.769  0.00  0.00    -0.646 OA
ENDBRANCH   1   2
BRANCH   1   5
HETATM    5  C           1     -28.641  -6.310 -18.415  0.00  0.00     0.094 C 
BRANCH   5   6
HETATM    6  C           1     -29.606  -5.275 -17.928  0.00  0.00     0.028 A 
HETATM    7  C           1     -30.718  -5.541 -17.163  0.00  0.00     0.114 A 
HETATM    8  N           1     -31.301  -4.323 -16.950  0.00  0.00    -0.360 N 
HETATM    9  C           1     -30.533  -3.385 -17.582  0.00  0.00     0.180 A 
HETATM   10  H           1     -32.177  -4.141 -16.402  0.00  0.00     0.166 HD
HETATM   11  N           1     -29.502  -3.932 -18.181  0.00  0.00    -0.354 N 
ATOM     12  HN          1     -28.777  -3.458 -18.720  1.00  0.00     0.166 HD
ENDBRANCH   5   6
ENDBRANCH   1   5
BRANCH   1  13
HETATM   13  N           1     -26.329  -7.041 -18.296  0.00  0.00    -0.345 N 
HETATM   14  C           1     -25.346  -6.748 -19.202  0.00  0.00     0.243 C 
HETATM   15  O           1     -24.265  -6.365 -18.819  0.00  0.00    -0.272 OA
HETATM   16  H           1     -26.412  -7.979 -17.925  0.00  0.00     0.163 HD
BRANCH  14  17
HETATM   17  C           1     -25.610  -6.902 -20.680  0.00  0.00     0.332 C 
BRANCH  17  18
HETATM   18  N           1     -26.429  -8.136 -20.916  0.00  0.00    -0.071 N 
HETATM   19  H           1     -25.805  -8.974 -20.926  0.00  0.00     0.274 HD
HETATM   20  H           1     -27.135  -8.237 -20.152  0.00  0.00     0.274 HD
HETATM   21  H           1     -26.920  -8.058 -21.835  0.00  0.00     0.274 HD
ENDBRANCH  17  18
ENDBRANCH  14  17
ENDBRANCH   1  13
TORSDOF 6
ENDMDL
MODEL 8
REMARK VINA RESULT:      -5.6     10.207     12.578
REMARK  6 active torsions:
REMARK  status: ('A' for Active; 'I' for Inactive)
REMARK    1  A    between atoms: N_5  and  C_6 
REMARK    2  A    between atoms: C_6  and  C_13 
REMARK    3  A    between atoms: C_7  and  C_9 
REMARK    4  A    between atoms: C_9  and  C_17 
REMARK    5  A    between atoms: C_9  and  N_14 
REMARK       I    between atoms: C_13  and  N_14 
REMARK    6  A    between atoms: C_17  and  C_18 
ROOT
HETATM    1  C           1     -21.153  -4.937  -7.807  0.00  0.00     0.191 C 
ENDROOT
BRANCH   1   2
HETATM    2  C           1     -19.926  -4.593  -8.615  0.00  0.00     0.197 C 
HETATM    3  O           1     -18.943  -4.057  -8.060  0.00  0.00    -0.646 OA
HETATM    4  O           1     -19.893  -4.844  -9.839  0.00  0.00    -0.646 OA
ENDBRANCH   1   2
BRANCH   1   5
HETATM    5  C           1     -22.147  -3.785  -7.877  0.00  0.00     0.094 C 
BRANCH   5   6
HETATM    6  C           1     -23.079  -3.999  -9.029  0.00  0.00     0.028 A 
HETATM    7  C           1     -24.261  -3.320  -9.214  0.00  0.00     0.114 A 
HETATM    8  N           1     -24.780  -3.824 -10.374  0.00  0.00    -0.360 N 
HETATM    9  C           1     -23.909  -4.770 -10.837  0.00  0.00     0.180 A 
HETATM   10  H           1     -25.683  -3.538 -10.827  0.00  0.00     0.166 HD
HETATM   11  N           1     -22.871  -4.896 -10.044  0.00  0.00    -0.354 N 
ATOM     12  HN          1     -22.078  -5.528 -10.158  1.00  0.00     0.166 HD
ENDBRANCH   5   6
ENDBRANCH   1   5
BRANCH   1  13
HETATM   13  N           1     -20.774  -5.163  -6.426  0.00  0.00    -0.345 N 
HETATM   14  C           1     -20.989  -6.385  -5.848  0.00  0.00     0.243 C 
HETATM   15  O           1     -20.136  -7.239  -5.907  0.00  0.00    -0.272 OA
HETATM   16  H           1     -20.350  -4.418  -5.889  0.00  0.00     0.163 HD
BRANCH  14  17
HETATM   17  C           1     -22.291  -6.667  -5.141  0.00  0.00     0.332 C 
BRANCH  17  18
HETATM   18  N           1     -22.185  -6.238  -3.707  0.00  0.00    -0.071 N 
HETATM   19  H           1     -21.530  -6.874  -3.200  0.00  0.00     0.274 HD
HETATM   20  H           1     -21.824  -5.258  -3.663  0.00  0.00     0.274 HD
HETATM   21  H           1     -23.129  -6.281  -3.260  0.00  0.00     0.274 HD
ENDBRANCH  17  18
ENDBRANCH  14  17
ENDBRANCH   1  13
TORSDOF 6
ENDMDL
MODEL 9
REMARK VINA RESULT:      -5.6      8.677     10.573
REMARK  6 active torsions:
REMARK  status: ('A' for Active; 'I' for Inactive)
REMARK    1  A    between atoms: N_5  and  C_6 
REMARK    2  A    between atoms: C_6  and  C_13 
REMARK    3  A    between atoms: C_7  and  C_9 
REMARK    4  A    between atoms: C_9  and  C_17 
REMARK    5  A    between atoms: C_9  and  N_14 
REMARK       I    between atoms: C_13  and  N_14 
REMARK    6  A    between atoms: C_17  and  C_18 
ROOT
HETATM    1  C           1     -34.691  -3.655 -11.429  0.00  0.00     0.191 C 
ENDROOT
BRANCH   1   2
HETATM    2  C           1     -34.443  -4.247 -12.795  0.00  0.00     0.197 C 
HETATM    3  O           1     -35.189  -5.151 -13.229  0.00  0.00    -0.646 OA
HETATM    4  O           1     -33.492  -3.834 -13.492  0.00  0.00    -0.646 OA
ENDBRANCH   1   2
BRANCH   1   5
HETATM    5  C           1     -34.199  -2.214 -11.403  0.00  0.00     0.094 C 
BRANCH   5   6
HETATM    6  C           1     -35.368  -1.285 -11.516  0.00  0.00     0.028 A 
HETATM    7  C           1     -35.960  -0.915 -12.700  0.00  0.00     0.114 A 
HETATM    8  N           1     -36.974  -0.071 -12.340  0.00  0.00    -0.360 N 
HETATM    9  C           1     -36.955   0.035 -10.978  0.00  0.00     0.180 A 
HETATM   10  H           1     -37.643   0.409 -12.991  0.00  0.00     0.166 HD
HETATM   11  N           1     -35.995  -0.689 -10.453  0.00  0.00    -0.354 N 
ATOM     12  HN          1     -35.764  -0.787  -9.464  1.00  0.00     0.166 HD
ENDBRANCH   5   6
ENDBRANCH   1   5
BRANCH   1  13
HETATM   13  N           1     -33.975  -4.428 -10.432  0.00  0.00    -0.345 N 
HETATM   14  C           1     -33.815  -5.777 -10.598  0.00  0.00     0.243 C 
HETATM   15  O           1     -32.848  -6.203 -11.184  0.00  0.00    -0.272 OA
HETATM   16  H           1     -33.593  -3.969  -9.615  0.00  0.00     0.163 HD
BRANCH  14  17
HETATM   17  C           1     -34.846  -6.732 -10.048  0.00  0.00     0.332 C 
BRANCH  17  18
HETATM   18  N           1     -34.780  -8.027 -10.801  0.00  0.00    -0.071 N 
HETATM   19  H           1     -34.059  -7.958 -11.554  0.00  0.00     0.274 HD
HETATM   20  H           1     -34.523  -8.798 -10.144  0.00  0.00     0.274 HD
HETATM   21  H           1     -35.711  -8.230 -11.229  0.00  0.00     0.274 HD
ENDBRANCH  17  18
ENDBRANCH  14  17
ENDBRANCH   1  13
TORSDOF 6
ENDMDL
