MODEL 1
REMARK VINA RESULT:      -7.0      0.000      0.000
REMARK  8 active torsions:
REMARK  status: ('A' for Active; 'I' for Inactive)
REMARK    1  A    between atoms: C_2  and  C_12 
REMARK    2  A    between atoms: C_2  and  C_3 
REMARK    3  A    between atoms: N_7  and  C_12 
REMARK    4  A    between atoms: C_10  and  C_24 
REMARK    5  A    between atoms: C_12  and  C_20 
REMARK    6  A    between atoms: C_15  and  C_24 
REMARK    7  A    between atoms: C_15  and  C_16 
REMARK    8  A    between atoms: C_15  and  N_19 
REMARK       I    between atoms: N_19  and  C_20 
ROOT
HETATM    1  C           1     -33.137  -4.508 -16.660  0.00  0.00     0.280 C 
ENDROOT
BRANCH   1   2
HETATM    2  C           1     -31.664  -4.481 -16.277  0.00  0.00     0.101 C 
BRANCH   2   3
HETATM    3  C           1     -30.924  -5.517 -17.065  0.00  0.00     0.028 A 
HETATM    4  C           1     -29.734  -5.299 -17.717  0.00  0.00     0.114 A 
HETATM    5  N           1     -29.423  -6.498 -18.297  0.00  0.00    -0.360 N 
HETATM    6  H           1     -28.574  -6.705 -18.881  0.00  0.00     0.166 HD
HETATM    7  C           1     -30.418  -7.378 -17.979  0.00  0.00     0.180 A 
HETATM    8  N           1     -31.340  -6.812 -17.234  0.00  0.00    -0.355 N 
ATOM      9  HN          1     -32.185  -7.245 -16.861  1.00  0.00     0.166 HD
ENDBRANCH   2   3
ENDBRANCH   1   2
BRANCH   1  10
HETATM   10  N           1     -33.471  -3.276 -17.447  0.00  0.00    -0.066 N 
HETATM   11  H           1     -33.028  -3.336 -18.392  0.00  0.00     0.275 HD
HETATM   12  H           1     -34.508  -3.200 -17.553  0.00  0.00     0.275 HD
HETATM   13  H           1     -33.110  -2.434 -16.945  0.00  0.00     0.275 HD
ENDBRANCH   1  10
BRANCH   1  14
HETATM   14  C           1     -33.982  -4.549 -15.410  0.00  0.00     0.249 C 
HETATM   15  O           1     -35.073  -5.066 -15.435  0.00  0.00    -0.271 OA
HETATM   16  N           1     -33.511  -3.999 -14.247  0.00  0.00    -0.344 N 
HETATM   17  H           1     -32.597  -3.565 -14.227  0.00  0.00     0.163 HD
BRANCH  16  18
HETATM   18  C           1     -34.323  -4.038 -13.046  0.00  0.00     0.189 C 
BRANCH  18  19
HETATM   19  C           1     -33.437  -4.335 -11.844  0.00  0.00     0.014 C 
HETATM   20  C           1     -32.834  -3.035 -11.326  0.00  0.00     0.012 C 
BRANCH  19  21
HETATM   21  C           1     -34.272  -4.979 -10.744  0.00  0.00     0.002 C 
HETATM   22  C           1     -34.070  -6.489 -10.771  0.00  0.00     0.005 C 
ENDBRANCH  19  21
ENDBRANCH  18  19
BRANCH  18  23
HETATM   23  C           1     -35.000  -2.703 -12.855  0.00  0.00     0.197 C 
HETATM   24  O           1     -35.796  -2.536 -11.905  0.00  0.00    -0.646 OA
HETATM   25  O           1     -34.765  -1.763 -13.646  0.00  0.00    -0.646 OA
ENDBRANCH  18  23
ENDBRANCH  16  18
ENDBRANCH   1  14
TORSDOF 8
ENDMDL
MODEL 2
REMARK VINA RESULT:      -6.9     13.776     14.764
REMARK  8 active torsions:
REMARK  status: ('A' for Active; 'I' for Inactive)
REMARK    1  A    between atoms: C_2  and  C_12 
REMARK    2  A    between atoms: C_2  and  C_3 
REMARK    3  A    between atoms: N_7  and  C_12 
REMARK    4  A    between atoms: C_10  and  C_24 
REMARK    5  A    between atoms: C_12  and  C_20 
REMARK    6  A    between atoms: C_15  and  C_24 
REMARK    7  A    between atoms: C_15  and  C_16 
REMARK    8  A    between atoms: C_15  and  N_19 
REMARK       I    between atoms: N_19  and  C_20 
ROOT
HETATM    1  C           1     -21.945  -4.412  -7.022  0.00  0.00     0.280 C 
ENDROOT
BRANCH   1   2
HETATM    2  C           1     -21.920  -4.934  -8.452  0.00  0.00     0.101 C 
BRANCH   2   3
HETATM    3  C           1     -23.109  -4.411  -9.195  0.00  0.00     0.028 A 
HETATM    4  C           1     -23.375  -4.663 -10.520  0.00  0.00     0.114 A 
HETATM    5  N           1     -24.543  -4.001 -10.779  0.00  0.00    -0.360 N 
HETATM    6  H           1     -25.050  -3.970 -11.700  0.00  0.00     0.166 HD
HETATM    7  C           1     -24.932  -3.386  -9.623  0.00  0.00     0.180 A 
HETATM    8  N           1     -24.084  -3.617  -8.648  0.00  0.00    -0.355 N 
ATOM      9  HN          1     -24.139  -3.278  -7.687  1.00  0.00     0.166 HD
ENDBRANCH   2   3
ENDBRANCH   1   2
BRANCH   1  10
HETATM   10  N           1     -21.469  -2.990  -7.001  0.00  0.00    -0.066 N 
HETATM   11  H           1     -21.907  -2.487  -6.197  0.00  0.00     0.275 HD
HETATM   12  H           1     -20.429  -2.972  -6.897  0.00  0.00     0.275 HD
HETATM   13  H           1     -21.737  -2.520  -7.895  0.00  0.00     0.275 HD
ENDBRANCH   1  10
BRANCH   1  14
HETATM   14  C           1     -21.039  -5.258  -6.161  0.00  0.00     0.249 C 
HETATM   15  O           1     -19.856  -5.018  -6.111  0.00  0.00    -0.271 OA
HETATM   16  N           1     -21.557  -6.299  -5.437  0.00  0.00    -0.344 N 
HETATM   17  H           1     -22.548  -6.501  -5.481  0.00  0.00     0.163 HD
BRANCH  16  18
HETATM   18  C           1     -20.686  -7.112  -4.611  0.00  0.00     0.189 C 
BRANCH  18  19
HETATM   19  C           1     -21.422  -7.514  -3.340  0.00  0.00     0.014 C 
HETATM   20  C           1     -20.475  -8.283  -2.428  0.00  0.00     0.012 C 
BRANCH  19  21
HETATM   21  C           1     -21.914  -6.265  -2.621  0.00  0.00     0.002 C 
HETATM   22  C           1     -22.313  -6.623  -1.195  0.00  0.00     0.005 C 
ENDBRANCH  19  21
ENDBRANCH  18  19
BRANCH  18  23
HETATM   23  C           1     -20.285  -8.350  -5.373  0.00  0.00     0.197 C 
HETATM   24  O           1     -21.158  -9.163  -5.750  0.00  0.00    -0.646 OA
HETATM   25  O           1     -19.079  -8.565  -5.629  0.00  0.00    -0.646 OA
ENDBRANCH  18  23
ENDBRANCH  16  18
ENDBRANCH   1  14
TORSDOF 8
ENDMDL
MODEL 3
REMARK VINA RESULT:      -6.6     14.109     15.170
REMARK  8 active torsions:
REMARK  status: ('A' for Active; 'I' for Inactive)
REMARK    1  A    between atoms: C_2  and  C_12 
REMARK    2  A    between atoms: C_2  and  C_3 
REMARK    3  A    between atoms: N_7  and  C_12 
REMARK    4  A    between atoms: C_10  and  C_24 
REMARK    5  A    between atoms: C_12  and  C_20 
REMARK    6  A    between atoms: C_15  and  C_24 
REMARK    7  A    between atoms: C_15  and  C_16 
REMARK    8  A    between atoms: C_15  and  N_19 
REMARK       I    between atoms: N_19  and  C_20 
ROOT
HETATM    1  C           1     -21.222  -4.785  -6.556  0.00  0.00     0.280 C 
ENDROOT
BRANCH   1   2
HETATM    2  C           1     -21.337  -5.322  -7.977  0.00  0.00     0.101 C 
BRANCH   2   3
HETATM    3  C           1     -22.379  -4.546  -8.721  0.00  0.00     0.028 A 
HETATM    4  C           1     -22.280  -4.170 -10.039  0.00  0.00     0.114 A 
HETATM    5  N           1     -23.438  -3.492 -10.302  0.00  0.00    -0.360 N 
HETATM    6  H           1     -23.709  -3.056 -11.219  0.00  0.00     0.166 HD
HETATM    7  C           1     -24.179  -3.484  -9.155  0.00  0.00     0.180 A 
HETATM    8  N           1     -23.564  -4.115  -8.181  0.00  0.00    -0.355 N 
ATOM      9  HN          1     -23.896  -4.254  -7.227  1.00  0.00     0.166 HD
ENDBRANCH   2   3
ENDBRANCH   1   2
BRANCH   1  10
HETATM   10  N           1     -19.776  -4.569  -6.220  0.00  0.00    -0.066 N 
HETATM   11  H           1     -19.665  -3.651  -5.732  0.00  0.00     0.275 HD
HETATM   12  H           1     -19.445  -5.337  -5.595  0.00  0.00     0.275 HD
HETATM   13  H           1     -19.211  -4.568  -7.099  0.00  0.00     0.275 HD
ENDBRANCH   1  10
BRANCH   1  14
HETATM   14  C           1     -21.818  -5.780  -5.592  0.00  0.00     0.249 C 
HETATM   15  O           1     -23.017  -5.912  -5.524  0.00  0.00    -0.271 OA
HETATM   16  N           1     -21.000  -6.534  -4.793  0.00  0.00    -0.344 N 
HETATM   17  H           1     -19.996  -6.423  -4.850  0.00  0.00     0.163 HD
BRANCH  16  18
HETATM   18  C           1     -21.574  -7.490  -3.865  0.00  0.00     0.189 C 
BRANCH  18  19
HETATM   19  C           1     -20.725  -8.754  -3.850  0.00  0.00     0.014 C 
HETATM   20  C           1     -21.583  -9.946  -4.256  0.00  0.00     0.012 C 
BRANCH  19  21
HETATM   21  C           1     -19.571  -8.603  -4.834  0.00  0.00     0.002 C 
HETATM   22  C           1     -18.430  -9.526  -4.423  0.00  0.00     0.005 C 
ENDBRANCH  19  21
ENDBRANCH  18  19
BRANCH  18  23
HETATM   23  C           1     -21.606  -6.889  -2.482  0.00  0.00     0.197 C 
HETATM   24  O           1     -20.881  -7.362  -1.578  0.00  0.00    -0.646 OA
HETATM   25  O           1     -22.356  -5.919  -2.238  0.00  0.00    -0.646 OA
ENDBRANCH  18  23
ENDBRANCH  16  18
ENDBRANCH   1  14
TORSDOF 8
ENDMDL
MODEL 4
REMARK VINA RESULT:      -6.5     13.979     14.902
REMARK  8 active torsions:
REMARK  status: ('A' for Active; 'I' for Inactive)
REMARK    1  A    between atoms: C_2  and  C_12 
REMARK    2  A    between atoms: C_2  and  C_3 
REMARK    3  A    between atoms: N_7  and  C_12 
REMARK    4  A    between atoms: C_10  and  C_24 
REMARK    5  A    between atoms: C_12  and  C_20 
REMARK    6  A    between atoms: C_15  and  C_24 
REMARK    7  A    between atoms: C_15  and  C_16 
REMARK    8  A    between atoms: C_15  and  N_19 
REMARK       I    between atoms: N_19  and  C_20 
ROOT
HETATM    1  C           1     -22.438  -4.996  -7.271  0.00  0.00     0.280 C 
ENDROOT
BRANCH   1   2
HETATM    2  C           1     -21.855  -3.723  -7.870  0.00  0.00     0.101 C 
BRANCH   2   3
HETATM    3  C           1     -21.584  -3.936  -9.327  0.00  0.00     0.028 A 
HETATM    4  C           1     -20.357  -4.262  -9.854  0.00  0.00     0.114 A 
HETATM    5  N           1     -20.564  -4.359 -11.202  0.00  0.00    -0.360 N 
HETATM    6  H           1     -19.841  -4.594 -11.927  0.00  0.00     0.166 HD
HETATM    7  C           1     -21.884  -4.093 -11.434  0.00  0.00     0.180 A 
HETATM    8  N           1     -22.526  -3.834 -10.318  0.00  0.00    -0.355 N 
ATOM      9  HN          1     -23.514  -3.606 -10.212  1.00  0.00     0.166 HD
ENDBRANCH   2   3
ENDBRANCH   1   2
BRANCH   1  10
HETATM   10  N           1     -23.655  -4.655  -6.462  0.00  0.00    -0.066 N 
HETATM   11  H           1     -24.278  -4.027  -7.019  0.00  0.00     0.275 HD
HETATM   12  H           1     -24.170  -5.531  -6.222  0.00  0.00     0.275 HD
HETATM   13  H           1     -23.364  -4.169  -5.584  0.00  0.00     0.275 HD
ENDBRANCH   1  10
BRANCH   1  14
HETATM   14  C           1     -21.410  -5.649  -6.379  0.00  0.00     0.249 C 
HETATM   15  O           1     -20.249  -5.324  -6.457  0.00  0.00    -0.271 OA
HETATM   16  N           1     -21.793  -6.612  -5.483  0.00  0.00    -0.344 N 
HETATM   17  H           1     -22.766  -6.884  -5.420  0.00  0.00     0.163 HD
BRANCH  16  18
HETATM   18  C           1     -20.806  -7.240  -4.628  0.00  0.00     0.189 C 
BRANCH  18  19
HETATM   19  C           1     -21.443  -7.591  -3.290  0.00  0.00     0.014 C 
HETATM   20  C           1     -20.412  -8.279  -2.403  0.00  0.00     0.012 C 
BRANCH  19  21
HETATM   21  C           1     -21.928  -6.318  -2.609  0.00  0.00     0.002 C 
HETATM   22  C           1     -22.294  -6.624  -1.162  0.00  0.00     0.005 C 
ENDBRANCH  19  21
ENDBRANCH  18  19
BRANCH  18  23
HETATM   23  C           1     -20.298  -8.498  -5.289  0.00  0.00     0.197 C 
HETATM   24  O           1     -21.089  -9.430  -5.549  0.00  0.00    -0.646 OA
HETATM   25  O           1     -19.085  -8.608  -5.576  0.00  0.00    -0.646 OA
ENDBRANCH  18  23
ENDBRANCH  16  18
ENDBRANCH   1  14
TORSDOF 8
ENDMDL
MODEL 5
REMARK VINA RESULT:      -6.3     13.121     14.825
REMARK  8 active torsions:
REMARK  status: ('A' for Active; 'I' for Inactive)
REMARK    1  A    between atoms: C_2  and  C_12 
REMARK    2  A    between atoms: C_2  and  C_3 
REMARK    3  A    between atoms: N_7  and  C_12 
REMARK    4  A    between atoms: C_10  and  C_24 
REMARK    5  A    between atoms: C_12  and  C_20 
REMARK    6  A    between atoms: C_15  and  C_24 
REMARK    7  A    between atoms: C_15  and  C_16 
REMARK    8  A    between atoms: C_15  and  N_19 
REMARK       I    between atoms: N_19  and  C_20 
ROOT
HETATM    1  C           1     -21.797  -6.040  -5.759  0.00  0.00     0.280 C 
ENDROOT
BRANCH   1   2
HETATM    2  C           1     -20.943  -5.539  -4.602  0.00  0.00     0.101 C 
BRANCH   2   3
HETATM    3  C           1     -21.356  -6.231  -3.340  0.00  0.00     0.028 A 
HETATM    4  C           1     -20.926  -7.479  -2.957  0.00  0.00     0.114 A 
HETATM    5  N           1     -21.543  -7.714  -1.760  0.00  0.00    -0.360 N 
HETATM    6  H           1     -21.446  -8.579  -1.170  0.00  0.00     0.166 HD
HETATM    7  C           1     -22.308  -6.621  -1.470  0.00  0.00     0.180 A 
HETATM    8  N           1     -22.215  -5.707  -2.408  0.00  0.00    -0.355 N 
ATOM      9  HN          1     -22.682  -4.801  -2.437  1.00  0.00     0.166 HD
ENDBRANCH   2   3
ENDBRANCH   1   2
BRANCH   1  10
HETATM   10  N           1     -21.194  -7.295  -6.317  0.00  0.00    -0.066 N 
HETATM   11  H           1     -21.950  -7.991  -6.507  0.00  0.00     0.275 HD
HETATM   12  H           1     -20.693  -7.075  -7.207  0.00  0.00     0.275 HD
HETATM   13  H           1     -20.518  -7.693  -5.627  0.00  0.00     0.275 HD
ENDBRANCH   1  10
BRANCH   1  14
HETATM   14  C           1     -21.852  -4.986  -6.838  0.00  0.00     0.249 C 
HETATM   15  O           1     -21.211  -3.969  -6.721  0.00  0.00    -0.271 OA
HETATM   16  N           1     -22.628  -5.183  -7.949  0.00  0.00    -0.344 N 
HETATM   17  H           1     -23.165  -6.035  -8.045  0.00  0.00     0.163 HD
BRANCH  16  18
HETATM   18  C           1     -22.681  -4.170  -8.984  0.00  0.00     0.189 C 
BRANCH  18  19
HETATM   19  C           1     -21.850  -4.621 -10.178  0.00  0.00     0.014 C 
HETATM   20  C           1     -22.570  -4.245 -11.468  0.00  0.00     0.012 C 
BRANCH  19  21
HETATM   21  C           1     -20.491  -3.934 -10.139  0.00  0.00     0.002 C 
HETATM   22  C           1     -20.393  -2.934 -11.285  0.00  0.00     0.005 C 
ENDBRANCH  19  21
ENDBRANCH  18  19
BRANCH  18  23
HETATM   23  C           1     -24.113  -3.968  -9.416  0.00  0.00     0.197 C 
HETATM   24  O           1     -24.808  -4.952  -9.755  0.00  0.00    -0.646 OA
HETATM   25  O           1     -24.606  -2.819  -9.434  0.00  0.00    -0.646 OA
ENDBRANCH  18  23
ENDBRANCH  16  18
ENDBRANCH   1  14
TORSDOF 8
ENDMDL
MODEL 6
REMARK VINA RESULT:      -6.2     13.736     15.298
REMARK  8 active torsions:
REMARK  status: ('A' for Active; 'I' for Inactive)
REMARK    1  A    between atoms: C_2  and  C_12 
REMARK    2  A    between atoms: C_2  and  C_3 
REMARK    3  A    between atoms: N_7  and  C_12 
REMARK    4  A    between atoms: C_10  and  C_24 
REMARK    5  A    between atoms: C_12  and  C_20 
REMARK    6  A    between atoms: C_15  and  C_24 
REMARK    7  A    between atoms: C_15  and  C_16 
REMARK    8  A    between atoms: C_15  and  N_19 
REMARK       I    between atoms: N_19  and  C_20 
ROOT
HETATM    1  C           1     -21.782  -5.781  -5.244  0.00  0.00     0.280 C 
ENDROOT
BRANCH   1   2
HETATM    2  C           1     -20.865  -6.739  -4.495  0.00  0.00     0.101 C 
BRANCH   2   3
HETATM    3  C           1     -21.408  -6.978  -3.121  0.00  0.00     0.028 A 
HETATM    4  C           1     -21.463  -8.205  -2.505  0.00  0.00     0.114 A 
HETATM    5  N           1     -22.023  -7.963  -1.281  0.00  0.00    -0.360 N 
HETATM    6  H           1     -22.220  -8.677  -0.536  0.00  0.00     0.166 HD
HETATM    7  C           1     -22.281  -6.624  -1.205  0.00  0.00     0.180 A 
HETATM    8  N           1     -21.919  -6.002  -2.304  0.00  0.00    -0.355 N 
ATOM      9  HN          1     -22.001  -5.006  -2.506  1.00  0.00     0.166 HD
ENDBRANCH   2   3
ENDBRANCH   1   2
BRANCH   1  10
HETATM   10  N           1     -23.210  -6.179  -5.020  0.00  0.00    -0.066 N 
HETATM   11  H           1     -23.438  -7.008  -5.613  0.00  0.00     0.275 HD
HETATM   12  H           1     -23.350  -6.422  -4.013  0.00  0.00     0.275 HD
HETATM   13  H           1     -23.837  -5.383  -5.275  0.00  0.00     0.275 HD
ENDBRANCH   1  10
BRANCH   1  14
HETATM   14  C           1     -21.471  -5.837  -6.720  0.00  0.00     0.249 C 
HETATM   15  O           1     -20.842  -6.764  -7.170  0.00  0.00    -0.271 OA
HETATM   16  N           1     -21.902  -4.836  -7.549  0.00  0.00    -0.344 N 
HETATM   17  H           1     -22.429  -4.058  -7.171  0.00  0.00     0.163 HD
BRANCH  16  18
HETATM   18  C           1     -21.603  -4.889  -8.967  0.00  0.00     0.189 C 
BRANCH  18  19
HETATM   19  C           1     -22.615  -4.047  -9.732  0.00  0.00     0.014 C 
HETATM   20  C           1     -22.879  -4.682 -11.091  0.00  0.00     0.012 C 
BRANCH  19  21
HETATM   21  C           1     -23.917  -3.978  -8.944  0.00  0.00     0.002 C 
HETATM   22  C           1     -24.956  -3.204  -9.746  0.00  0.00     0.005 C 
ENDBRANCH  19  21
ENDBRANCH  18  19
BRANCH  18  23
HETATM   23  C           1     -20.215  -4.349  -9.207  0.00  0.00     0.197 C 
HETATM   24  O           1     -19.679  -3.603  -8.358  0.00  0.00    -0.646 OA
HETATM   25  O           1     -19.600  -4.647 -10.255  0.00  0.00    -0.646 OA
ENDBRANCH  18  23
ENDBRANCH  16  18
ENDBRANCH   1  14
TORSDOF 8
ENDMDL
MODEL 7
REMARK VINA RESULT:      -6.0     15.102     16.163
REMARK  8 active torsions:
REMARK  status: ('A' for Active; 'I' for Inactive)
REMARK    1  A    between atoms: C_2  and  C_12 
REMARK    2  A    between atoms: C_2  and  C_3 
REMARK    3  A    between atoms: N_7  and  C_12 
REMARK    4  A    between atoms: C_10  and  C_24 
REMARK    5  A    between atoms: C_12  and  C_20 
REMARK    6  A    between atoms: C_15  and  C_24 
REMARK    7  A    between atoms: C_15  and  C_16 
REMARK    8  A    between atoms: C_15  and  N_19 
REMARK       I    between atoms: N_19  and  C_20 
ROOT
HETATM    1  C           1     -21.828  -6.281  -5.943  0.00  0.00     0.280 C 
ENDROOT
BRANCH   1   2
HETATM    2  C           1     -21.373  -4.892  -6.369  0.00  0.00     0.101 C 
BRANCH   2   3
HETATM    3  C           1     -22.125  -4.473  -7.594  0.00  0.00     0.028 A 
HETATM    4  C           1     -21.563  -4.303  -8.836  0.00  0.00     0.114 A 
HETATM    5  N           1     -22.598  -3.924  -9.645  0.00  0.00    -0.360 N 
HETATM    6  H           1     -22.537  -3.706 -10.671  0.00  0.00     0.166 HD
HETATM    7  C           1     -23.725  -3.881  -8.876  0.00  0.00     0.180 A 
HETATM    8  N           1     -23.470  -4.208  -7.630  0.00  0.00    -0.355 N 
ATOM      9  HN          1     -24.132  -4.255  -6.855  1.00  0.00     0.166 HD
ENDBRANCH   2   3
ENDBRANCH   1   2
BRANCH   1  10
HETATM   10  N           1     -22.582  -6.185  -4.650  0.00  0.00    -0.066 N 
HETATM   11  H           1     -22.152  -5.445  -4.050  0.00  0.00     0.275 HD
HETATM   12  H           1     -23.579  -5.938  -4.845  0.00  0.00     0.275 HD
HETATM   13  H           1     -22.542  -7.104  -4.155  0.00  0.00     0.275 HD
ENDBRANCH   1  10
BRANCH   1  14
HETATM   14  C           1     -20.623  -7.171  -5.757  0.00  0.00     0.249 C 
HETATM   15  O           1     -19.658  -7.037  -6.470  0.00  0.00    -0.271 OA
HETATM   16  N           1     -20.626  -8.131  -4.780  0.00  0.00    -0.344 N 
HETATM   17  H           1     -21.436  -8.243  -4.183  0.00  0.00     0.163 HD
BRANCH  16  18
HETATM   18  C           1     -19.468  -8.986  -4.601  0.00  0.00     0.189 C 
BRANCH  18  19
HETATM   19  C           1     -19.310  -9.324  -3.125  0.00  0.00     0.014 C 
HETATM   20  C           1     -17.829  -9.442  -2.788  0.00  0.00     0.012 C 
BRANCH  19  21
HETATM   21  C           1     -19.935  -8.220  -2.282  0.00  0.00     0.002 C 
HETATM   22  C           1     -20.801  -8.842  -1.192  0.00  0.00     0.005 C 
ENDBRANCH  19  21
ENDBRANCH  18  19
BRANCH  18  23
HETATM   23  C           1     -19.658 -10.257  -5.391  0.00  0.00     0.197 C 
HETATM   24  O           1     -18.876 -10.535  -6.326  0.00  0.00    -0.646 OA
HETATM   25  O           1     -20.598 -11.034  -5.111  0.00  0.00    -0.646 OA
ENDBRANCH  18  23
ENDBRANCH  16  18
ENDBRANCH   1  14
TORSDOF 8
ENDMDL
MODEL 8
REMARK VINA RESULT:      -6.0     16.042     17.408
REMARK  8 active torsions:
REMARK  status: ('A' for Active; 'I' for Inactive)
REMARK    1  A    between atoms: C_2  and  C_12 
REMARK    2  A    between atoms: C_2  and  C_3 
REMARK    3  A    between atoms: N_7  and  C_12 
REMARK    4  A    between atoms: C_10  and  C_24 
REMARK    5  A    between atoms: C_12  and  C_20 
REMARK    6  A    between atoms: C_15  and  C_24 
REMARK    7  A    between atoms: C_15  and  C_16 
REMARK    8  A    between atoms: C_15  and  N_19 
REMARK       I    between atoms: N_19  and  C_20 
ROOT
HETATM    1  C           1     -20.903  -7.048  -3.305  0.00  0.00     0.280 C 
ENDROOT
BRANCH   1   2
HETATM    2  C           1     -21.867  -6.569  -4.382  0.00  0.00     0.101 C 
BRANCH   2   3
HETATM    3  C           1     -21.092  -5.972  -5.515  0.00  0.00     0.028 A 
HETATM    4  C           1     -20.365  -4.808  -5.437  0.00  0.00     0.114 A 
HETATM    5  N           1     -19.829  -4.640  -6.683  0.00  0.00    -0.360 N 
HETATM    6  H           1     -19.211  -3.849  -6.993  0.00  0.00     0.166 HD
HETATM    7  C           1     -20.244  -5.689  -7.454  0.00  0.00     0.180 A 
HETATM    8  N           1     -21.009  -6.511  -6.774  0.00  0.00    -0.355 N 
ATOM      9  HN          1     -21.449  -7.368  -7.110  1.00  0.00     0.166 HD
ENDBRANCH   2   3
ENDBRANCH   1   2
BRANCH   1  10
HETATM   10  N           1     -20.092  -8.194  -3.833  0.00  0.00    -0.066 N 
HETATM   11  H           1     -20.700  -9.039  -3.921  0.00  0.00     0.275 HD
HETATM   12  H           1     -19.705  -7.944  -4.771  0.00  0.00     0.275 HD
HETATM   13  H           1     -19.305  -8.396  -3.176  0.00  0.00     0.275 HD
ENDBRANCH   1  10
BRANCH   1  14
HETATM   14  C           1     -21.684  -7.501  -2.095  0.00  0.00     0.249 C 
HETATM   15  O           1     -22.396  -6.721  -1.510  0.00  0.00    -0.271 OA
HETATM   16  N           1     -21.584  -8.796  -1.662  0.00  0.00    -0.344 N 
HETATM   17  H           1     -20.985  -9.449  -2.152  0.00  0.00     0.163 HD
BRANCH  16  18
HETATM   18  C           1     -22.334  -9.231  -0.499  0.00  0.00     0.189 C 
BRANCH  18  19
HETATM   19  C           1     -22.862 -10.639  -0.734  0.00  0.00     0.014 C 
HETATM   20  C           1     -24.200 -10.804  -0.024  0.00  0.00     0.012 C 
BRANCH  19  21
HETATM   21  C           1     -23.050 -10.869  -2.228  0.00  0.00     0.002 C 
HETATM   22  C           1     -22.658 -12.300  -2.576  0.00  0.00     0.005 C 
ENDBRANCH  19  21
ENDBRANCH  18  19
BRANCH  18  23
HETATM   23  C           1     -21.431  -9.227   0.710  0.00  0.00     0.197 C 
HETATM   24  O           1     -21.311  -8.189   1.397  0.00  0.00    -0.646 OA
HETATM   25  O           1     -20.803 -10.261   1.025  0.00  0.00    -0.646 OA
ENDBRANCH  18  23
ENDBRANCH  16  18
ENDBRANCH   1  14
TORSDOF 8
ENDMDL
MODEL 9
REMARK VINA RESULT:      -5.9      2.490      4.472
REMARK  8 active torsions:
REMARK  status: ('A' for Active; 'I' for Inactive)
REMARK    1  A    between atoms: C_2  and  C_12 
REMARK    2  A    between atoms: C_2  and  C_3 
REMARK    3  A    between atoms: N_7  and  C_12 
REMARK    4  A    between atoms: C_10  and  C_24 
REMARK    5  A    between atoms: C_12  and  C_20 
REMARK    6  A    between atoms: C_15  and  C_24 
REMARK    7  A    between atoms: C_15  and  C_16 
REMARK    8  A    between atoms: C_15  and  N_19 
REMARK       I    between atoms: N_19  and  C_20 
ROOT
HETATM    1  C           1     -33.941  -4.239 -13.360  0.00  0.00     0.280 C 
ENDROOT
BRANCH   1   2
HETATM    2  C           1     -34.689  -4.117 -14.681  0.00  0.00     0.101 C 
BRANCH   2   3
HETATM    3  C           1     -33.706  -3.943 -15.797  0.00  0.00     0.028 A 
HETATM    4  C           1     -33.898  -3.125 -16.885  0.00  0.00     0.114 A 
HETATM    5  N           1     -32.766  -3.269 -17.640  0.00  0.00    -0.360 N 
HETATM    6  H           1     -32.563  -2.789 -18.552  0.00  0.00     0.166 HD
HETATM    7  C           1     -31.950  -4.151 -16.992  0.00  0.00     0.180 A 
HETATM    8  N           1     -32.492  -4.575 -15.873  0.00  0.00    -0.355 N 
ATOM      9  HN          1     -32.094  -5.234 -15.204  1.00  0.00     0.166 HD
ENDBRANCH   2   3
ENDBRANCH   1   2
BRANCH   1  10
HETATM   10  N           1     -34.518  -5.370 -12.562  0.00  0.00    -0.066 N 
HETATM   11  H           1     -34.961  -6.061 -13.208  0.00  0.00     0.275 HD
HETATM   12  H           1     -33.756  -5.839 -12.021  0.00  0.00     0.275 HD
HETATM   13  H           1     -35.236  -4.998 -11.901  0.00  0.00     0.275 HD
ENDBRANCH   1  10
BRANCH   1  14
HETATM   14  C           1     -34.080  -2.953 -12.582  0.00  0.00     0.249 C 
HETATM   15  O           1     -33.407  -2.767 -11.597  0.00  0.00    -0.271 OA
HETATM   16  N           1     -34.970  -1.997 -12.994  0.00  0.00    -0.344 N 
HETATM   17  H           1     -35.534  -2.153 -13.820  0.00  0.00     0.163 HD
BRANCH  16  18
HETATM   18  C           1     -35.104  -0.762 -12.246  0.00  0.00     0.189 C 
BRANCH  18  19
HETATM   19  C           1     -35.643   0.329 -13.161  0.00  0.00     0.014 C 
HETATM   20  C           1     -34.489   1.193 -13.655  0.00  0.00     0.012 C 
BRANCH  19  21
HETATM   21  C           1     -36.344  -0.308 -14.354  0.00  0.00     0.002 C 
HETATM   22  C           1     -36.051   0.505 -15.610  0.00  0.00     0.005 C 
ENDBRANCH  19  21
ENDBRANCH  18  19
BRANCH  18  23
HETATM   23  C           1     -36.059  -0.973 -11.098  0.00  0.00     0.197 C 
HETATM   24  O           1     -35.676  -0.782  -9.923  0.00  0.00    -0.646 OA
HETATM   25  O           1     -37.235  -1.337 -11.320  0.00  0.00    -0.646 OA
ENDBRANCH  18  23
ENDBRANCH  16  18
ENDBRANCH   1  14
TORSDOF 8
ENDMDL
