MODEL 1
REMARK VINA RESULT:      -5.8      0.000      0.000
REMARK  8 active torsions:
REMARK  status: ('A' for Active; 'I' for Inactive)
REMARK    1  A    between atoms: O_3  and  P_4 
REMARK    2  A    between atoms: P_4  and  O_5 
REMARK    3  A    between atoms: O_5  and  C_6 
REMARK    4  A    between atoms: C_6  and  C_7 
REMARK    5  A    between atoms: C_7  and  C_8 
REMARK    6  A    between atoms: C_7  and  N_20 
REMARK       I    between atoms: C_8  and  N_9 
REMARK    7  A    between atoms: N_9  and  C_10 
REMARK    8  A    between atoms: C_10  and  C_12 
ROOT
HETATM    1  C           1     -36.015  -0.090 -12.429  0.00  0.00     0.298 C 
ENDROOT
BRANCH   1   2
HETATM    2  C           1     -37.221   0.005 -13.353  0.00  0.00     0.224 C 
BRANCH   2   3
HETATM    3  O           1     -37.075  -0.908 -14.408  0.00  0.00    -0.287 OA
BRANCH   3   4
HETATM    4  P           1     -36.430  -0.321 -15.768  0.00  0.00     0.406 P 
HETATM    5  O           1     -37.183  -0.835 -16.933  0.00  0.00    -0.624 OA
HETATM    6  O           1     -35.016  -0.748 -15.865  0.00  0.00    -0.624 OA
BRANCH   4   7
HETATM    7  O           1     -36.504   1.292 -15.748  0.00  0.00    -0.300 OA
HETATM    8  H           1     -36.834   1.510 -14.892  0.00  0.00     0.223 HD
ENDBRANCH   4   7
ENDBRANCH   3   4
ENDBRANCH   2   3
ENDBRANCH   1   2
BRANCH   1   9
HETATM    9  C           1     -35.654  -1.541 -12.220  0.00  0.00     0.251 C 
HETATM   10  N           1     -34.659  -2.112 -12.966  0.00  0.00    -0.349 N 
HETATM   11  H           1     -34.165  -1.563 -13.657  0.00  0.00     0.163 HD
HETATM   12  O           1     -36.243  -2.197 -11.394  0.00  0.00    -0.271 OA
BRANCH  10  13
HETATM   13  C           1     -34.312  -3.506 -12.764  0.00  0.00     0.235 C 
BRANCH  13  14
HETATM   14  C           1     -33.079  -3.598 -11.899  0.00  0.00     0.191 C 
HETATM   15  O           1     -32.248  -4.512 -12.091  0.00  0.00    -0.647 OA
HETATM   16  O           1     -32.889  -2.761 -10.990  0.00  0.00    -0.647 OA
ENDBRANCH  13  14
ENDBRANCH  10  13
ENDBRANCH   1   9
BRANCH   1  17
HETATM   17  N           1     -34.852   0.630 -13.047  0.00  0.00    -0.064 N 
HETATM   18  H           1     -35.182   1.530 -13.463  0.00  0.00     0.275 HD
HETATM   19  H           1     -34.431   0.033 -13.793  0.00  0.00     0.275 HD
HETATM   20  H           1     -34.135   0.827 -12.313  0.00  0.00     0.275 HD
ENDBRANCH   1  17
TORSDOF 8
ENDMDL
MODEL 2
REMARK VINA RESULT:      -5.4      8.459     10.426
REMARK  8 active torsions:
REMARK  status: ('A' for Active; 'I' for Inactive)
REMARK    1  A    between atoms: O_3  and  P_4 
REMARK    2  A    between atoms: P_4  and  O_5 
REMARK    3  A    between atoms: O_5  and  C_6 
REMARK    4  A    between atoms: C_6  and  C_7 
REMARK    5  A    between atoms: C_7  and  C_8 
REMARK    6  A    between atoms: C_7  and  N_20 
REMARK       I    between atoms: C_8  and  N_9 
REMARK    7  A    between atoms: N_9  and  C_10 
REMARK    8  A    between atoms: C_10  and  C_12 
ROOT
HETATM    1  C           1     -29.177  -6.546 -18.479  0.00  0.00     0.298 C 
ENDROOT
BRANCH   1   2
HETATM    2  C           1     -29.651  -5.462 -17.522  0.00  0.00     0.224 C 
BRANCH   2   3
HETATM    3  O           1     -30.036  -6.047 -16.306  0.00  0.00    -0.287 OA
BRANCH   3   4
HETATM    4  P           1     -28.973  -5.929 -15.096  0.00  0.00     0.406 P 
HETATM    5  O           1     -29.692  -5.657 -13.832  0.00  0.00    -0.624 OA
HETATM    6  O           1     -28.029  -4.824 -15.376  0.00  0.00    -0.624 OA
BRANCH   4   7
HETATM    7  O           1     -28.154  -7.314 -14.961  0.00  0.00    -0.300 OA
HETATM    8  H           1     -27.965  -7.397 -14.042  0.00  0.00     0.223 HD
ENDBRANCH   4   7
ENDBRANCH   3   4
ENDBRANCH   2   3
ENDBRANCH   1   2
BRANCH   1   9
HETATM    9  C           1     -27.671  -6.515 -18.570  0.00  0.00     0.251 C 
HETATM   10  N           1     -26.914  -6.639 -17.436  0.00  0.00    -0.349 N 
HETATM   11  H           1     -27.364  -6.751 -16.536  0.00  0.00     0.163 HD
HETATM   12  O           1     -27.133  -6.381 -19.643  0.00  0.00    -0.271 OA
BRANCH  10  13
HETATM   13  C           1     -25.466  -6.609 -17.523  0.00  0.00     0.235 C 
BRANCH  13  14
HETATM   14  C           1     -24.875  -7.281 -16.308  0.00  0.00     0.191 C 
HETATM   15  O           1     -25.307  -7.002 -15.169  0.00  0.00    -0.647 OA
HETATM   16  O           1     -23.953  -8.115 -16.441  0.00  0.00    -0.647 OA
ENDBRANCH  13  14
ENDBRANCH  10  13
ENDBRANCH   1   9
BRANCH   1  17
HETATM   17  N           1     -29.619  -7.888 -17.974  0.00  0.00    -0.064 N 
HETATM   18  H           1     -29.668  -7.868 -16.931  0.00  0.00     0.275 HD
HETATM   19  H           1     -28.935  -8.617 -18.279  0.00  0.00     0.275 HD
HETATM   20  H           1     -30.563  -8.112 -18.363  0.00  0.00     0.275 HD
ENDBRANCH   1  17
TORSDOF 8
ENDMDL
MODEL 3
REMARK VINA RESULT:      -5.3      2.252      4.727
REMARK  8 active torsions:
REMARK  status: ('A' for Active; 'I' for Inactive)
REMARK    1  A    between atoms: O_3  and  P_4 
REMARK    2  A    between atoms: P_4  and  O_5 
REMARK    3  A    between atoms: O_5  and  C_6 
REMARK    4  A    between atoms: C_6  and  C_7 
REMARK    5  A    between atoms: C_7  and  C_8 
REMARK    6  A    between atoms: C_7  and  N_20 
REMARK       I    between atoms: C_8  and  N_9 
REMARK    7  A    between atoms: N_9  and  C_10 
REMARK    8  A    between atoms: C_10  and  C_12 
ROOT
HETATM    1  C           1     -35.900  -0.298 -11.263  0.00  0.00     0.298 C 
ENDROOT
BRANCH   1   2
HETATM    2  C           1     -35.672  -1.739 -10.829  0.00  0.00     0.224 C 
BRANCH   2   3
HETATM    3  O           1     -35.792  -2.587 -11.940  0.00  0.00    -0.287 OA
BRANCH   3   4
HETATM    4  P           1     -34.480  -3.452 -12.314  0.00  0.00     0.406 P 
HETATM    5  O           1     -34.220  -3.349 -13.767  0.00  0.00    -0.624 OA
HETATM    6  O           1     -34.705  -4.870 -11.951  0.00  0.00    -0.624 OA
BRANCH   4   7
HETATM    7  O           1     -33.208  -2.883 -11.498  0.00  0.00    -0.300 OA
HETATM    8  H           1     -33.248  -3.308 -10.658  0.00  0.00     0.223 HD
ENDBRANCH   4   7
ENDBRANCH   3   4
ENDBRANCH   2   3
ENDBRANCH   1   2
BRANCH   1   9
HETATM    9  C           1     -36.767  -0.275 -12.498  0.00  0.00     0.251 C 
HETATM   10  N           1     -36.192  -0.176 -13.737  0.00  0.00    -0.349 N 
HETATM   11  H           1     -35.186  -0.118 -13.825  0.00  0.00     0.163 HD
HETATM   12  O           1     -37.969  -0.343 -12.394  0.00  0.00    -0.271 OA
BRANCH  10  13
HETATM   13  C           1     -37.026  -0.153 -14.923  0.00  0.00     0.235 C 
BRANCH  13  14
HETATM   14  C           1     -36.223  -0.623 -16.112  0.00  0.00     0.191 C 
HETATM   15  O           1     -35.017  -0.920 -15.973  0.00  0.00    -0.647 OA
HETATM   16  O           1     -36.764  -0.715 -17.235  0.00  0.00    -0.647 OA
ENDBRANCH  13  14
ENDBRANCH  10  13
ENDBRANCH   1   9
BRANCH   1  17
HETATM   17  N           1     -36.583   0.455 -10.160  0.00  0.00    -0.064 N 
HETATM   18  H           1     -37.009  -0.223  -9.488  0.00  0.00     0.275 HD
HETATM   19  H           1     -37.329   1.064 -10.564  0.00  0.00     0.275 HD
HETATM   20  H           1     -35.883   1.049  -9.659  0.00  0.00     0.275 HD
ENDBRANCH   1  17
TORSDOF 8
ENDMDL
MODEL 4
REMARK VINA RESULT:      -5.3     13.002     14.980
REMARK  8 active torsions:
REMARK  status: ('A' for Active; 'I' for Inactive)
REMARK    1  A    between atoms: O_3  and  P_4 
REMARK    2  A    between atoms: P_4  and  O_5 
REMARK    3  A    between atoms: O_5  and  C_6 
REMARK    4  A    between atoms: C_6  and  C_7 
REMARK    5  A    between atoms: C_7  and  C_8 
REMARK    6  A    between atoms: C_7  and  N_20 
REMARK       I    between atoms: C_8  and  N_9 
REMARK    7  A    between atoms: N_9  and  C_10 
REMARK    8  A    between atoms: C_10  and  C_12 
ROOT
HETATM    1  C           1     -22.268  -4.441  -7.361  0.00  0.00     0.298 C 
ENDROOT
BRANCH   1   2
HETATM    2  C           1     -22.174  -4.696  -8.858  0.00  0.00     0.224 C 
BRANCH   2   3
HETATM    3  O           1     -22.842  -3.675  -9.550  0.00  0.00    -0.287 OA
BRANCH   3   4
HETATM    4  P           1     -24.132  -4.129 -10.408  0.00  0.00     0.406 P 
HETATM    5  O           1     -23.688  -4.815 -11.642  0.00  0.00    -0.624 OA
HETATM    6  O           1     -24.931  -2.935 -10.766  0.00  0.00    -0.624 OA
BRANCH   4   7
HETATM    7  O           1     -25.037  -5.137  -9.529  0.00  0.00    -0.300 OA
HETATM    8  H           1     -25.864  -5.177  -9.978  0.00  0.00     0.223 HD
ENDBRANCH   4   7
ENDBRANCH   3   4
ENDBRANCH   2   3
ENDBRANCH   1   2
BRANCH   1   9
HETATM    9  C           1     -21.604  -5.572  -6.614  0.00  0.00     0.251 C 
HETATM   10  N           1     -21.831  -5.734  -5.274  0.00  0.00    -0.349 N 
HETATM   11  H           1     -22.444  -5.095  -4.783  0.00  0.00     0.163 HD
HETATM   12  O           1     -20.872  -6.334  -7.199  0.00  0.00    -0.271 OA
BRANCH  10  13
HETATM   13  C           1     -21.193  -6.821  -4.556  0.00  0.00     0.235 C 
BRANCH  13  14
HETATM   14  C           1     -21.613  -6.783  -3.107  0.00  0.00     0.191 C 
HETATM   15  O           1     -21.141  -7.610  -2.298  0.00  0.00    -0.647 OA
HETATM   16  O           1     -22.434  -5.925  -2.716  0.00  0.00    -0.647 OA
ENDBRANCH  13  14
ENDBRANCH  10  13
ENDBRANCH   1   9
BRANCH   1  17
HETATM   17  N           1     -21.578  -3.150  -7.028  0.00  0.00    -0.064 N 
HETATM   18  H           1     -20.582  -3.344  -6.778  0.00  0.00     0.275 HD
HETATM   19  H           1     -22.060  -2.696  -6.221  0.00  0.00     0.275 HD
HETATM   20  H           1     -21.612  -2.514  -7.857  0.00  0.00     0.275 HD
ENDBRANCH   1  17
TORSDOF 8
ENDMDL
MODEL 5
REMARK VINA RESULT:      -5.3      2.163      2.430
REMARK  8 active torsions:
REMARK  status: ('A' for Active; 'I' for Inactive)
REMARK    1  A    between atoms: O_3  and  P_4 
REMARK    2  A    between atoms: P_4  and  O_5 
REMARK    3  A    between atoms: O_5  and  C_6 
REMARK    4  A    between atoms: C_6  and  C_7 
REMARK    5  A    between atoms: C_7  and  C_8 
REMARK    6  A    between atoms: C_7  and  N_20 
REMARK       I    between atoms: C_8  and  N_9 
REMARK    7  A    between atoms: N_9  and  C_10 
REMARK    8  A    between atoms: C_10  and  C_12 
ROOT
HETATM    1  C           1     -36.475  -1.126 -10.605  0.00  0.00     0.298 C 
ENDROOT
BRANCH   1   2
HETATM    2  C           1     -36.739  -0.292 -11.851  0.00  0.00     0.224 C 
BRANCH   2   3
HETATM    3  O           1     -36.528  -1.078 -12.994  0.00  0.00    -0.287 OA
BRANCH   3   4
HETATM    4  P           1     -35.752  -0.359 -14.213  0.00  0.00     0.406 P 
HETATM    5  O           1     -35.353  -1.375 -15.212  0.00  0.00    -0.624 OA
HETATM    6  O           1     -34.545   0.324 -13.694  0.00  0.00    -0.624 OA
BRANCH   4   7
HETATM    7  O           1     -36.726   0.726 -14.908  0.00  0.00    -0.300 OA
HETATM    8  H           1     -36.656   0.558 -15.833  0.00  0.00     0.223 HD
ENDBRANCH   4   7
ENDBRANCH   3   4
ENDBRANCH   2   3
ENDBRANCH   1   2
BRANCH   1   9
HETATM    9  C           1     -35.225  -1.947 -10.804  0.00  0.00     0.251 C 
HETATM   10  N           1     -35.321  -3.267 -11.154  0.00  0.00    -0.349 N 
HETATM   11  H           1     -36.231  -3.693 -11.279  0.00  0.00     0.163 HD
HETATM   12  O           1     -34.139  -1.440 -10.654  0.00  0.00    -0.271 OA
BRANCH  10  13
HETATM   13  C           1     -34.119  -4.056 -11.344  0.00  0.00     0.235 C 
BRANCH  13  14
HETATM   14  C           1     -34.498  -5.482 -11.661  0.00  0.00     0.191 C 
HETATM   15  O           1     -34.153  -6.405 -10.892  0.00  0.00    -0.647 OA
HETATM   16  O           1     -35.158  -5.740 -12.691  0.00  0.00    -0.647 OA
ENDBRANCH  13  14
ENDBRANCH  10  13
ENDBRANCH   1   9
BRANCH   1  17
HETATM   17  N           1     -36.293  -0.217  -9.425  0.00  0.00    -0.064 N 
HETATM   18  H           1     -36.821  -0.599  -8.608  0.00  0.00     0.275 HD
HETATM   19  H           1     -36.652   0.735  -9.660  0.00  0.00     0.275 HD
HETATM   20  H           1     -35.277  -0.157  -9.186  0.00  0.00     0.275 HD
ENDBRANCH   1  17
TORSDOF 8
ENDMDL
MODEL 6
REMARK VINA RESULT:      -5.2     10.285     12.379
REMARK  8 active torsions:
REMARK  status: ('A' for Active; 'I' for Inactive)
REMARK    1  A    between atoms: O_3  and  P_4 
REMARK    2  A    between atoms: P_4  and  O_5 
REMARK    3  A    between atoms: O_5  and  C_6 
REMARK    4  A    between atoms: C_6  and  C_7 
REMARK    5  A    between atoms: C_7  and  C_8 
REMARK    6  A    between atoms: C_7  and  N_20 
REMARK       I    between atoms: C_8  and  N_9 
REMARK    7  A    between atoms: N_9  and  C_10 
REMARK    8  A    between atoms: C_10  and  C_12 
ROOT
HETATM    1  C           1     -24.576  -6.729 -17.262  0.00  0.00     0.298 C 
ENDROOT
BRANCH   1   2
HETATM    2  C           1     -25.206  -6.918 -18.635  0.00  0.00     0.224 C 
BRANCH   2   3
HETATM    3  O           1     -24.272  -7.505 -19.502  0.00  0.00    -0.287 OA
BRANCH   3   4
HETATM    4  P           1     -24.726  -7.637 -21.046  0.00  0.00     0.406 P 
HETATM    5  O           1     -23.618  -8.218 -21.838  0.00  0.00    -0.624 OA
HETATM    6  O           1     -25.063  -6.297 -21.577  0.00  0.00    -0.624 OA
BRANCH   4   7
HETATM    7  O           1     -26.020  -8.597 -21.147  0.00  0.00    -0.300 OA
HETATM    8  H           1     -25.989  -8.957 -22.018  0.00  0.00     0.223 HD
ENDBRANCH   4   7
ENDBRANCH   3   4
ENDBRANCH   2   3
ENDBRANCH   1   2
BRANCH   1   9
HETATM    9  C           1     -25.658  -6.711 -16.210  0.00  0.00     0.251 C 
HETATM   10  N           1     -26.954  -6.980 -16.556  0.00  0.00    -0.349 N 
HETATM   11  H           1     -27.188  -7.191 -17.517  0.00  0.00     0.163 HD
HETATM   12  O           1     -25.379  -6.458 -15.062  0.00  0.00    -0.271 OA
BRANCH  10  13
HETATM   13  C           1     -27.993  -6.962 -15.544  0.00  0.00     0.235 C 
BRANCH  13  14
HETATM   14  C           1     -28.750  -5.658 -15.622  0.00  0.00     0.191 C 
HETATM   15  O           1     -28.130  -4.574 -15.587  0.00  0.00    -0.647 OA
HETATM   16  O           1     -29.996  -5.663 -15.720  0.00  0.00    -0.647 OA
ENDBRANCH  13  14
ENDBRANCH  10  13
ENDBRANCH   1   9
BRANCH   1  17
HETATM   17  N           1     -23.630  -7.861 -16.986  0.00  0.00    -0.064 N 
HETATM   18  H           1     -23.667  -8.104 -15.970  0.00  0.00     0.275 HD
HETATM   19  H           1     -22.659  -7.573 -17.243  0.00  0.00     0.275 HD
HETATM   20  H           1     -23.908  -8.693 -17.554  0.00  0.00     0.275 HD
ENDBRANCH   1  17
TORSDOF 8
ENDMDL
MODEL 7
REMARK VINA RESULT:      -5.2     12.853     15.988
REMARK  8 active torsions:
REMARK  status: ('A' for Active; 'I' for Inactive)
REMARK    1  A    between atoms: O_3  and  P_4 
REMARK    2  A    between atoms: P_4  and  O_5 
REMARK    3  A    between atoms: O_5  and  C_6 
REMARK    4  A    between atoms: C_6  and  C_7 
REMARK    5  A    between atoms: C_7  and  C_8 
REMARK    6  A    between atoms: C_7  and  N_20 
REMARK       I    between atoms: C_8  and  N_9 
REMARK    7  A    between atoms: N_9  and  C_10 
REMARK    8  A    between atoms: C_10  and  C_12 
ROOT
HETATM    1  C           1     -20.074  -5.108  -7.995  0.00  0.00     0.298 C 
ENDROOT
BRANCH   1   2
HETATM    2  C           1     -19.992  -6.001  -6.766  0.00  0.00     0.224 C 
BRANCH   2   3
HETATM    3  O           1     -21.202  -6.692  -6.607  0.00  0.00    -0.287 OA
BRANCH   3   4
HETATM    4  P           1     -21.847  -6.658  -5.127  0.00  0.00     0.406 P 
HETATM    5  O           1     -21.021  -5.802  -4.248  0.00  0.00    -0.624 OA
HETATM    6  O           1     -21.893  -8.033  -4.578  0.00  0.00    -0.624 OA
BRANCH   4   7
HETATM    7  O           1     -23.346  -6.061  -5.206  0.00  0.00    -0.300 OA
HETATM    8  H           1     -23.436  -5.528  -4.434  0.00  0.00     0.223 HD
ENDBRANCH   4   7
ENDBRANCH   3   4
ENDBRANCH   2   3
ENDBRANCH   1   2
BRANCH   1   9
HETATM    9  C           1     -21.401  -4.387  -8.007  0.00  0.00     0.251 C 
HETATM   10  N           1     -22.380  -4.771  -8.883  0.00  0.00    -0.349 N 
HETATM   11  H           1     -22.215  -5.537  -9.523  0.00  0.00     0.163 HD
HETATM   12  O           1     -21.598  -3.472  -7.244  0.00  0.00    -0.271 OA
BRANCH  10  13
HETATM   13  C           1     -23.655  -4.079  -8.895  0.00  0.00     0.235 C 
BRANCH  13  14
HETATM   14  C           1     -23.886  -3.472 -10.257  0.00  0.00     0.191 C 
HETATM   15  O           1     -25.048  -3.215 -10.637  0.00  0.00    -0.647 OA
HETATM   16  O           1     -22.915  -3.226 -11.005  0.00  0.00    -0.647 OA
ENDBRANCH  13  14
ENDBRANCH  10  13
ENDBRANCH   1   9
BRANCH   1  17
HETATM   17  N           1     -18.961  -4.102  -7.959  0.00  0.00    -0.064 N 
HETATM   18  H           1     -18.771  -3.758  -8.927  0.00  0.00     0.275 HD
HETATM   19  H           1     -18.101  -4.549  -7.570  0.00  0.00     0.275 HD
HETATM   20  H           1     -19.239  -3.297  -7.351  0.00  0.00     0.275 HD
ENDBRANCH   1  17
TORSDOF 8
ENDMDL
MODEL 8
REMARK VINA RESULT:      -5.2      9.492     11.518
REMARK  8 active torsions:
REMARK  status: ('A' for Active; 'I' for Inactive)
REMARK    1  A    between atoms: O_3  and  P_4 
REMARK    2  A    between atoms: P_4  and  O_5 
REMARK    3  A    between atoms: O_5  and  C_6 
REMARK    4  A    between atoms: C_6  and  C_7 
REMARK    5  A    between atoms: C_7  and  C_8 
REMARK    6  A    between atoms: C_7  and  N_20 
REMARK       I    between atoms: C_8  and  N_9 
REMARK    7  A    between atoms: N_9  and  C_10 
REMARK    8  A    between atoms: C_10  and  C_12 
ROOT
HETATM    1  C           1     -29.107  -5.501 -17.414  0.00  0.00     0.298 C 
ENDROOT
BRANCH   1   2
HETATM    2  C           1     -28.170  -5.634 -16.222  0.00  0.00     0.224 C 
BRANCH   2   3
HETATM    3  O           1     -26.859  -5.336 -16.621  0.00  0.00    -0.287 OA
BRANCH   3   4
HETATM    4  P           1     -25.727  -6.402 -16.186  0.00  0.00     0.406 P 
HETATM    5  O           1     -26.356  -7.511 -15.435  0.00  0.00    -0.624 OA
HETATM    6  O           1     -24.723  -5.732 -15.328  0.00  0.00    -0.624 OA
BRANCH   4   7
HETATM    7  O           1     -25.002  -6.988 -17.505  0.00  0.00    -0.300 OA
HETATM    8  H           1     -25.488  -6.630 -18.229  0.00  0.00     0.223 HD
ENDBRANCH   4   7
ENDBRANCH   3   4
ENDBRANCH   2   3
ENDBRANCH   1   2
BRANCH   1   9
HETATM    9  C           1     -28.840  -6.619 -18.392  0.00  0.00     0.251 C 
HETATM   10  N           1     -27.710  -6.598 -19.164  0.00  0.00    -0.349 N 
HETATM   11  H           1     -27.053  -5.833 -19.079  0.00  0.00     0.163 HD
HETATM   12  O           1     -29.624  -7.533 -18.494  0.00  0.00    -0.271 OA
BRANCH  10  13
HETATM   13  C           1     -27.454  -7.673 -20.104  0.00  0.00     0.235 C 
BRANCH  13  14
HETATM   14  C           1     -26.081  -7.499 -20.706  0.00  0.00     0.191 C 
HETATM   15  O           1     -25.370  -6.528 -20.368  0.00  0.00    -0.647 OA
HETATM   16  O           1     -25.655  -8.325 -21.541  0.00  0.00    -0.647 OA
ENDBRANCH  13  14
ENDBRANCH  10  13
ENDBRANCH   1   9
BRANCH   1  17
HETATM   17  N           1     -30.530  -5.579 -16.943  0.00  0.00    -0.064 N 
HETATM   18  H           1     -30.903  -6.538 -17.123  0.00  0.00     0.275 HD
HETATM   19  H           1     -31.106  -4.876 -17.458  0.00  0.00     0.275 HD
HETATM   20  H           1     -30.568  -5.377 -15.918  0.00  0.00     0.275 HD
ENDBRANCH   1  17
TORSDOF 8
ENDMDL
MODEL 9
REMARK VINA RESULT:      -4.9     12.864     15.119
REMARK  8 active torsions:
REMARK  status: ('A' for Active; 'I' for Inactive)
REMARK    1  A    between atoms: O_3  and  P_4 
REMARK    2  A    between atoms: P_4  and  O_5 
REMARK    3  A    between atoms: O_5  and  C_6 
REMARK    4  A    between atoms: C_6  and  C_7 
REMARK    5  A    between atoms: C_7  and  C_8 
REMARK    6  A    between atoms: C_7  and  N_20 
REMARK       I    between atoms: C_8  and  N_9 
REMARK    7  A    between atoms: N_9  and  C_10 
REMARK    8  A    between atoms: C_10  and  C_12 
ROOT
HETATM    1  C           1     -21.338  -4.200  -7.954  0.00  0.00     0.298 C 
ENDROOT
BRANCH   1   2
HETATM    2  C           1     -22.843  -4.408  -8.031  0.00  0.00     0.224 C 
BRANCH   2   3
HETATM    3  O           1     -23.416  -3.400  -8.820  0.00  0.00    -0.287 OA
BRANCH   3   4
HETATM    4  P           1     -23.715  -3.789 -10.359  0.00  0.00     0.406 P 
HETATM    5  O           1     -23.742  -5.262 -10.499  0.00  0.00    -0.624 OA
HETATM    6  O           1     -22.651  -3.229 -11.223  0.00  0.00    -0.624 OA
BRANCH   4   7
HETATM    7  O           1     -25.143  -3.180 -10.802  0.00  0.00    -0.300 OA
HETATM    8  H           1     -25.340  -2.525 -10.153  0.00  0.00     0.223 HD
ENDBRANCH   4   7
ENDBRANCH   3   4
ENDBRANCH   2   3
ENDBRANCH   1   2
BRANCH   1   9
HETATM    9  C           1     -20.779  -4.983  -6.791  0.00  0.00     0.251 C 
HETATM   10  N           1     -20.577  -6.332  -6.908  0.00  0.00    -0.349 N 
HETATM   11  H           1     -20.803  -6.804  -7.774  0.00  0.00     0.163 HD
HETATM   12  O           1     -20.510  -4.419  -5.757  0.00  0.00    -0.271 OA
BRANCH  10  13
HETATM   13  C           1     -20.040  -7.084  -5.790  0.00  0.00     0.235 C 
BRANCH  13  14
HETATM   14  C           1     -21.077  -8.065  -5.299  0.00  0.00     0.191 C 
HETATM   15  O           1     -21.927  -7.706  -4.457  0.00  0.00    -0.647 OA
HETATM   16  O           1     -21.085  -9.237  -5.736  0.00  0.00    -0.647 OA
ENDBRANCH  13  14
ENDBRANCH  10  13
ENDBRANCH   1   9
BRANCH   1  17
HETATM   17  N           1     -20.701  -4.674  -9.227  0.00  0.00    -0.064 N 
HETATM   18  H           1     -21.406  -4.651  -9.998  0.00  0.00     0.275 HD
HETATM   19  H           1     -20.353  -5.651  -9.099  0.00  0.00     0.275 HD
HETATM   20  H           1     -19.899  -4.049  -9.469  0.00  0.00     0.275 HD
ENDBRANCH   1  17
TORSDOF 8
ENDMDL
