MODEL 1
REMARK VINA RESULT:      -7.1      0.000      0.000
REMARK  11 active torsions:
REMARK  status: ('A' for Active; 'I' for Inactive)
REMARK       I    between atoms: C_1  and  N_13 
REMARK    1  A    between atoms: C_1  and  C_2 
REMARK    2  A    between atoms: C_2  and  C_28 
REMARK    3  A    between atoms: C_2  and  N_12 
REMARK    4  A    between atoms: C_4  and  N_18 
REMARK    5  A    between atoms: C_4  and  C_21 
REMARK    6  A    between atoms: C_5  and  C_28 
REMARK    7  A    between atoms: C_5  and  C_6 
REMARK       I    between atoms: N_7  and  C_23 
REMARK    8  A    between atoms: C_11  and  C_21 
REMARK    9  A    between atoms: C_11  and  C_17 
REMARK   10  A    between atoms: N_13  and  C_17 
REMARK   11  A    between atoms: C_16  and  C_17 
REMARK       I    between atoms: N_18  and  C_23 
ROOT
HETATM    1  C           1     -34.176  -3.701 -12.932  0.00  0.00     0.185 C 
ENDROOT
BRANCH   1   2
HETATM    2  C           1     -33.129  -3.820 -11.834  0.00  0.00     0.038 C 
BRANCH   2   3
HETATM    3  C           1     -33.712  -4.592 -10.657  0.00  0.00     0.023 C 
BRANCH   3   4
HETATM    4  C           1     -34.564  -5.743 -11.175  0.00  0.00     0.138 C 
BRANCH   4   5
HETATM    5  N           1     -33.818  -7.003 -11.042  0.00  0.00    -0.227 N 
HETATM    6  C           1     -34.205  -7.883 -10.217  0.00  0.00     0.665 C 
HETATM    7  N           1     -35.233  -7.677  -9.508  0.00  0.00    -0.235 N 
HETATM    8  N           1     -33.546  -8.997 -10.099  0.00  0.00    -0.235 N 
HETATM    9  H           1     -35.765  -6.777  -9.603  0.00  0.00     0.174 HD
HETATM   10  H           1     -35.553  -8.406  -8.823  0.00  0.00     0.174 HD
HETATM   11  H           1     -32.697  -9.167 -10.685  0.00  0.00     0.174 HD
HETATM   12  H           1     -33.865  -9.723  -9.419  0.00  0.00     0.174 HD
HETATM   13  H           1     -32.966  -7.173 -11.631  0.00  0.00     0.177 HD
ENDBRANCH   4   5
ENDBRANCH   3   4
ENDBRANCH   2   3
ENDBRANCH   1   2
BRANCH   1  14
HETATM   14  N           1     -33.522  -3.714 -14.227  0.00  0.00    -0.345 N 
HETATM   15  C           1     -34.028  -4.479 -15.242  0.00  0.00     0.249 C 
HETATM   16  O           1     -35.020  -5.144 -15.061  0.00  0.00    -0.271 OA
HETATM   17  H           1     -32.691  -3.157 -14.378  0.00  0.00     0.163 HD
BRANCH  15  18
HETATM   18  C           1     -33.346  -4.492 -16.588  0.00  0.00     0.275 C 
BRANCH  18  19
HETATM   19  C           1     -31.851  -4.715 -16.399  0.00  0.00     0.053 C 
BRANCH  19  20
HETATM   20  C           1     -31.083  -3.932 -17.456  0.00  0.00     0.115 C 
BRANCH  20  21
HETATM   21  C           1     -29.687  -4.492 -17.581  0.00  0.00     0.172 C 
HETATM   22  O           1     -29.054  -4.827 -16.557  0.00  0.00    -0.648 OA
HETATM   23  O           1     -29.164  -4.621 -18.709  0.00  0.00    -0.648 OA
ENDBRANCH  20  21
ENDBRANCH  19  20
ENDBRANCH  18  19
BRANCH  18  24
HETATM   24  N           1     -33.572  -3.177 -17.275  0.00  0.00    -0.066 N 
HETATM   25  H           1     -34.064  -3.338 -18.183  0.00  0.00     0.275 HD
HETATM   26  H           1     -34.157  -2.564 -16.665  0.00  0.00     0.275 HD
HETATM   27  H           1     -32.652  -2.716 -17.455  0.00  0.00     0.275 HD
ENDBRANCH  18  24
ENDBRANCH  15  18
ENDBRANCH   1  14
BRANCH   1  28
HETATM   28  C           1     -34.936  -2.408 -12.768  0.00  0.00     0.196 C 
HETATM   29  O           1     -34.734  -1.460 -13.558  0.00  0.00    -0.646 OA
HETATM   30  O           1     -35.766  -2.283 -11.841  0.00  0.00    -0.646 OA
ENDBRANCH   1  28
TORSDOF 11
ENDMDL
MODEL 2
REMARK VINA RESULT:      -7.0      7.026     11.055
REMARK  11 active torsions:
REMARK  status: ('A' for Active; 'I' for Inactive)
REMARK       I    between atoms: C_1  and  N_13 
REMARK    1  A    between atoms: C_1  and  C_2 
REMARK    2  A    between atoms: C_2  and  C_28 
REMARK    3  A    between atoms: C_2  and  N_12 
REMARK    4  A    between atoms: C_4  and  N_18 
REMARK    5  A    between atoms: C_4  and  C_21 
REMARK    6  A    between atoms: C_5  and  C_28 
REMARK    7  A    between atoms: C_5  and  C_6 
REMARK       I    between atoms: N_7  and  C_23 
REMARK    8  A    between atoms: C_11  and  C_21 
REMARK    9  A    between atoms: C_11  and  C_17 
REMARK   10  A    between atoms: N_13  and  C_17 
REMARK   11  A    between atoms: C_16  and  C_17 
REMARK       I    between atoms: N_18  and  C_23 
ROOT
HETATM    1  C           1     -27.123  -6.986 -20.490  0.00  0.00     0.185 C 
ENDROOT
BRANCH   1   2
HETATM    2  C           1     -25.672  -6.529 -20.530  0.00  0.00     0.038 C 
BRANCH   2   3
HETATM    3  C           1     -24.971  -6.947 -19.244  0.00  0.00     0.023 C 
BRANCH   3   4
HETATM    4  C           1     -23.619  -7.562 -19.579  0.00  0.00     0.138 C 
BRANCH   4   5
HETATM    5  N           1     -23.704  -8.263 -20.868  0.00  0.00    -0.227 N 
HETATM    6  C           1     -22.656  -8.729 -21.406  0.00  0.00     0.665 C 
HETATM    7  N           1     -21.536  -8.591 -20.833  0.00  0.00    -0.235 N 
HETATM    8  N           1     -22.732  -9.349 -22.546  0.00  0.00    -0.235 N 
HETATM    9  H           1     -21.475  -8.090 -19.912  0.00  0.00     0.174 HD
HETATM   10  H           1     -20.667  -8.977 -21.279  0.00  0.00     0.174 HD
HETATM   11  H           1     -23.657  -9.463 -23.019  0.00  0.00     0.174 HD
HETATM   12  H           1     -21.868  -9.733 -22.990  0.00  0.00     0.174 HD
HETATM   13  H           1     -24.633  -8.377 -21.343  0.00  0.00     0.177 HD
ENDBRANCH   4   5
ENDBRANCH   3   4
ENDBRANCH   2   3
ENDBRANCH   1   2
BRANCH   1  14
HETATM   14  N           1     -27.552  -7.113 -19.110  0.00  0.00    -0.345 N 
HETATM   15  C           1     -28.356  -6.157 -18.552  0.00  0.00     0.249 C 
HETATM   16  O           1     -28.710  -5.207 -19.209  0.00  0.00    -0.271 OA
HETATM   17  H           1     -27.255  -7.909 -18.561  0.00  0.00     0.163 HD
BRANCH  15  18
HETATM   18  C           1     -28.801  -6.290 -17.116  0.00  0.00     0.275 C 
BRANCH  18  19
HETATM   19  C           1     -27.699  -5.786 -16.193  0.00  0.00     0.053 C 
BRANCH  19  20
HETATM   20  C           1     -26.977  -6.972 -15.569  0.00  0.00     0.115 C 
BRANCH  20  21
HETATM   21  C           1     -25.489  -6.820 -15.773  0.00  0.00     0.172 C 
HETATM   22  O           1     -24.765  -7.835 -15.877  0.00  0.00    -0.648 OA
HETATM   23  O           1     -24.980  -5.681 -15.840  0.00  0.00    -0.648 OA
ENDBRANCH  20  21
ENDBRANCH  19  20
ENDBRANCH  18  19
BRANCH  18  24
HETATM   24  N           1     -29.085  -7.732 -16.813  0.00  0.00    -0.066 N 
HETATM   25  H           1     -28.888  -8.311 -17.660  0.00  0.00     0.275 HD
HETATM   26  H           1     -28.476  -8.048 -16.026  0.00  0.00     0.275 HD
HETATM   27  H           1     -30.089  -7.840 -16.544  0.00  0.00     0.275 HD
ENDBRANCH  18  24
ENDBRANCH  15  18
ENDBRANCH   1  14
BRANCH   1  28
HETATM   28  C           1     -27.250  -8.322 -21.180  0.00  0.00     0.196 C 
HETATM   29  O           1     -26.287  -8.783 -21.830  0.00  0.00    -0.646 OA
HETATM   30  O           1     -28.318  -8.967 -21.102  0.00  0.00    -0.646 OA
ENDBRANCH   1  28
TORSDOF 11
ENDMDL
MODEL 3
REMARK VINA RESULT:      -6.7      6.131      9.943
REMARK  11 active torsions:
REMARK  status: ('A' for Active; 'I' for Inactive)
REMARK       I    between atoms: C_1  and  N_13 
REMARK    1  A    between atoms: C_1  and  C_2 
REMARK    2  A    between atoms: C_2  and  C_28 
REMARK    3  A    between atoms: C_2  and  N_12 
REMARK    4  A    between atoms: C_4  and  N_18 
REMARK    5  A    between atoms: C_4  and  C_21 
REMARK    6  A    between atoms: C_5  and  C_28 
REMARK    7  A    between atoms: C_5  and  C_6 
REMARK       I    between atoms: N_7  and  C_23 
REMARK    8  A    between atoms: C_11  and  C_21 
REMARK    9  A    between atoms: C_11  and  C_17 
REMARK   10  A    between atoms: N_13  and  C_17 
REMARK   11  A    between atoms: C_16  and  C_17 
REMARK       I    between atoms: N_18  and  C_23 
ROOT
HETATM    1  C           1     -26.407  -6.996 -17.552  0.00  0.00     0.185 C 
ENDROOT
BRANCH   1   2
HETATM    2  C           1     -25.387  -6.624 -18.619  0.00  0.00     0.038 C 
BRANCH   2   3
HETATM    3  C           1     -26.045  -6.679 -19.992  0.00  0.00     0.023 C 
BRANCH   3   4
HETATM    4  C           1     -25.399  -7.781 -20.821  0.00  0.00     0.138 C 
BRANCH   4   5
HETATM    5  N           1     -24.017  -7.991 -20.366  0.00  0.00    -0.227 N 
HETATM    6  C           1     -23.138  -8.401 -21.180  0.00  0.00     0.665 C 
HETATM    7  N           1     -23.448  -8.629 -22.385  0.00  0.00    -0.235 N 
HETATM    8  N           1     -21.916  -8.587 -20.777  0.00  0.00    -0.235 N 
HETATM    9  H           1     -24.435  -8.479 -22.711  0.00  0.00     0.174 HD
HETATM   10  H           1     -22.719  -8.969 -23.061  0.00  0.00     0.174 HD
HETATM   11  H           1     -21.659  -8.398 -19.781  0.00  0.00     0.174 HD
HETATM   12  H           1     -21.189  -8.925 -21.448  0.00  0.00     0.174 HD
HETATM   13  H           1     -23.760  -7.802 -19.366  0.00  0.00     0.177 HD
ENDBRANCH   4   5
ENDBRANCH   3   4
ENDBRANCH   2   3
ENDBRANCH   1   2
BRANCH   1  14
HETATM   14  N           1     -27.628  -6.244 -17.768  0.00  0.00    -0.345 N 
HETATM   15  C           1     -28.834  -6.777 -17.401  0.00  0.00     0.249 C 
HETATM   16  O           1     -28.881  -7.874 -16.896  0.00  0.00    -0.271 OA
HETATM   17  H           1     -27.588  -5.326 -18.191  0.00  0.00     0.163 HD
BRANCH  15  18
HETATM   18  C           1     -30.105  -5.995 -17.627  0.00  0.00     0.275 C 
BRANCH  18  19
HETATM   19  C           1     -29.785  -4.712 -18.382  0.00  0.00     0.053 C 
BRANCH  19  20
HETATM   20  C           1     -30.276  -3.514 -17.580  0.00  0.00     0.115 C 
BRANCH  20  21
HETATM   21  C           1     -29.096  -2.676 -17.154  0.00  0.00     0.172 C 
HETATM   22  O           1     -28.058  -3.228 -16.726  0.00  0.00    -0.648 OA
HETATM   23  O           1     -29.154  -1.429 -17.229  0.00  0.00    -0.648 OA
ENDBRANCH  20  21
ENDBRANCH  19  20
ENDBRANCH  18  19
BRANCH  18  24
HETATM   24  N           1     -30.723  -5.654 -16.303  0.00  0.00    -0.066 N 
HETATM   25  H           1     -31.358  -6.429 -16.006  0.00  0.00     0.275 HD
HETATM   26  H           1     -29.969  -5.529 -15.590  0.00  0.00     0.275 HD
HETATM   27  H           1     -31.270  -4.769 -16.393  0.00  0.00     0.275 HD
ENDBRANCH  18  24
ENDBRANCH  15  18
ENDBRANCH   1  14
BRANCH   1  28
HETATM   28  C           1     -25.851  -6.667 -16.188  0.00  0.00     0.196 C 
HETATM   29  O           1     -25.255  -5.584 -16.001  0.00  0.00    -0.646 OA
HETATM   30  O           1     -25.986  -7.477 -15.246  0.00  0.00    -0.646 OA
ENDBRANCH   1  28
TORSDOF 11
ENDMDL
MODEL 4
REMARK VINA RESULT:      -6.7     13.450     15.690
REMARK  11 active torsions:
REMARK  status: ('A' for Active; 'I' for Inactive)
REMARK       I    between atoms: C_1  and  N_13 
REMARK    1  A    between atoms: C_1  and  C_2 
REMARK    2  A    between atoms: C_2  and  C_28 
REMARK    3  A    between atoms: C_2  and  N_12 
REMARK    4  A    between atoms: C_4  and  N_18 
REMARK    5  A    between atoms: C_4  and  C_21 
REMARK    6  A    between atoms: C_5  and  C_28 
REMARK    7  A    between atoms: C_5  and  C_6 
REMARK       I    between atoms: N_7  and  C_23 
REMARK    8  A    between atoms: C_11  and  C_21 
REMARK    9  A    between atoms: C_11  and  C_17 
REMARK   10  A    between atoms: N_13  and  C_17 
REMARK   11  A    between atoms: C_16  and  C_17 
REMARK       I    between atoms: N_18  and  C_23 
ROOT
HETATM    1  C           1     -21.494  -5.126  -7.201  0.00  0.00     0.185 C 
ENDROOT
BRANCH   1   2
HETATM    2  C           1     -22.560  -4.108  -7.582  0.00  0.00     0.038 C 
BRANCH   2   3
HETATM    3  C           1     -23.382  -4.644  -8.748  0.00  0.00     0.023 C 
BRANCH   3   4
HETATM    4  C           1     -23.353  -3.642  -9.893  0.00  0.00     0.138 C 
BRANCH   4   5
HETATM    5  N           1     -21.959  -3.353 -10.259  0.00  0.00    -0.227 N 
HETATM    6  C           1     -21.463  -3.857 -11.309  0.00  0.00     0.665 C 
HETATM    7  N           1     -22.167  -4.609 -12.045  0.00  0.00    -0.235 N 
HETATM    8  N           1     -20.230  -3.603 -11.632  0.00  0.00    -0.235 N 
HETATM    9  H           1     -23.163  -4.815 -11.784  0.00  0.00     0.174 HD
HETATM   10  H           1     -21.756  -5.027 -12.916  0.00  0.00     0.174 HD
HETATM   11  H           1     -19.647  -2.982 -11.025  0.00  0.00     0.174 HD
HETATM   12  H           1     -19.819  -4.018 -12.499  0.00  0.00     0.174 HD
HETATM   13  H           1     -21.374  -2.730  -9.649  0.00  0.00     0.177 HD
ENDBRANCH   4   5
ENDBRANCH   3   4
ENDBRANCH   2   3
ENDBRANCH   1   2
BRANCH   1  14
HETATM   14  N           1     -21.729  -5.588  -5.847  0.00  0.00    -0.345 N 
HETATM   15  C           1     -21.575  -6.912  -5.538  0.00  0.00     0.249 C 
HETATM   16  O           1     -21.243  -7.697  -6.394  0.00  0.00    -0.271 OA
HETATM   17  H           1     -22.008  -4.930  -5.130  0.00  0.00     0.163 HD
BRANCH  15  18
HETATM   18  C           1     -21.821  -7.392  -4.129  0.00  0.00     0.275 C 
BRANCH  18  19
HETATM   19  C           1     -21.220  -6.399  -3.142  0.00  0.00     0.053 C 
BRANCH  19  20
HETATM   20  C           1     -22.233  -6.095  -2.047  0.00  0.00     0.115 C 
BRANCH  20  21
HETATM   21  C           1     -22.137  -7.144  -0.966  0.00  0.00     0.172 C 
HETATM   22  O           1     -21.109  -7.849  -0.868  0.00  0.00    -0.648 OA
HETATM   23  O           1     -23.085  -7.309  -0.168  0.00  0.00    -0.648 OA
ENDBRANCH  20  21
ENDBRANCH  19  20
ENDBRANCH  18  19
BRANCH  18  24
HETATM   24  N           1     -21.179  -8.735  -3.940  0.00  0.00    -0.066 N 
HETATM   25  H           1     -20.757  -9.049  -4.842  0.00  0.00     0.275 HD
HETATM   26  H           1     -20.432  -8.663  -3.213  0.00  0.00     0.275 HD
HETATM   27  H           1     -21.901  -9.425  -3.633  0.00  0.00     0.275 HD
ENDBRANCH  18  24
ENDBRANCH  15  18
ENDBRANCH   1  14
BRANCH   1  28
HETATM   28  C           1     -20.131  -4.484  -7.282  0.00  0.00     0.196 C 
HETATM   29  O           1     -19.797  -3.855  -8.310  0.00  0.00    -0.646 OA
HETATM   30  O           1     -19.336  -4.581  -6.323  0.00  0.00    -0.646 OA
ENDBRANCH   1  28
TORSDOF 11
ENDMDL
MODEL 5
REMARK VINA RESULT:      -6.6     13.136     14.599
REMARK  11 active torsions:
REMARK  status: ('A' for Active; 'I' for Inactive)
REMARK       I    between atoms: C_1  and  N_13 
REMARK    1  A    between atoms: C_1  and  C_2 
REMARK    2  A    between atoms: C_2  and  C_28 
REMARK    3  A    between atoms: C_2  and  N_12 
REMARK    4  A    between atoms: C_4  and  N_18 
REMARK    5  A    between atoms: C_4  and  C_21 
REMARK    6  A    between atoms: C_5  and  C_28 
REMARK    7  A    between atoms: C_5  and  C_6 
REMARK       I    between atoms: N_7  and  C_23 
REMARK    8  A    between atoms: C_11  and  C_21 
REMARK    9  A    between atoms: C_11  and  C_17 
REMARK   10  A    between atoms: N_13  and  C_17 
REMARK   11  A    between atoms: C_16  and  C_17 
REMARK       I    between atoms: N_18  and  C_23 
ROOT
HETATM    1  C           1     -20.938  -6.358  -5.252  0.00  0.00     0.185 C 
ENDROOT
BRANCH   1   2
HETATM    2  C           1     -22.005  -6.503  -4.176  0.00  0.00     0.038 C 
BRANCH   2   3
HETATM    3  C           1     -21.424  -6.102  -2.826  0.00  0.00     0.023 C 
BRANCH   3   4
HETATM    4  C           1     -21.337  -7.327  -1.926  0.00  0.00     0.138 C 
BRANCH   4   5
HETATM    5  N           1     -22.227  -7.148  -0.769  0.00  0.00    -0.227 N 
HETATM    6  C           1     -22.746  -8.158  -0.208  0.00  0.00     0.665 C 
HETATM    7  N           1     -22.500  -9.321  -0.644  0.00  0.00    -0.235 N 
HETATM    8  N           1     -23.533  -8.000   0.815  0.00  0.00    -0.235 N 
HETATM    9  H           1     -21.865  -9.448  -1.470  0.00  0.00     0.174 HD
HETATM   10  H           1     -22.931 -10.158  -0.179  0.00  0.00     0.174 HD
HETATM   11  H           1     -23.737  -7.041   1.175  0.00  0.00     0.174 HD
HETATM   12  H           1     -23.962  -8.834   1.278  0.00  0.00     0.174 HD
HETATM   13  H           1     -22.431  -6.184  -0.408  0.00  0.00     0.177 HD
ENDBRANCH   4   5
ENDBRANCH   3   4
ENDBRANCH   2   3
ENDBRANCH   1   2
BRANCH   1  14
HETATM   14  N           1     -21.501  -5.674  -6.401  0.00  0.00    -0.345 N 
HETATM   15  C           1     -20.748  -4.763  -7.092  0.00  0.00     0.249 C 
HETATM   16  O           1     -19.614  -4.530  -6.745  0.00  0.00    -0.271 OA
HETATM   17  H           1     -22.450  -5.869  -6.690  0.00  0.00     0.163 HD
BRANCH  15  18
HETATM   18  C           1     -21.334  -4.051  -8.286  0.00  0.00     0.275 C 
BRANCH  18  19
HETATM   19  C           1     -22.641  -4.722  -8.687  0.00  0.00     0.053 C 
BRANCH  19  20
HETATM   20  C           1     -23.697  -3.658  -8.954  0.00  0.00     0.115 C 
BRANCH  20  21
HETATM   21  C           1     -23.969  -3.578 -10.437  0.00  0.00     0.172 C 
HETATM   22  O           1     -25.086  -3.197 -10.848  0.00  0.00    -0.648 OA
HETATM   23  O           1     -23.076  -3.891 -11.253  0.00  0.00    -0.648 OA
ENDBRANCH  20  21
ENDBRANCH  19  20
ENDBRANCH  18  19
BRANCH  18  24
HETATM   24  N           1     -20.367  -4.118  -9.431  0.00  0.00    -0.066 N 
HETATM   25  H           1     -20.705  -4.814 -10.133  0.00  0.00     0.275 HD
HETATM   26  H           1     -20.295  -3.178  -9.880  0.00  0.00     0.275 HD
HETATM   27  H           1     -19.428  -4.409  -9.076  0.00  0.00     0.275 HD
ENDBRANCH  18  24
ENDBRANCH  15  18
ENDBRANCH   1  14
BRANCH   1  28
HETATM   28  C           1     -20.455  -7.725  -5.671  0.00  0.00     0.196 C 
HETATM   29  O           1     -21.234  -8.702  -5.629  0.00  0.00    -0.646 OA
HETATM   30  O           1     -19.278  -7.881  -6.059  0.00  0.00    -0.646 OA
ENDBRANCH   1  28
TORSDOF 11
ENDMDL
MODEL 6
REMARK VINA RESULT:      -6.3      5.199      9.200
REMARK  11 active torsions:
REMARK  status: ('A' for Active; 'I' for Inactive)
REMARK       I    between atoms: C_1  and  N_13 
REMARK    1  A    between atoms: C_1  and  C_2 
REMARK    2  A    between atoms: C_2  and  C_28 
REMARK    3  A    between atoms: C_2  and  N_12 
REMARK    4  A    between atoms: C_4  and  N_18 
REMARK    5  A    between atoms: C_4  and  C_21 
REMARK    6  A    between atoms: C_5  and  C_28 
REMARK    7  A    between atoms: C_5  and  C_6 
REMARK       I    between atoms: N_7  and  C_23 
REMARK    8  A    between atoms: C_11  and  C_21 
REMARK    9  A    between atoms: C_11  and  C_17 
REMARK   10  A    between atoms: N_13  and  C_17 
REMARK   11  A    between atoms: C_16  and  C_17 
REMARK       I    between atoms: N_18  and  C_23 
ROOT
HETATM    1  C           1     -27.892  -6.511 -17.014  0.00  0.00     0.185 C 
ENDROOT
BRANCH   1   2
HETATM    2  C           1     -26.848  -6.225 -18.083  0.00  0.00     0.038 C 
BRANCH   2   3
HETATM    3  C           1     -27.440  -6.498 -19.459  0.00  0.00     0.023 C 
BRANCH   3   4
HETATM    4  C           1     -26.330  -6.487 -20.501  0.00  0.00     0.138 C 
BRANCH   4   5
HETATM    5  N           1     -25.265  -7.416 -20.094  0.00  0.00    -0.227 N 
HETATM    6  C           1     -24.437  -7.844 -20.950  0.00  0.00     0.665 C 
HETATM    7  N           1     -24.525  -7.473 -22.157  0.00  0.00    -0.235 N 
HETATM    8  N           1     -23.496  -8.665 -20.590  0.00  0.00    -0.235 N 
HETATM    9  H           1     -25.286  -6.810 -22.448  0.00  0.00     0.174 HD
HETATM   10  H           1     -23.838  -7.829 -22.868  0.00  0.00     0.174 HD
HETATM   11  H           1     -23.422  -8.971 -19.593  0.00  0.00     0.174 HD
HETATM   12  H           1     -22.811  -9.019 -21.296  0.00  0.00     0.174 HD
HETATM   13  H           1     -25.192  -7.723 -19.093  0.00  0.00     0.177 HD
ENDBRANCH   4   5
ENDBRANCH   3   4
ENDBRANCH   2   3
ENDBRANCH   1   2
BRANCH   1  14
HETATM   14  N           1     -28.723  -5.337 -16.823  0.00  0.00    -0.345 N 
HETATM   15  C           1     -30.061  -5.392 -17.102  0.00  0.00     0.249 C 
HETATM   16  O           1     -30.551  -6.419 -17.508  0.00  0.00    -0.271 OA
HETATM   17  H           1     -28.311  -4.478 -16.483  0.00  0.00     0.163 HD
BRANCH  15  18
HETATM   18  C           1     -30.924  -4.170 -16.904  0.00  0.00     0.275 C 
BRANCH  18  19
HETATM   19  C           1     -32.390  -4.581 -16.884  0.00  0.00     0.053 C 
BRANCH  19  20
HETATM   20  C           1     -33.255  -3.399 -17.298  0.00  0.00     0.115 C 
BRANCH  20  21
HETATM   21  C           1     -34.298  -3.142 -16.237  0.00  0.00     0.172 C 
HETATM   22  O           1     -35.134  -2.225 -16.392  0.00  0.00    -0.648 OA
HETATM   23  O           1     -34.327  -3.846 -15.205  0.00  0.00    -0.648 OA
ENDBRANCH  20  21
ENDBRANCH  19  20
ENDBRANCH  18  19
BRANCH  18  24
HETATM   24  N           1     -30.691  -3.207 -18.030  0.00  0.00    -0.066 N 
HETATM   25  H           1     -31.565  -3.114 -18.596  0.00  0.00     0.275 HD
HETATM   26  H           1     -30.428  -2.274 -17.640  0.00  0.00     0.275 HD
HETATM   27  H           1     -29.919  -3.562 -18.638  0.00  0.00     0.275 HD
ENDBRANCH  18  24
ENDBRANCH  15  18
ENDBRANCH   1  14
BRANCH   1  28
HETATM   28  C           1     -27.204  -6.855 -15.715  0.00  0.00     0.196 C 
HETATM   29  O           1     -26.122  -6.304 -15.418  0.00  0.00    -0.646 OA
HETATM   30  O           1     -27.716  -7.689 -14.938  0.00  0.00    -0.646 OA
ENDBRANCH   1  28
TORSDOF 11
ENDMDL
MODEL 7
REMARK VINA RESULT:      -6.1     13.805     16.118
REMARK  11 active torsions:
REMARK  status: ('A' for Active; 'I' for Inactive)
REMARK       I    between atoms: C_1  and  N_13 
REMARK    1  A    between atoms: C_1  and  C_2 
REMARK    2  A    between atoms: C_2  and  C_28 
REMARK    3  A    between atoms: C_2  and  N_12 
REMARK    4  A    between atoms: C_4  and  N_18 
REMARK    5  A    between atoms: C_4  and  C_21 
REMARK    6  A    between atoms: C_5  and  C_28 
REMARK    7  A    between atoms: C_5  and  C_6 
REMARK       I    between atoms: N_7  and  C_23 
REMARK    8  A    between atoms: C_11  and  C_21 
REMARK    9  A    between atoms: C_11  and  C_17 
REMARK   10  A    between atoms: N_13  and  C_17 
REMARK   11  A    between atoms: C_16  and  C_17 
REMARK       I    between atoms: N_18  and  C_23 
ROOT
HETATM    1  C           1     -21.202  -5.482  -6.354  0.00  0.00     0.185 C 
ENDROOT
BRANCH   1   2
HETATM    2  C           1     -21.759  -4.136  -6.795  0.00  0.00     0.038 C 
BRANCH   2   3
HETATM    3  C           1     -22.881  -4.355  -7.802  0.00  0.00     0.023 C 
BRANCH   3   4
HETATM    4  C           1     -22.510  -3.701  -9.126  0.00  0.00     0.138 C 
BRANCH   4   5
HETATM    5  N           1     -23.307  -4.298 -10.208  0.00  0.00    -0.227 N 
HETATM    6  C           1     -22.754  -4.605 -11.305  0.00  0.00     0.665 C 
HETATM    7  N           1     -21.516  -4.397 -11.471  0.00  0.00    -0.235 N 
HETATM    8  N           1     -23.458  -5.133 -12.262  0.00  0.00    -0.235 N 
HETATM    9  H           1     -20.948  -3.970 -10.698  0.00  0.00     0.174 HD
HETATM   10  H           1     -21.058  -4.651 -12.381  0.00  0.00     0.174 HD
HETATM   11  H           1     -24.480  -5.305 -12.126  0.00  0.00     0.174 HD
HETATM   12  H           1     -23.002  -5.387 -13.168  0.00  0.00     0.174 HD
HETATM   13  H           1     -24.333  -4.471 -10.071  0.00  0.00     0.177 HD
ENDBRANCH   4   5
ENDBRANCH   3   4
ENDBRANCH   2   3
ENDBRANCH   1   2
BRANCH   1  14
HETATM   14  N           1     -20.999  -5.473  -4.918  0.00  0.00    -0.345 N 
HETATM   15  C           1     -21.489  -6.495  -4.151  0.00  0.00     0.249 C 
HETATM   16  O           1     -22.091  -7.404  -4.669  0.00  0.00    -0.271 OA
HETATM   17  H           1     -20.494  -4.711  -4.484  0.00  0.00     0.163 HD
BRANCH  15  18
HETATM   18  C           1     -21.277  -6.485  -2.657  0.00  0.00     0.275 C 
BRANCH  18  19
HETATM   19  C           1     -21.261  -7.916  -2.136  0.00  0.00     0.053 C 
BRANCH  19  20
HETATM   20  C           1     -22.053  -7.994  -0.838  0.00  0.00     0.115 C 
BRANCH  20  21
HETATM   21  C           1     -22.224  -9.439  -0.438  0.00  0.00     0.172 C 
HETATM   22  O           1     -23.195 -10.097  -0.873  0.00  0.00    -0.648 OA
HETATM   23  O           1     -21.396  -9.979   0.326  0.00  0.00    -0.648 OA
ENDBRANCH  20  21
ENDBRANCH  19  20
ENDBRANCH  18  19
BRANCH  18  24
HETATM   24  N           1     -22.393  -5.727  -1.999  0.00  0.00    -0.066 N 
HETATM   25  H           1     -22.742  -4.987  -2.649  0.00  0.00     0.275 HD
HETATM   26  H           1     -23.172  -6.385  -1.771  0.00  0.00     0.275 HD
HETATM   27  H           1     -22.042  -5.283  -1.122  0.00  0.00     0.275 HD
ENDBRANCH  18  24
ENDBRANCH  15  18
ENDBRANCH   1  14
BRANCH   1  28
HETATM   28  C           1     -19.884  -5.734  -7.045  0.00  0.00     0.196 C 
HETATM   29  O           1     -19.287  -4.793  -7.611  0.00  0.00    -0.646 OA
HETATM   30  O           1     -19.391  -6.882  -7.053  0.00  0.00    -0.646 OA
ENDBRANCH   1  28
TORSDOF 11
ENDMDL
MODEL 8
REMARK VINA RESULT:      -6.0     14.357     16.103
REMARK  11 active torsions:
REMARK  status: ('A' for Active; 'I' for Inactive)
REMARK       I    between atoms: C_1  and  N_13 
REMARK    1  A    between atoms: C_1  and  C_2 
REMARK    2  A    between atoms: C_2  and  C_28 
REMARK    3  A    between atoms: C_2  and  N_12 
REMARK    4  A    between atoms: C_4  and  N_18 
REMARK    5  A    between atoms: C_4  and  C_21 
REMARK    6  A    between atoms: C_5  and  C_28 
REMARK    7  A    between atoms: C_5  and  C_6 
REMARK       I    between atoms: N_7  and  C_23 
REMARK    8  A    between atoms: C_11  and  C_21 
REMARK    9  A    between atoms: C_11  and  C_17 
REMARK   10  A    between atoms: N_13  and  C_17 
REMARK   11  A    between atoms: C_16  and  C_17 
REMARK       I    between atoms: N_18  and  C_23 
ROOT
HETATM    1  C           1     -20.671  -6.862  -5.240  0.00  0.00     0.185 C 
ENDROOT
BRANCH   1   2
HETATM    2  C           1     -20.364  -6.121  -6.534  0.00  0.00     0.038 C 
BRANCH   2   3
HETATM    3  C           1     -20.100  -4.652  -6.229  0.00  0.00     0.023 C 
BRANCH   3   4
HETATM    4  C           1     -20.665  -3.790  -7.349  0.00  0.00     0.138 C 
BRANCH   4   5
HETATM    5  N           1     -22.134  -3.831  -7.306  0.00  0.00    -0.227 N 
HETATM    6  C           1     -22.796  -3.960  -8.378  0.00  0.00     0.665 C 
HETATM    7  N           1     -22.193  -4.054  -9.486  0.00  0.00    -0.235 N 
HETATM    8  N           1     -24.095  -3.996  -8.339  0.00  0.00    -0.235 N 
HETATM    9  H           1     -21.144  -4.025  -9.518  0.00  0.00     0.174 HD
HETATM   10  H           1     -22.742  -4.162 -10.376  0.00  0.00     0.174 HD
HETATM   11  H           1     -24.593  -3.919  -7.423  0.00  0.00     0.174 HD
HETATM   12  H           1     -24.642  -4.103  -9.223  0.00  0.00     0.174 HD
HETATM   13  H           1     -22.634  -3.753  -6.386  0.00  0.00     0.177 HD
ENDBRANCH   4   5
ENDBRANCH   3   4
ENDBRANCH   2   3
ENDBRANCH   1   2
BRANCH   1  14
HETATM   14  N           1     -20.850  -8.273  -5.522  0.00  0.00    -0.345 N 
HETATM   15  C           1     -20.473  -9.209  -4.598  0.00  0.00     0.249 C 
HETATM   16  O           1     -19.992  -8.860  -3.546  0.00  0.00    -0.271 OA
HETATM   17  H           1     -21.253  -8.565  -6.404  0.00  0.00     0.163 HD
BRANCH  15  18
HETATM   18  C           1     -20.659 -10.677  -4.892  0.00  0.00     0.275 C 
BRANCH  18  19
HETATM   19  C           1     -19.318 -11.391  -4.784  0.00  0.00     0.053 C 
BRANCH  19  20
HETATM   20  C           1     -18.571 -11.275  -6.106  0.00  0.00     0.115 C 
BRANCH  20  21
HETATM   21  C           1     -17.614 -10.109  -6.043  0.00  0.00     0.172 C 
HETATM   22  O           1     -17.871  -9.056  -6.666  0.00  0.00    -0.648 OA
HETATM   23  O           1     -16.566 -10.196  -5.368  0.00  0.00    -0.648 OA
ENDBRANCH  20  21
ENDBRANCH  19  20
ENDBRANCH  18  19
BRANCH  18  24
HETATM   24  N           1     -21.201 -10.844  -6.281  0.00  0.00    -0.066 N 
HETATM   25  H           1     -20.645 -11.568  -6.788  0.00  0.00     0.275 HD
HETATM   26  H           1     -22.201 -11.144  -6.230  0.00  0.00     0.275 HD
HETATM   27  H           1     -21.135  -9.934  -6.791  0.00  0.00     0.275 HD
ENDBRANCH  18  24
ENDBRANCH  15  18
ENDBRANCH   1  14
BRANCH   1  28
HETATM   28  C           1     -21.936  -6.309  -4.631  0.00  0.00     0.196 C 
HETATM   29  O           1     -21.980  -6.053  -3.408  0.00  0.00    -0.646 OA
HETATM   30  O           1     -22.940  -6.107  -5.348  0.00  0.00    -0.646 OA
ENDBRANCH   1  28
TORSDOF 11
ENDMDL
MODEL 9
REMARK VINA RESULT:      -5.8     13.638     15.052
REMARK  11 active torsions:
REMARK  status: ('A' for Active; 'I' for Inactive)
REMARK       I    between atoms: C_1  and  N_13 
REMARK    1  A    between atoms: C_1  and  C_2 
REMARK    2  A    between atoms: C_2  and  C_28 
REMARK    3  A    between atoms: C_2  and  N_12 
REMARK    4  A    between atoms: C_4  and  N_18 
REMARK    5  A    between atoms: C_4  and  C_21 
REMARK    6  A    between atoms: C_5  and  C_28 
REMARK    7  A    between atoms: C_5  and  C_6 
REMARK       I    between atoms: N_7  and  C_23 
REMARK    8  A    between atoms: C_11  and  C_21 
REMARK    9  A    between atoms: C_11  and  C_17 
REMARK   10  A    between atoms: N_13  and  C_17 
REMARK   11  A    between atoms: C_16  and  C_17 
REMARK       I    between atoms: N_18  and  C_23 
ROOT
HETATM    1  C           1     -21.639  -7.430  -4.043  0.00  0.00     0.185 C 
ENDROOT
BRANCH   1   2
HETATM    2  C           1     -20.886  -8.752  -4.080  0.00  0.00     0.038 C 
BRANCH   2   3
HETATM    3  C           1     -21.872  -9.903  -3.931  0.00  0.00     0.023 C 
BRANCH   3   4
HETATM    4  C           1     -21.563 -10.675  -2.655  0.00  0.00     0.138 C 
BRANCH   4   5
HETATM    5  N           1     -22.800 -10.863  -1.884  0.00  0.00    -0.227 N 
HETATM    6  C           1     -22.926 -10.319  -0.747  0.00  0.00     0.665 C 
HETATM    7  N           1     -21.988  -9.613  -0.275  0.00  0.00    -0.235 N 
HETATM    8  N           1     -24.021 -10.485  -0.065  0.00  0.00    -0.235 N 
HETATM    9  H           1     -21.104  -9.479  -0.826  0.00  0.00     0.174 HD
HETATM   10  H           1     -22.092  -9.162   0.668  0.00  0.00     0.174 HD
HETATM   11  H           1     -24.796 -11.068  -0.454  0.00  0.00     0.174 HD
HETATM   12  H           1     -24.125 -10.036   0.873  0.00  0.00     0.174 HD
HETATM   13  H           1     -23.579 -11.448  -2.275  0.00  0.00     0.177 HD
ENDBRANCH   4   5
ENDBRANCH   3   4
ENDBRANCH   2   3
ENDBRANCH   1   2
BRANCH   1  14
HETATM   14  N           1     -21.009  -6.489  -4.950  0.00  0.00    -0.345 N 
HETATM   15  C           1     -21.779  -5.668  -5.728  0.00  0.00     0.249 C 
HETATM   16  O           1     -22.984  -5.725  -5.659  0.00  0.00    -0.271 OA
HETATM   17  H           1     -20.000  -6.442  -5.008  0.00  0.00     0.163 HD
BRANCH  15  18
HETATM   18  C           1     -21.123  -4.690  -6.672  0.00  0.00     0.275 C 
BRANCH  18  19
HETATM   19  C           1     -21.503  -5.035  -8.106  0.00  0.00     0.053 C 
BRANCH  19  20
HETATM   20  C           1     -22.253  -3.866  -8.728  0.00  0.00     0.115 C 
BRANCH  20  21
HETATM   21  C           1     -21.882  -3.749 -10.187  0.00  0.00     0.172 C 
HETATM   22  O           1     -22.745  -3.405 -11.025  0.00  0.00    -0.648 OA
HETATM   23  O           1     -20.714  -3.994 -10.557  0.00  0.00    -0.648 OA
ENDBRANCH  20  21
ENDBRANCH  19  20
ENDBRANCH  18  19
BRANCH  18  24
HETATM   24  N           1     -19.633  -4.770  -6.517  0.00  0.00    -0.066 N 
HETATM   25  H           1     -19.400  -5.357  -5.684  0.00  0.00     0.275 HD
HETATM   26  H           1     -19.218  -5.200  -7.374  0.00  0.00     0.275 HD
HETATM   27  H           1     -19.245  -3.809  -6.384  0.00  0.00     0.275 HD
ENDBRANCH  18  24
ENDBRANCH  15  18
ENDBRANCH   1  14
BRANCH   1  28
HETATM   28  C           1     -21.608  -6.871  -2.641  0.00  0.00     0.196 C 
HETATM   29  O           1     -20.788  -7.316  -1.810  0.00  0.00    -0.646 OA
HETATM   30  O           1     -22.403  -5.964  -2.312  0.00  0.00    -0.646 OA
ENDBRANCH   1  28
TORSDOF 11
ENDMDL
