MODEL 1
REMARK VINA RESULT:      -7.1      0.000      0.000
REMARK  10 active torsions:
REMARK  status: ('A' for Active; 'I' for Inactive)
REMARK    1  A    between atoms: O_1  and  C_15 
REMARK    2  A    between atoms: C_7  and  C_12 
REMARK    3  A    between atoms: C_7  and  C_8 
REMARK    4  A    between atoms: C_8  and  C_24 
REMARK    5  A    between atoms: C_8  and  N_10 
REMARK       I    between atoms: C_9  and  N_10 
REMARK    6  A    between atoms: C_9  and  C_14 
REMARK    7  A    between atoms: C_12  and  C_20 
REMARK    8  A    between atoms: C_14  and  C_15 
REMARK    9  A    between atoms: C_14  and  N_19 
REMARK       I    between atoms: N_18  and  C_25 
REMARK   10  A    between atoms: C_20  and  N_28 
REMARK       I    between atoms: N_23  and  C_25 
ROOT
HETATM    1  C           1     -34.872  -2.502 -12.140  0.00  0.00     0.185 C 
ENDROOT
BRANCH   1   2
HETATM    2  C           1     -33.960  -3.704 -12.350  0.00  0.00     0.038 C 
BRANCH   2   3
HETATM    3  C           1     -34.732  -4.984 -12.060  0.00  0.00     0.023 C 
BRANCH   3   4
HETATM    4  C           1     -34.362  -5.499 -10.675  0.00  0.00     0.138 C 
BRANCH   4   5
HETATM    5  N           1     -33.689  -6.800 -10.799  0.00  0.00    -0.227 N 
HETATM    6  H           1     -32.820  -6.888 -11.382  0.00  0.00     0.177 HD
HETATM    7  C           1     -34.156  -7.814 -10.202  0.00  0.00     0.665 C 
HETATM    8  N           1     -35.204  -7.708  -9.499  0.00  0.00    -0.235 N 
HETATM    9  N           1     -33.561  -8.964 -10.312  0.00  0.00    -0.235 N 
HETATM   10  H           1     -35.591  -8.549  -9.004  0.00  0.00     0.174 HD
HETATM   11  H           1     -35.685  -6.779  -9.410  0.00  0.00     0.174 HD
HETATM   12  H           1     -33.947  -9.801  -9.820  0.00  0.00     0.174 HD
HETATM   13  H           1     -32.697  -9.051 -10.893  0.00  0.00     0.174 HD
ENDBRANCH   4   5
ENDBRANCH   3   4
ENDBRANCH   2   3
ENDBRANCH   1   2
BRANCH   1  14
HETATM   14  C           1     -34.489  -1.797 -10.862  0.00  0.00     0.196 C 
HETATM   15  O           1     -33.296  -1.779 -10.491  0.00  0.00    -0.646 OA
HETATM   16  O           1     -35.366  -1.233 -10.173  0.00  0.00    -0.646 OA
ENDBRANCH   1  14
BRANCH   1  17
HETATM   17  N           1     -34.730  -1.588 -13.257  0.00  0.00    -0.345 N 
HETATM   18  C           1     -35.822  -0.910 -13.730  0.00  0.00     0.251 C 
HETATM   19  O           1     -36.903  -1.074 -13.217  0.00  0.00    -0.271 OA
HETATM   20  H           1     -33.824  -1.450 -13.685  0.00  0.00     0.163 HD
BRANCH  18  21
HETATM   21  C           1     -35.674   0.041 -14.891  0.00  0.00     0.297 C 
BRANCH  21  22
HETATM   22  C           1     -35.712  -0.742 -16.198  0.00  0.00     0.206 C 
BRANCH  22  23
HETATM   23  O           1     -35.285  -2.056 -15.968  0.00  0.00    -0.398 OA
HETATM   24  H           1     -34.414  -2.127 -16.322  0.00  0.00     0.209 HD
ENDBRANCH  22  23
ENDBRANCH  21  22
BRANCH  21  25
HETATM   25  N           1     -34.365   0.765 -14.781  0.00  0.00    -0.064 N 
HETATM   26  H           1     -34.322   1.273 -13.870  0.00  0.00     0.275 HD
HETATM   27  H           1     -33.580   0.076 -14.832  0.00  0.00     0.275 HD
HETATM   28  H           1     -34.279   1.450 -15.566  0.00  0.00     0.275 HD
ENDBRANCH  21  25
ENDBRANCH  18  21
ENDBRANCH   1  17
TORSDOF 10
ENDMDL
MODEL 2
REMARK VINA RESULT:      -6.6      2.254      5.872
REMARK  10 active torsions:
REMARK  status: ('A' for Active; 'I' for Inactive)
REMARK    1  A    between atoms: O_1  and  C_15 
REMARK    2  A    between atoms: C_7  and  C_12 
REMARK    3  A    between atoms: C_7  and  C_8 
REMARK    4  A    between atoms: C_8  and  C_24 
REMARK    5  A    between atoms: C_8  and  N_10 
REMARK       I    between atoms: C_9  and  N_10 
REMARK    6  A    between atoms: C_9  and  C_14 
REMARK    7  A    between atoms: C_12  and  C_20 
REMARK    8  A    between atoms: C_14  and  C_15 
REMARK    9  A    between atoms: C_14  and  N_19 
REMARK       I    between atoms: N_18  and  C_25 
REMARK   10  A    between atoms: C_20  and  N_28 
REMARK       I    between atoms: N_23  and  C_25 
ROOT
HETATM    1  C           1     -35.611  -0.568 -11.652  0.00  0.00     0.185 C 
ENDROOT
BRANCH   1   2
HETATM    2  C           1     -36.271   0.114 -12.844  0.00  0.00     0.038 C 
BRANCH   2   3
HETATM    3  C           1     -35.213   0.844 -13.661  0.00  0.00     0.023 C 
BRANCH   3   4
HETATM    4  C           1     -35.449   0.586 -15.144  0.00  0.00     0.138 C 
BRANCH   4   5
HETATM    5  N           1     -34.885  -0.721 -15.510  0.00  0.00    -0.227 N 
HETATM    6  H           1     -34.109  -1.137 -14.939  0.00  0.00     0.177 HD
HETATM    7  C           1     -35.334  -1.345 -16.516  0.00  0.00     0.665 C 
HETATM    8  N           1     -36.270  -0.844 -17.206  0.00  0.00    -0.235 N 
HETATM    9  N           1     -34.836  -2.501 -16.839  0.00  0.00    -0.235 N 
HETATM   10  H           1     -36.643  -1.361 -18.040  0.00  0.00     0.174 HD
HETATM   11  H           1     -36.673   0.090 -16.944  0.00  0.00     0.174 HD
HETATM   12  H           1     -35.207  -3.016 -17.669  0.00  0.00     0.174 HD
HETATM   13  H           1     -34.064  -2.915 -16.270  0.00  0.00     0.174 HD
ENDBRANCH   4   5
ENDBRANCH   3   4
ENDBRANCH   2   3
ENDBRANCH   1   2
BRANCH   1  14
HETATM   14  C           1     -36.621  -0.731 -10.543  0.00  0.00     0.196 C 
HETATM   15  O           1     -36.313  -0.439  -9.369  0.00  0.00    -0.646 OA
HETATM   16  O           1     -37.767  -1.161 -10.801  0.00  0.00    -0.646 OA
ENDBRANCH   1  14
BRANCH   1  17
HETATM   17  N           1     -35.121  -1.873 -12.055  0.00  0.00    -0.345 N 
HETATM   18  C           1     -33.986  -2.383 -11.484  0.00  0.00     0.251 C 
HETATM   19  O           1     -33.393  -1.747 -10.646  0.00  0.00    -0.271 OA
HETATM   20  H           1     -35.619  -2.405 -12.757  0.00  0.00     0.163 HD
BRANCH  18  21
HETATM   21  C           1     -33.476  -3.740 -11.902  0.00  0.00     0.297 C 
BRANCH  21  22
HETATM   22  C           1     -34.343  -4.284 -13.030  0.00  0.00     0.206 C 
BRANCH  22  23
HETATM   23  O           1     -33.772  -3.944 -14.264  0.00  0.00    -0.398 OA
HETATM   24  H           1     -34.303  -3.259 -14.633  0.00  0.00     0.209 HD
ENDBRANCH  22  23
ENDBRANCH  21  22
BRANCH  21  25
HETATM   25  N           1     -33.533  -4.677 -10.733  0.00  0.00    -0.064 N 
HETATM   26  H           1     -33.286  -5.642 -11.046  0.00  0.00     0.275 HD
HETATM   27  H           1     -32.855  -4.364 -10.002  0.00  0.00     0.275 HD
HETATM   28  H           1     -34.500  -4.678 -10.334  0.00  0.00     0.275 HD
ENDBRANCH  21  25
ENDBRANCH  18  21
ENDBRANCH   1  17
TORSDOF 10
ENDMDL
MODEL 3
REMARK VINA RESULT:      -6.5      2.123      2.779
REMARK  10 active torsions:
REMARK  status: ('A' for Active; 'I' for Inactive)
REMARK    1  A    between atoms: O_1  and  C_15 
REMARK    2  A    between atoms: C_7  and  C_12 
REMARK    3  A    between atoms: C_7  and  C_8 
REMARK    4  A    between atoms: C_8  and  C_24 
REMARK    5  A    between atoms: C_8  and  N_10 
REMARK       I    between atoms: C_9  and  N_10 
REMARK    6  A    between atoms: C_9  and  C_14 
REMARK    7  A    between atoms: C_12  and  C_20 
REMARK    8  A    between atoms: C_14  and  C_15 
REMARK    9  A    between atoms: C_14  and  N_19 
REMARK       I    between atoms: N_18  and  C_25 
REMARK   10  A    between atoms: C_20  and  N_28 
REMARK       I    between atoms: N_23  and  C_25 
ROOT
HETATM    1  C           1     -33.805  -3.340 -12.774  0.00  0.00     0.185 C 
ENDROOT
BRANCH   1   2
HETATM    2  C           1     -33.108  -4.252 -11.773  0.00  0.00     0.038 C 
BRANCH   2   3
HETATM    3  C           1     -33.960  -4.370 -10.516  0.00  0.00     0.023 C 
BRANCH   3   4
HETATM    4  C           1     -34.833  -5.616 -10.609  0.00  0.00     0.138 C 
BRANCH   4   5
HETATM    5  N           1     -33.987  -6.787 -10.881  0.00  0.00    -0.227 N 
HETATM    6  H           1     -33.293  -6.762 -11.668  0.00  0.00     0.177 HD
HETATM    7  C           1     -34.096  -7.826 -10.166  0.00  0.00     0.665 C 
HETATM    8  N           1     -34.934  -7.857  -9.217  0.00  0.00    -0.235 N 
HETATM    9  N           1     -33.349  -8.862 -10.407  0.00  0.00    -0.235 N 
HETATM   10  H           1     -35.024  -8.718  -8.624  0.00  0.00     0.174 HD
HETATM   11  H           1     -35.537  -7.020  -9.022  0.00  0.00     0.174 HD
HETATM   12  H           1     -33.439  -9.719  -9.817  0.00  0.00     0.174 HD
HETATM   13  H           1     -32.658  -8.837 -11.190  0.00  0.00     0.174 HD
ENDBRANCH   4   5
ENDBRANCH   3   4
ENDBRANCH   2   3
ENDBRANCH   1   2
BRANCH   1  14
HETATM   14  C           1     -34.324  -4.163 -13.928  0.00  0.00     0.196 C 
HETATM   15  O           1     -34.097  -3.806 -15.103  0.00  0.00    -0.646 OA
HETATM   16  O           1     -34.982  -5.202 -13.706  0.00  0.00    -0.646 OA
ENDBRANCH   1  14
BRANCH   1  17
HETATM   17  N           1     -34.914  -2.667 -12.124  0.00  0.00    -0.345 N 
HETATM   18  C           1     -35.320  -1.437 -12.564  0.00  0.00     0.251 C 
HETATM   19  O           1     -34.757  -0.910 -13.494  0.00  0.00    -0.271 OA
HETATM   20  H           1     -35.386  -3.109 -11.346  0.00  0.00     0.163 HD
BRANCH  18  21
HETATM   21  C           1     -36.474  -0.737 -11.888  0.00  0.00     0.297 C 
BRANCH  21  22
HETATM   22  C           1     -37.293   0.016 -12.929  0.00  0.00     0.206 C 
BRANCH  22  23
HETATM   23  O           1     -37.621  -0.850 -13.980  0.00  0.00    -0.398 OA
HETATM   24  H           1     -38.528  -0.697 -14.188  0.00  0.00     0.209 HD
ENDBRANCH  22  23
ENDBRANCH  21  22
BRANCH  21  25
HETATM   25  N           1     -35.944   0.231 -10.873  0.00  0.00    -0.064 N 
HETATM   26  H           1     -36.741   0.666 -10.356  0.00  0.00     0.275 HD
HETATM   27  H           1     -35.327  -0.274 -10.198  0.00  0.00     0.275 HD
HETATM   28  H           1     -35.394   0.978 -11.357  0.00  0.00     0.275 HD
ENDBRANCH  21  25
ENDBRANCH  18  21
ENDBRANCH   1  17
TORSDOF 10
ENDMDL
MODEL 4
REMARK VINA RESULT:      -6.4      2.042      2.892
REMARK  10 active torsions:
REMARK  status: ('A' for Active; 'I' for Inactive)
REMARK    1  A    between atoms: O_1  and  C_15 
REMARK    2  A    between atoms: C_7  and  C_12 
REMARK    3  A    between atoms: C_7  and  C_8 
REMARK    4  A    between atoms: C_8  and  C_24 
REMARK    5  A    between atoms: C_8  and  N_10 
REMARK       I    between atoms: C_9  and  N_10 
REMARK    6  A    between atoms: C_9  and  C_14 
REMARK    7  A    between atoms: C_12  and  C_20 
REMARK    8  A    between atoms: C_14  and  C_15 
REMARK    9  A    between atoms: C_14  and  N_19 
REMARK       I    between atoms: N_18  and  C_25 
REMARK   10  A    between atoms: C_20  and  N_28 
REMARK       I    between atoms: N_23  and  C_25 
ROOT
HETATM    1  C           1     -36.669  -0.859 -11.173  0.00  0.00     0.185 C 
ENDROOT
BRANCH   1   2
HETATM    2  C           1     -35.648  -1.862 -10.650  0.00  0.00     0.038 C 
BRANCH   2   3
HETATM    3  C           1     -34.400  -1.816 -11.522  0.00  0.00     0.023 C 
BRANCH   3   4
HETATM    4  C           1     -33.308  -2.671 -10.891  0.00  0.00     0.138 C 
BRANCH   4   5
HETATM    5  N           1     -33.794  -4.049 -10.733  0.00  0.00    -0.227 N 
HETATM    6  H           1     -34.571  -4.257 -10.059  0.00  0.00     0.177 HD
HETATM    7  C           1     -33.275  -4.985 -11.409  0.00  0.00     0.665 C 
HETATM    8  N           1     -32.337  -4.734 -12.222  0.00  0.00    -0.235 N 
HETATM    9  N           1     -33.704  -6.204 -11.268  0.00  0.00    -0.235 N 
HETATM   10  H           1     -31.907  -5.510 -12.783  0.00  0.00     0.174 HD
HETATM   11  H           1     -31.990  -3.749 -12.335  0.00  0.00     0.174 HD
HETATM   12  H           1     -33.276  -6.976 -11.827  0.00  0.00     0.174 HD
HETATM   13  H           1     -34.478  -6.410 -10.597  0.00  0.00     0.174 HD
ENDBRANCH   4   5
ENDBRANCH   3   4
ENDBRANCH   2   3
ENDBRANCH   1   2
BRANCH   1  14
HETATM   14  C           1     -36.973   0.156 -10.099  0.00  0.00     0.196 C 
HETATM   15  O           1     -37.935   0.941 -10.234  0.00  0.00    -0.646 OA
HETATM   16  O           1     -36.259   0.212  -9.074  0.00  0.00    -0.646 OA
ENDBRANCH   1  14
BRANCH   1  17
HETATM   17  N           1     -36.129  -0.183 -12.337  0.00  0.00    -0.345 N 
HETATM   18  C           1     -36.827  -0.184 -13.514  0.00  0.00     0.251 C 
HETATM   19  O           1     -37.894  -0.747 -13.584  0.00  0.00    -0.271 OA
HETATM   20  H           1     -35.235   0.289 -12.278  0.00  0.00     0.163 HD
BRANCH  18  21
HETATM   21  C           1     -36.265   0.519 -14.725  0.00  0.00     0.297 C 
BRANCH  21  22
HETATM   22  C           1     -37.317   0.555 -15.826  0.00  0.00     0.206 C 
BRANCH  22  23
HETATM   23  O           1     -37.257  -0.632 -16.568  0.00  0.00    -0.398 OA
HETATM   24  H           1     -37.763  -1.274 -16.099  0.00  0.00     0.209 HD
ENDBRANCH  22  23
ENDBRANCH  21  22
BRANCH  21  25
HETATM   25  N           1     -35.055  -0.219 -15.214  0.00  0.00    -0.064 N 
HETATM   26  H           1     -35.170  -0.446 -16.227  0.00  0.00     0.275 HD
HETATM   27  H           1     -34.207   0.379 -15.086  0.00  0.00     0.275 HD
HETATM   28  H           1     -34.943  -1.104 -14.669  0.00  0.00     0.275 HD
ENDBRANCH  21  25
ENDBRANCH  18  21
ENDBRANCH   1  17
TORSDOF 10
ENDMDL
MODEL 5
REMARK VINA RESULT:      -5.9     12.947     14.343
REMARK  10 active torsions:
REMARK  status: ('A' for Active; 'I' for Inactive)
REMARK    1  A    between atoms: O_1  and  C_15 
REMARK    2  A    between atoms: C_7  and  C_12 
REMARK    3  A    between atoms: C_7  and  C_8 
REMARK    4  A    between atoms: C_8  and  C_24 
REMARK    5  A    between atoms: C_8  and  N_10 
REMARK       I    between atoms: C_9  and  N_10 
REMARK    6  A    between atoms: C_9  and  C_14 
REMARK    7  A    between atoms: C_12  and  C_20 
REMARK    8  A    between atoms: C_14  and  C_15 
REMARK    9  A    between atoms: C_14  and  N_19 
REMARK       I    between atoms: N_18  and  C_25 
REMARK   10  A    between atoms: C_20  and  N_28 
REMARK       I    between atoms: N_23  and  C_25 
ROOT
HETATM    1  C           1     -21.130  -4.308  -7.506  0.00  0.00     0.185 C 
ENDROOT
BRANCH   1   2
HETATM    2  C           1     -21.027  -5.027  -6.167  0.00  0.00     0.038 C 
BRANCH   2   3
HETATM    3  C           1     -21.172  -6.528  -6.384  0.00  0.00     0.023 C 
BRANCH   3   4
HETATM    4  C           1     -21.307  -7.226  -5.037  0.00  0.00     0.138 C 
BRANCH   4   5
HETATM    5  N           1     -21.875  -6.291  -4.055  0.00  0.00    -0.227 N 
HETATM    6  H           1     -22.361  -5.419  -4.380  0.00  0.00     0.177 HD
HETATM    7  C           1     -21.777  -6.536  -2.817  0.00  0.00     0.665 C 
HETATM    8  N           1     -21.190  -7.587  -2.424  0.00  0.00    -0.235 N 
HETATM    9  N           1     -22.278  -5.709  -1.949  0.00  0.00    -0.235 N 
HETATM   10  H           1     -21.109  -7.791  -1.398  0.00  0.00     0.174 HD
HETATM   11  H           1     -20.785  -8.256  -3.126  0.00  0.00     0.174 HD
HETATM   12  H           1     -22.197  -5.912  -0.927  0.00  0.00     0.174 HD
HETATM   13  H           1     -22.762  -4.841  -2.273  0.00  0.00     0.174 HD
ENDBRANCH   4   5
ENDBRANCH   3   4
ENDBRANCH   2   3
ENDBRANCH   1   2
BRANCH   1  14
HETATM   14  C           1     -19.822  -4.437  -8.247  0.00  0.00     0.196 C 
HETATM   15  O           1     -19.819  -4.707  -9.467  0.00  0.00    -0.646 OA
HETATM   16  O           1     -18.742  -4.276  -7.639  0.00  0.00    -0.646 OA
ENDBRANCH   1  14
BRANCH   1  17
HETATM   17  N           1     -22.192  -4.905  -8.293  0.00  0.00    -0.345 N 
HETATM   18  C           1     -23.040  -4.108  -9.015  0.00  0.00     0.251 C 
HETATM   19  O           1     -22.904  -2.908  -8.996  0.00  0.00    -0.271 OA
HETATM   20  H           1     -22.306  -5.910  -8.310  0.00  0.00     0.163 HD
BRANCH  18  21
HETATM   21  C           1     -24.144  -4.728  -9.834  0.00  0.00     0.297 C 
BRANCH  21  22
HETATM   22  C           1     -23.672  -4.909 -11.270  0.00  0.00     0.206 C 
BRANCH  22  23
HETATM   23  O           1     -22.306  -4.608 -11.355  0.00  0.00    -0.398 OA
HETATM   24  H           1     -22.180  -3.783 -10.917  0.00  0.00     0.209 HD
ENDBRANCH  22  23
ENDBRANCH  21  22
BRANCH  21  25
HETATM   25  N           1     -25.347  -3.832  -9.812  0.00  0.00    -0.064 N 
HETATM   26  H           1     -25.192  -3.024 -10.455  0.00  0.00     0.275 HD
HETATM   27  H           1     -26.187  -4.368 -10.124  0.00  0.00     0.275 HD
HETATM   28  H           1     -25.500  -3.478  -8.840  0.00  0.00     0.275 HD
ENDBRANCH  21  25
ENDBRANCH  18  21
ENDBRANCH   1  17
TORSDOF 10
ENDMDL
MODEL 6
REMARK VINA RESULT:      -5.8      3.566      6.097
REMARK  10 active torsions:
REMARK  status: ('A' for Active; 'I' for Inactive)
REMARK    1  A    between atoms: O_1  and  C_15 
REMARK    2  A    between atoms: C_7  and  C_12 
REMARK    3  A    between atoms: C_7  and  C_8 
REMARK    4  A    between atoms: C_8  and  C_24 
REMARK    5  A    between atoms: C_8  and  N_10 
REMARK       I    between atoms: C_9  and  N_10 
REMARK    6  A    between atoms: C_9  and  C_14 
REMARK    7  A    between atoms: C_12  and  C_20 
REMARK    8  A    between atoms: C_14  and  C_15 
REMARK    9  A    between atoms: C_14  and  N_19 
REMARK       I    between atoms: N_18  and  C_25 
REMARK   10  A    between atoms: C_20  and  N_28 
REMARK       I    between atoms: N_23  and  C_25 
ROOT
HETATM    1  C           1     -36.152  -0.710 -13.206  0.00  0.00     0.185 C 
ENDROOT
BRANCH   1   2
HETATM    2  C           1     -37.397  -0.174 -12.511  0.00  0.00     0.038 C 
BRANCH   2   3
HETATM    3  C           1     -37.366  -0.567 -11.040  0.00  0.00     0.023 C 
BRANCH   3   4
HETATM    4  C           1     -37.757   0.632 -10.185  0.00  0.00     0.138 C 
BRANCH   4   5
HETATM    5  N           1     -37.913   0.207  -8.786  0.00  0.00    -0.227 N 
HETATM    6  H           1     -38.657  -0.487  -8.528  0.00  0.00     0.177 HD
HETATM    7  C           1     -37.150   0.677  -7.893  0.00  0.00     0.665 C 
HETATM    8  N           1     -36.252   1.514  -8.204  0.00  0.00    -0.235 N 
HETATM    9  N           1     -37.288   0.301  -6.656  0.00  0.00    -0.235 N 
HETATM   10  H           1     -35.619   1.904  -7.463  0.00  0.00     0.174 HD
HETATM   11  H           1     -36.140   1.818  -9.203  0.00  0.00     0.174 HD
HETATM   12  H           1     -36.657   0.690  -5.919  0.00  0.00     0.174 HD
HETATM   13  H           1     -38.029  -0.390  -6.400  0.00  0.00     0.174 HD
ENDBRANCH   4   5
ENDBRANCH   3   4
ENDBRANCH   2   3
ENDBRANCH   1   2
BRANCH   1  14
HETATM   14  C           1     -35.495   0.400 -13.989  0.00  0.00     0.196 C 
HETATM   15  O           1     -34.631   1.122 -13.447  0.00  0.00    -0.646 OA
HETATM   16  O           1     -35.818   0.599 -15.180  0.00  0.00    -0.646 OA
ENDBRANCH   1  14
BRANCH   1  17
HETATM   17  N           1     -35.223  -1.213 -12.211  0.00  0.00    -0.345 N 
HETATM   18  C           1     -34.500  -2.348 -12.463  0.00  0.00     0.251 C 
HETATM   19  O           1     -34.633  -2.930 -13.513  0.00  0.00    -0.271 OA
HETATM   20  H           1     -35.111  -0.726 -11.332  0.00  0.00     0.163 HD
BRANCH  18  21
HETATM   21  C           1     -33.534  -2.871 -11.428  0.00  0.00     0.297 C 
BRANCH  21  22
HETATM   22  C           1     -34.134  -4.094 -10.746  0.00  0.00     0.206 C 
BRANCH  22  23
HETATM   23  O           1     -35.522  -4.100 -10.934  0.00  0.00    -0.398 OA
HETATM   24  H           1     -35.849  -4.889 -10.535  0.00  0.00     0.209 HD
ENDBRANCH  22  23
ENDBRANCH  21  22
BRANCH  21  25
HETATM   25  N           1     -33.272  -1.806 -10.405  0.00  0.00    -0.064 N 
HETATM   26  H           1     -34.094  -1.164 -10.352  0.00  0.00     0.275 HD
HETATM   27  H           1     -33.117  -2.250  -9.472  0.00  0.00     0.275 HD
HETATM   28  H           1     -32.422  -1.263 -10.678  0.00  0.00     0.275 HD
ENDBRANCH  21  25
ENDBRANCH  18  21
ENDBRANCH   1  17
TORSDOF 10
ENDMDL
MODEL 7
REMARK VINA RESULT:      -5.8     14.100     16.773
REMARK  10 active torsions:
REMARK  status: ('A' for Active; 'I' for Inactive)
REMARK    1  A    between atoms: O_1  and  C_15 
REMARK    2  A    between atoms: C_7  and  C_12 
REMARK    3  A    between atoms: C_7  and  C_8 
REMARK    4  A    between atoms: C_8  and  C_24 
REMARK    5  A    between atoms: C_8  and  N_10 
REMARK       I    between atoms: C_9  and  N_10 
REMARK    6  A    between atoms: C_9  and  C_14 
REMARK    7  A    between atoms: C_12  and  C_20 
REMARK    8  A    between atoms: C_14  and  C_15 
REMARK    9  A    between atoms: C_14  and  N_19 
REMARK       I    between atoms: N_18  and  C_25 
REMARK   10  A    between atoms: C_20  and  N_28 
REMARK       I    between atoms: N_23  and  C_25 
ROOT
HETATM    1  C           1     -20.624  -6.791  -5.407  0.00  0.00     0.185 C 
ENDROOT
BRANCH   1   2
HETATM    2  C           1     -20.444  -6.027  -6.713  0.00  0.00     0.038 C 
BRANCH   2   3
HETATM    3  C           1     -20.135  -4.567  -6.407  0.00  0.00     0.023 C 
BRANCH   3   4
HETATM    4  C           1     -20.773  -3.679  -7.469  0.00  0.00     0.138 C 
BRANCH   4   5
HETATM    5  N           1     -22.236  -3.814  -7.405  0.00  0.00    -0.227 N 
HETATM    6  H           1     -22.718  -3.870  -6.475  0.00  0.00     0.177 HD
HETATM    7  C           1     -22.914  -3.863  -8.473  0.00  0.00     0.665 C 
HETATM    8  N           1     -22.332  -3.796  -9.596  0.00  0.00    -0.235 N 
HETATM    9  N           1     -24.207  -3.983  -8.417  0.00  0.00    -0.235 N 
HETATM   10  H           1     -22.895  -3.837 -10.482  0.00  0.00     0.174 HD
HETATM   11  H           1     -21.288  -3.700  -9.641  0.00  0.00     0.174 HD
HETATM   12  H           1     -24.766  -4.023  -9.299  0.00  0.00     0.174 HD
HETATM   13  H           1     -24.687  -4.038  -7.490  0.00  0.00     0.174 HD
ENDBRANCH   4   5
ENDBRANCH   3   4
ENDBRANCH   2   3
ENDBRANCH   1   2
BRANCH   1  14
HETATM   14  C           1     -21.889  -6.330  -4.725  0.00  0.00     0.196 C 
HETATM   15  O           1     -22.911  -6.090  -5.401  0.00  0.00    -0.646 OA
HETATM   16  O           1     -21.912  -6.188  -3.483  0.00  0.00    -0.646 OA
ENDBRANCH   1  14
BRANCH   1  17
HETATM   17  N           1     -20.717  -8.211  -5.688  0.00  0.00    -0.345 N 
HETATM   18  C           1     -19.988  -9.104  -4.950  0.00  0.00     0.251 C 
HETATM   19  O           1     -19.268  -8.710  -4.064  0.00  0.00    -0.271 OA
HETATM   20  H           1     -21.321  -8.541  -6.430  0.00  0.00     0.163 HD
BRANCH  18  21
HETATM   21  C           1     -20.085 -10.581  -5.243  0.00  0.00     0.297 C 
BRANCH  21  22
HETATM   22  C           1     -18.794 -11.055  -5.897  0.00  0.00     0.206 C 
BRANCH  22  23
HETATM   23  O           1     -18.133  -9.962  -6.473  0.00  0.00    -0.398 OA
HETATM   24  H           1     -18.798  -9.382  -6.802  0.00  0.00     0.209 HD
ENDBRANCH  22  23
ENDBRANCH  21  22
BRANCH  21  25
HETATM   25  N           1     -21.237 -10.832  -6.170  0.00  0.00    -0.064 N 
HETATM   26  H           1     -22.116 -10.933  -5.615  0.00  0.00     0.275 HD
HETATM   27  H           1     -21.334 -10.029  -6.831  0.00  0.00     0.275 HD
HETATM   28  H           1     -21.063 -11.710  -6.711  0.00  0.00     0.275 HD
ENDBRANCH  21  25
ENDBRANCH  18  21
ENDBRANCH   1  17
TORSDOF 10
ENDMDL
MODEL 8
REMARK VINA RESULT:      -5.7     14.094     16.389
REMARK  10 active torsions:
REMARK  status: ('A' for Active; 'I' for Inactive)
REMARK    1  A    between atoms: O_1  and  C_15 
REMARK    2  A    between atoms: C_7  and  C_12 
REMARK    3  A    between atoms: C_7  and  C_8 
REMARK    4  A    between atoms: C_8  and  C_24 
REMARK    5  A    between atoms: C_8  and  N_10 
REMARK       I    between atoms: C_9  and  N_10 
REMARK    6  A    between atoms: C_9  and  C_14 
REMARK    7  A    between atoms: C_12  and  C_20 
REMARK    8  A    between atoms: C_14  and  C_15 
REMARK    9  A    between atoms: C_14  and  N_19 
REMARK       I    between atoms: N_18  and  C_25 
REMARK   10  A    between atoms: C_20  and  N_28 
REMARK       I    between atoms: N_23  and  C_25 
ROOT
HETATM    1  C           1     -21.123  -5.382  -6.492  0.00  0.00     0.185 C 
ENDROOT
BRANCH   1   2
HETATM    2  C           1     -21.598  -4.009  -6.951  0.00  0.00     0.038 C 
BRANCH   2   3
HETATM    3  C           1     -22.826  -4.168  -7.839  0.00  0.00     0.023 C 
BRANCH   3   4
HETATM    4  C           1     -22.411  -4.766  -9.178  0.00  0.00     0.138 C 
BRANCH   4   5
HETATM    5  N           1     -22.021  -3.687 -10.097  0.00  0.00    -0.227 N 
HETATM    6  H           1     -22.655  -2.863 -10.238  0.00  0.00     0.177 HD
HETATM    7  C           1     -20.920  -3.751 -10.718  0.00  0.00     0.665 C 
HETATM    8  N           1     -20.154  -4.746 -10.548  0.00  0.00    -0.235 N 
HETATM    9  N           1     -20.575  -2.797 -11.531  0.00  0.00    -0.235 N 
HETATM   10  H           1     -19.241  -4.799 -11.064  0.00  0.00     0.174 HD
HETATM   11  H           1     -20.433  -5.516  -9.892  0.00  0.00     0.174 HD
HETATM   12  H           1     -19.667  -2.851 -12.044  0.00  0.00     0.174 HD
HETATM   13  H           1     -21.207  -1.977 -11.671  0.00  0.00     0.174 HD
ENDBRANCH   4   5
ENDBRANCH   3   4
ENDBRANCH   2   3
ENDBRANCH   1   2
BRANCH   1  14
HETATM   14  C           1     -19.781  -5.684  -7.113  0.00  0.00     0.196 C 
HETATM   15  O           1     -19.112  -4.765  -7.631  0.00  0.00    -0.646 OA
HETATM   16  O           1     -19.342  -6.854  -7.111  0.00  0.00    -0.646 OA
ENDBRANCH   1  14
BRANCH   1  17
HETATM   17  N           1     -20.999  -5.391  -5.047  0.00  0.00    -0.345 N 
HETATM   18  C           1     -21.415  -6.481  -4.331  0.00  0.00     0.251 C 
HETATM   19  O           1     -21.885  -7.436  -4.902  0.00  0.00    -0.271 OA
HETATM   20  H           1     -20.604  -4.591  -4.569  0.00  0.00     0.163 HD
BRANCH  18  21
HETATM   21  C           1     -21.285  -6.490  -2.828  0.00  0.00     0.297 C 
BRANCH  21  22
HETATM   22  C           1     -21.166  -7.927  -2.336  0.00  0.00     0.206 C 
BRANCH  22  23
HETATM   23  O           1     -19.986  -8.495  -2.835  0.00  0.00    -0.398 OA
HETATM   24  H           1     -20.187  -8.840  -3.688  0.00  0.00     0.209 HD
ENDBRANCH  22  23
ENDBRANCH  21  22
BRANCH  21  25
HETATM   25  N           1     -22.498  -5.853  -2.218  0.00  0.00    -0.064 N 
HETATM   26  H           1     -23.302  -6.519  -2.262  0.00  0.00     0.275 HD
HETATM   27  H           1     -22.301  -5.611  -1.221  0.00  0.00     0.275 HD
HETATM   28  H           1     -22.738  -4.983  -2.747  0.00  0.00     0.275 HD
ENDBRANCH  21  25
ENDBRANCH  18  21
ENDBRANCH   1  17
TORSDOF 10
ENDMDL
MODEL 9
REMARK VINA RESULT:      -5.5     14.141     16.009
REMARK  10 active torsions:
REMARK  status: ('A' for Active; 'I' for Inactive)
REMARK    1  A    between atoms: O_1  and  C_15 
REMARK    2  A    between atoms: C_7  and  C_12 
REMARK    3  A    between atoms: C_7  and  C_8 
REMARK    4  A    between atoms: C_8  and  C_24 
REMARK    5  A    between atoms: C_8  and  N_10 
REMARK       I    between atoms: C_9  and  N_10 
REMARK    6  A    between atoms: C_9  and  C_14 
REMARK    7  A    between atoms: C_12  and  C_20 
REMARK    8  A    between atoms: C_14  and  C_15 
REMARK    9  A    between atoms: C_14  and  N_19 
REMARK       I    between atoms: N_18  and  C_25 
REMARK   10  A    between atoms: C_20  and  N_28 
REMARK       I    between atoms: N_23  and  C_25 
ROOT
HETATM    1  C           1     -21.247  -6.795  -4.640  0.00  0.00     0.185 C 
ENDROOT
BRANCH   1   2
HETATM    2  C           1     -22.273  -6.445  -3.570  0.00  0.00     0.038 C 
BRANCH   2   3
HETATM    3  C           1     -21.554  -6.050  -2.286  0.00  0.00     0.023 C 
BRANCH   3   4
HETATM    4  C           1     -22.300  -6.623  -1.088  0.00  0.00     0.138 C 
BRANCH   4   5
HETATM    5  N           1     -22.148  -8.085  -1.069  0.00  0.00    -0.227 N 
HETATM    6  H           1     -21.533  -8.558  -1.776  0.00  0.00     0.177 HD
HETATM    7  C           1     -22.758  -8.774  -0.200  0.00  0.00     0.665 C 
HETATM    8  N           1     -23.500  -8.204   0.653  0.00  0.00    -0.235 N 
HETATM    9  N           1     -22.624 -10.067  -0.184  0.00  0.00    -0.235 N 
HETATM   10  H           1     -24.006  -8.775   1.374  0.00  0.00     0.174 HD
HETATM   11  H           1     -23.609  -7.159   0.640  0.00  0.00     0.174 HD
HETATM   12  H           1     -23.128 -10.635   0.534  0.00  0.00     0.174 HD
HETATM   13  H           1     -22.012 -10.537  -0.888  0.00  0.00     0.174 HD
ENDBRANCH   4   5
ENDBRANCH   3   4
ENDBRANCH   2   3
ENDBRANCH   1   2
BRANCH   1  14
HETATM   14  C           1     -21.315  -8.273  -4.938  0.00  0.00     0.196 C 
HETATM   15  O           1     -21.474  -9.091  -4.008  0.00  0.00    -0.646 OA
HETATM   16  O           1     -21.211  -8.677  -6.116  0.00  0.00    -0.646 OA
ENDBRANCH   1  14
BRANCH   1  17
HETATM   17  N           1     -21.535  -6.045  -5.847  0.00  0.00    -0.345 N 
HETATM   18  C           1     -20.877  -4.870  -6.096  0.00  0.00     0.251 C 
HETATM   19  O           1     -20.057  -4.458  -5.311  0.00  0.00    -0.271 OA
HETATM   20  H           1     -22.221  -6.391  -6.506  0.00  0.00     0.163 HD
BRANCH  18  21
HETATM   21  C           1     -21.177  -4.090  -7.352  0.00  0.00     0.297 C 
BRANCH  21  22
HETATM   22  C           1     -22.529  -4.519  -7.908  0.00  0.00     0.206 C 
BRANCH  22  23
HETATM   23  O           1     -23.516  -4.333  -6.931  0.00  0.00    -0.398 OA
HETATM   24  H           1     -24.238  -4.893  -7.160  0.00  0.00     0.209 HD
ENDBRANCH  22  23
ENDBRANCH  21  22
BRANCH  21  25
HETATM   25  N           1     -20.110  -4.357  -8.373  0.00  0.00    -0.064 N 
HETATM   26  H           1     -20.049  -5.384  -8.554  0.00  0.00     0.275 HD
HETATM   27  H           1     -20.346  -3.860  -9.261  0.00  0.00     0.275 HD
HETATM   28  H           1     -19.191  -4.011  -8.014  0.00  0.00     0.275 HD
ENDBRANCH  21  25
ENDBRANCH  18  21
ENDBRANCH   1  17
TORSDOF 10
ENDMDL
