MODEL 1
REMARK VINA RESULT:      -8.3      0.000      0.000
REMARK  8 active torsions:
REMARK  status: ('A' for Active; 'I' for Inactive)
REMARK    1  A    between atoms: C_3  and  C_23 
REMARK    2  A    between atoms: C_5  and  C_21 
REMARK    3  A    between atoms: C_5  and  C_12 
REMARK    4  A    between atoms: C_5  and  N_25 
REMARK       I    between atoms: C_6  and  N_25 
REMARK    5  A    between atoms: C_6  and  C_17 
REMARK    6  A    between atoms: C_9  and  C_12 
REMARK    7  A    between atoms: N_11  and  C_17 
REMARK    8  A    between atoms: C_17  and  C_23 
ROOT
HETATM    1  C           1     -21.880  -6.612  -5.607  0.00  0.00     0.190 C 
ENDROOT
BRANCH   1   2
HETATM    2  C           1     -20.884  -7.740  -5.492  0.00  0.00     0.197 C 
HETATM    3  O           1     -21.276  -8.926  -5.525  0.00  0.00    -0.646 OA
HETATM    4  O           1     -19.666  -7.488  -5.365  0.00  0.00    -0.646 OA
ENDBRANCH   1   2
BRANCH   1   5
HETATM    5  C           1     -21.183  -5.372  -6.152  0.00  0.00     0.077 C 
BRANCH   5   6
HETATM    6  C           1     -21.992  -4.797  -7.274  0.00  0.00    -0.028 A 
HETATM    7  C           1     -23.314  -4.418  -7.209  0.00  0.00     0.096 A 
HETATM    8  N           1     -23.674  -3.946  -8.444  0.00  0.00    -0.365 N 
HETATM    9  H           1     -24.628  -3.584  -8.693  0.00  0.00     0.165 HD
HETATM   10  C           1     -22.606  -4.012  -9.310  0.00  0.00     0.042 A 
HETATM   11  C           1     -21.533  -4.546  -8.597  0.00  0.00    -0.002 A 
HETATM   12  C           1     -22.509  -3.645 -10.657  0.00  0.00     0.030 A 
HETATM   13  C           1     -20.301  -4.724  -9.256  0.00  0.00     0.014 A 
HETATM   14  C           1     -20.187  -4.361 -10.604  0.00  0.00     0.001 A 
HETATM   15  C           1     -21.277  -3.830 -11.291  0.00  0.00     0.002 A 
ENDBRANCH   5   6
ENDBRANCH   1   5
BRANCH   1  16
HETATM   16  N           1     -22.430  -6.319  -4.297  0.00  0.00    -0.344 N 
HETATM   17  C           1     -21.646  -6.443  -3.182  0.00  0.00     0.249 C 
HETATM   18  O           1     -21.002  -5.499  -2.789  0.00  0.00    -0.271 OA
HETATM   19  H           1     -23.393  -6.022  -4.208  0.00  0.00     0.163 HD
BRANCH  17  20
HETATM   20  C           1     -21.586  -7.758  -2.445  0.00  0.00     0.275 C 
BRANCH  20  21
HETATM   21  N           1     -20.172  -8.259  -2.430  0.00  0.00    -0.066 N 
HETATM   22  H           1     -20.170  -9.297  -2.312  0.00  0.00     0.275 HD
HETATM   23  H           1     -19.706  -8.011  -3.333  0.00  0.00     0.275 HD
HETATM   24  H           1     -19.655  -7.817  -1.637  0.00  0.00     0.275 HD
ENDBRANCH  20  21
BRANCH  20  25
HETATM   25  C           1     -22.069  -7.562  -1.014  0.00  0.00     0.046 C 
BRANCH  25  26
HETATM   26  C           1     -21.834  -8.840  -0.219  0.00  0.00    -0.020 C 
HETATM   27  C           1     -23.139  -9.618  -0.112  0.00  0.00     0.009 C 
HETATM   28  C           1     -21.339  -8.485   1.177  0.00  0.00     0.009 C 
ENDBRANCH  25  26
ENDBRANCH  20  25
ENDBRANCH  17  20
ENDBRANCH   1  16
TORSDOF 8
ENDMDL
MODEL 2
REMARK VINA RESULT:      -7.9      1.101      1.869
REMARK  8 active torsions:
REMARK  status: ('A' for Active; 'I' for Inactive)
REMARK    1  A    between atoms: C_3  and  C_23 
REMARK    2  A    between atoms: C_5  and  C_21 
REMARK    3  A    between atoms: C_5  and  C_12 
REMARK    4  A    between atoms: C_5  and  N_25 
REMARK       I    between atoms: C_6  and  N_25 
REMARK    5  A    between atoms: C_6  and  C_17 
REMARK    6  A    between atoms: C_9  and  C_12 
REMARK    7  A    between atoms: N_11  and  C_17 
REMARK    8  A    between atoms: C_17  and  C_23 
ROOT
HETATM    1  C           1     -21.716  -6.424  -5.374  0.00  0.00     0.190 C 
ENDROOT
BRANCH   1   2
HETATM    2  C           1     -20.907  -7.698  -5.387  0.00  0.00     0.197 C 
HETATM    3  O           1     -19.681  -7.663  -5.150  0.00  0.00    -0.646 OA
HETATM    4  O           1     -21.464  -8.789  -5.635  0.00  0.00    -0.646 OA
ENDBRANCH   1   2
BRANCH   1   5
HETATM    5  C           1     -20.779  -5.227  -5.461  0.00  0.00     0.077 C 
BRANCH   5   6
HETATM    6  C           1     -20.593  -4.843  -6.897  0.00  0.00    -0.028 A 
HETATM    7  C           1     -19.392  -4.772  -7.567  0.00  0.00     0.096 A 
HETATM    8  N           1     -19.656  -4.385  -8.855  0.00  0.00    -0.365 N 
HETATM    9  H           1     -18.929  -4.247  -9.601  0.00  0.00     0.165 HD
HETATM   10  C           1     -21.010  -4.203  -9.031  0.00  0.00     0.042 A 
HETATM   11  C           1     -21.623  -4.485  -7.810  0.00  0.00    -0.002 A 
HETATM   12  C           1     -21.730  -3.814 -10.166  0.00  0.00     0.030 A 
HETATM   13  C           1     -23.023  -4.375  -7.713  0.00  0.00     0.014 A 
HETATM   14  C           1     -23.759  -3.987  -8.839  0.00  0.00     0.001 A 
HETATM   15  C           1     -23.119  -3.711 -10.046  0.00  0.00     0.002 A 
ENDBRANCH   5   6
ENDBRANCH   1   5
BRANCH   1  16
HETATM   16  N           1     -22.480  -6.351  -4.142  0.00  0.00    -0.344 N 
HETATM   17  C           1     -21.836  -6.379  -2.935  0.00  0.00     0.249 C 
HETATM   18  O           1     -21.476  -5.347  -2.419  0.00  0.00    -0.271 OA
HETATM   19  H           1     -23.489  -6.278  -4.177  0.00  0.00     0.163 HD
BRANCH  17  20
HETATM   20  C           1     -21.575  -7.697  -2.250  0.00  0.00     0.275 C 
BRANCH  20  21
HETATM   21  N           1     -20.096  -7.908  -2.119  0.00  0.00    -0.066 N 
HETATM   22  H           1     -19.807  -8.730  -2.696  0.00  0.00     0.275 HD
HETATM   23  H           1     -19.592  -7.055  -2.453  0.00  0.00     0.275 HD
HETATM   24  H           1     -19.857  -8.085  -1.117  0.00  0.00     0.275 HD
ENDBRANCH  20  21
BRANCH  20  25
HETATM   25  C           1     -22.210  -7.685  -0.865  0.00  0.00     0.046 C 
BRANCH  25  26
HETATM   26  C           1     -21.834  -8.962  -0.123  0.00  0.00    -0.020 C 
HETATM   27  C           1     -23.047  -9.879  -0.046  0.00  0.00     0.009 C 
HETATM   28  C           1     -21.371  -8.613   1.285  0.00  0.00     0.009 C 
ENDBRANCH  25  26
ENDBRANCH  20  25
ENDBRANCH  17  20
ENDBRANCH   1  16
TORSDOF 8
ENDMDL
MODEL 3
REMARK VINA RESULT:      -7.9      1.783      7.573
REMARK  8 active torsions:
REMARK  status: ('A' for Active; 'I' for Inactive)
REMARK    1  A    between atoms: C_3  and  C_23 
REMARK    2  A    between atoms: C_5  and  C_21 
REMARK    3  A    between atoms: C_5  and  C_12 
REMARK    4  A    between atoms: C_5  and  N_25 
REMARK       I    between atoms: C_6  and  N_25 
REMARK    5  A    between atoms: C_6  and  C_17 
REMARK    6  A    between atoms: C_9  and  C_12 
REMARK    7  A    between atoms: N_11  and  C_17 
REMARK    8  A    between atoms: C_17  and  C_23 
ROOT
HETATM    1  C           1     -20.002  -7.394  -5.341  0.00  0.00     0.190 C 
ENDROOT
BRANCH   1   2
HETATM    2  C           1     -19.055  -8.565  -5.239  0.00  0.00     0.197 C 
HETATM    3  O           1     -18.510  -9.020  -6.267  0.00  0.00    -0.646 OA
HETATM    4  O           1     -18.815  -9.079  -4.125  0.00  0.00    -0.646 OA
ENDBRANCH   1   2
BRANCH   1   5
HETATM    5  C           1     -21.401  -7.835  -4.934  0.00  0.00     0.077 C 
BRANCH   5   6
HETATM    6  C           1     -21.723  -7.288  -3.578  0.00  0.00    -0.028 A 
HETATM    7  C           1     -21.963  -5.967  -3.273  0.00  0.00     0.096 A 
HETATM    8  N           1     -22.216  -5.888  -1.928  0.00  0.00    -0.365 N 
HETATM    9  H           1     -22.435  -5.001  -1.410  0.00  0.00     0.165 HD
HETATM   10  C           1     -22.145  -7.138  -1.356  0.00  0.00     0.042 A 
HETATM   11  C           1     -21.834  -8.039  -2.375  0.00  0.00    -0.002 A 
HETATM   12  C           1     -22.328  -7.536  -0.027  0.00  0.00     0.030 A 
HETATM   13  C           1     -21.700  -9.404  -2.056  0.00  0.00     0.014 A 
HETATM   14  C           1     -21.881  -9.819  -0.731  0.00  0.00     0.001 A 
HETATM   15  C           1     -22.190  -8.896   0.267  0.00  0.00     0.002 A 
ENDBRANCH   5   6
ENDBRANCH   1   5
BRANCH   1  16
HETATM   16  N           1     -20.027  -6.911  -6.709  0.00  0.00    -0.344 N 
HETATM   17  C           1     -20.136  -5.570  -6.960  0.00  0.00     0.249 C 
HETATM   18  O           1     -19.140  -4.892  -7.058  0.00  0.00    -0.271 OA
HETATM   19  H           1     -19.963  -7.567  -7.477  0.00  0.00     0.163 HD
BRANCH  17  20
HETATM   20  C           1     -21.498  -4.940  -7.113  0.00  0.00     0.275 C 
BRANCH  20  21
HETATM   21  N           1     -21.394  -3.462  -6.877  0.00  0.00    -0.066 N 
HETATM   22  H           1     -21.647  -2.950  -7.752  0.00  0.00     0.275 HD
HETATM   23  H           1     -22.048  -3.185  -6.111  0.00  0.00     0.275 HD
HETATM   24  H           1     -20.414  -3.222  -6.604  0.00  0.00     0.275 HD
ENDBRANCH  20  21
BRANCH  20  25
HETATM   25  C           1     -22.020  -5.193  -8.521  0.00  0.00     0.046 C 
BRANCH  25  26
HETATM   26  C           1     -21.740  -3.976  -9.393  0.00  0.00    -0.020 C 
HETATM   27  C           1     -22.987  -3.630 -10.197  0.00  0.00     0.009 C 
HETATM   28  C           1     -20.593  -4.287 -10.346  0.00  0.00     0.009 C 
ENDBRANCH  25  26
ENDBRANCH  20  25
ENDBRANCH  17  20
ENDBRANCH   1  16
TORSDOF 8
ENDMDL
MODEL 4
REMARK VINA RESULT:      -7.7      1.790      8.018
REMARK  8 active torsions:
REMARK  status: ('A' for Active; 'I' for Inactive)
REMARK    1  A    between atoms: C_3  and  C_23 
REMARK    2  A    between atoms: C_5  and  C_21 
REMARK    3  A    between atoms: C_5  and  C_12 
REMARK    4  A    between atoms: C_5  and  N_25 
REMARK       I    between atoms: C_6  and  N_25 
REMARK    5  A    between atoms: C_6  and  C_17 
REMARK    6  A    between atoms: C_9  and  C_12 
REMARK    7  A    between atoms: N_11  and  C_17 
REMARK    8  A    between atoms: C_17  and  C_23 
ROOT
HETATM    1  C           1     -21.316  -7.423  -5.586  0.00  0.00     0.190 C 
ENDROOT
BRANCH   1   2
HETATM    2  C           1     -22.016  -6.258  -4.929  0.00  0.00     0.197 C 
HETATM    3  O           1     -23.176  -5.949  -5.276  0.00  0.00    -0.646 OA
HETATM    4  O           1     -21.436  -5.604  -4.036  0.00  0.00    -0.646 OA
ENDBRANCH   1   2
BRANCH   1   5
HETATM    5  C           1     -20.379  -8.084  -4.584  0.00  0.00     0.077 C 
BRANCH   5   6
HETATM    6  C           1     -21.158  -9.024  -3.717  0.00  0.00    -0.028 A 
HETATM    7  C           1     -21.643 -10.257  -4.089  0.00  0.00     0.096 A 
HETATM    8  N           1     -22.296 -10.792  -3.010  0.00  0.00    -0.365 N 
HETATM    9  H           1     -22.768 -11.730  -2.998  0.00  0.00     0.165 HD
HETATM   10  C           1     -22.243  -9.924  -1.942  0.00  0.00     0.042 A 
HETATM   11  C           1     -21.531  -8.801  -2.362  0.00  0.00    -0.002 A 
HETATM   12  C           1     -22.766 -10.047  -0.649  0.00  0.00     0.030 A 
HETATM   13  C           1     -21.329  -7.746  -1.452  0.00  0.00     0.014 A 
HETATM   14  C           1     -21.846  -7.853  -0.154  0.00  0.00     0.001 A 
HETATM   15  C           1     -22.553  -8.988   0.238  0.00  0.00     0.002 A 
ENDBRANCH   5   6
ENDBRANCH   1   5
BRANCH   1  16
HETATM   16  N           1     -20.550  -6.946  -6.722  0.00  0.00    -0.344 N 
HETATM   17  C           1     -20.469  -5.604  -6.979  0.00  0.00     0.249 C 
HETATM   18  O           1     -19.581  -4.947  -6.488  0.00  0.00    -0.271 OA
HETATM   19  H           1     -20.074  -7.606  -7.324  0.00  0.00     0.163 HD
BRANCH  17  20
HETATM   20  C           1     -21.490  -4.944  -7.873  0.00  0.00     0.275 C 
BRANCH  20  21
HETATM   21  N           1     -21.910  -3.636  -7.272  0.00  0.00    -0.066 N 
HETATM   22  H           1     -21.302  -2.871  -7.642  0.00  0.00     0.275 HD
HETATM   23  H           1     -22.906  -3.441  -7.524  0.00  0.00     0.275 HD
HETATM   24  H           1     -21.815  -3.684  -6.233  0.00  0.00     0.275 HD
ENDBRANCH  20  21
BRANCH  20  25
HETATM   25  C           1     -20.880  -4.700  -9.247  0.00  0.00     0.046 C 
BRANCH  25  26
HETATM   26  C           1     -21.830  -3.848 -10.080  0.00  0.00    -0.020 C 
HETATM   27  C           1     -23.005  -4.701 -10.539  0.00  0.00     0.009 C 
HETATM   28  C           1     -21.091  -3.304 -11.295  0.00  0.00     0.009 C 
ENDBRANCH  25  26
ENDBRANCH  20  25
ENDBRANCH  17  20
ENDBRANCH   1  16
TORSDOF 8
ENDMDL
MODEL 5
REMARK VINA RESULT:      -7.6      1.782      7.518
REMARK  8 active torsions:
REMARK  status: ('A' for Active; 'I' for Inactive)
REMARK    1  A    between atoms: C_3  and  C_23 
REMARK    2  A    between atoms: C_5  and  C_21 
REMARK    3  A    between atoms: C_5  and  C_12 
REMARK    4  A    between atoms: C_5  and  N_25 
REMARK       I    between atoms: C_6  and  N_25 
REMARK    5  A    between atoms: C_6  and  C_17 
REMARK    6  A    between atoms: C_9  and  C_12 
REMARK    7  A    between atoms: N_11  and  C_17 
REMARK    8  A    between atoms: C_17  and  C_23 
ROOT
HETATM    1  C           1     -19.914  -7.962  -5.081  0.00  0.00     0.190 C 
ENDROOT
BRANCH   1   2
HETATM    2  C           1     -18.808  -8.988  -5.040  0.00  0.00     0.197 C 
HETATM    3  O           1     -18.544  -9.665  -6.057  0.00  0.00    -0.646 OA
HETATM    4  O           1     -18.155  -9.160  -3.989  0.00  0.00    -0.646 OA
ENDBRANCH   1   2
BRANCH   1   5
HETATM    5  C           1     -21.263  -8.670  -5.107  0.00  0.00     0.077 C 
BRANCH   5   6
HETATM    6  C           1     -21.548  -9.249  -3.756  0.00  0.00    -0.028 A 
HETATM    7  C           1     -21.589 -10.589  -3.441  0.00  0.00     0.096 A 
HETATM    8  N           1     -21.883 -10.695  -2.106  0.00  0.00    -0.365 N 
HETATM    9  H           1     -21.978 -11.600  -1.583  0.00  0.00     0.165 HD
HETATM   10  C           1     -22.032  -9.444  -1.550  0.00  0.00     0.042 A 
HETATM   11  C           1     -21.827  -8.515  -2.570  0.00  0.00    -0.002 A 
HETATM   12  C           1     -22.331  -9.068  -0.236  0.00  0.00     0.030 A 
HETATM   13  C           1     -21.924  -7.143  -2.268  0.00  0.00     0.014 A 
HETATM   14  C           1     -22.222  -6.750  -0.958  0.00  0.00     0.001 A 
HETATM   15  C           1     -22.423  -7.701   0.042  0.00  0.00     0.002 A 
ENDBRANCH   5   6
ENDBRANCH   1   5
BRANCH   1  16
HETATM   16  N           1     -19.773  -7.149  -6.274  0.00  0.00    -0.344 N 
HETATM   17  C           1     -20.264  -5.871  -6.294  0.00  0.00     0.249 C 
HETATM   18  O           1     -19.562  -4.950  -5.949  0.00  0.00    -0.271 OA
HETATM   19  H           1     -19.312  -7.527  -7.092  0.00  0.00     0.163 HD
BRANCH  17  20
HETATM   20  C           1     -21.681  -5.614  -6.745  0.00  0.00     0.275 C 
BRANCH  20  21
HETATM   21  N           1     -22.580  -5.541  -5.547  0.00  0.00    -0.066 N 
HETATM   22  H           1     -22.025  -5.722  -4.681  0.00  0.00     0.275 HD
HETATM   23  H           1     -23.009  -4.589  -5.492  0.00  0.00     0.275 HD
HETATM   24  H           1     -23.334  -6.259  -5.634  0.00  0.00     0.275 HD
ENDBRANCH  20  21
BRANCH  20  25
HETATM   25  C           1     -21.740  -4.296  -7.506  0.00  0.00     0.046 C 
BRANCH  25  26
HETATM   26  C           1     -21.810  -4.576  -9.002  0.00  0.00    -0.020 C 
HETATM   27  C           1     -20.473  -4.228  -9.645  0.00  0.00     0.009 C 
HETATM   28  C           1     -22.910  -3.729  -9.627  0.00  0.00     0.009 C 
ENDBRANCH  25  26
ENDBRANCH  20  25
ENDBRANCH  17  20
ENDBRANCH   1  16
TORSDOF 8
ENDMDL
MODEL 6
REMARK VINA RESULT:      -7.6      2.341      3.350
REMARK  8 active torsions:
REMARK  status: ('A' for Active; 'I' for Inactive)
REMARK    1  A    between atoms: C_3  and  C_23 
REMARK    2  A    between atoms: C_5  and  C_21 
REMARK    3  A    between atoms: C_5  and  C_12 
REMARK    4  A    between atoms: C_5  and  N_25 
REMARK       I    between atoms: C_6  and  N_25 
REMARK    5  A    between atoms: C_6  and  C_17 
REMARK    6  A    between atoms: C_9  and  C_12 
REMARK    7  A    between atoms: N_11  and  C_17 
REMARK    8  A    between atoms: C_17  and  C_23 
ROOT
HETATM    1  C           1     -20.675  -9.374  -4.516  0.00  0.00     0.190 C 
ENDROOT
BRANCH   1   2
HETATM    2  C           1     -20.331 -10.465  -5.500  0.00  0.00     0.197 C 
HETATM    3  O           1     -19.231 -11.054  -5.421  0.00  0.00    -0.646 OA
HETATM    4  O           1     -21.146 -10.781  -6.393  0.00  0.00    -0.646 OA
ENDBRANCH   1   2
BRANCH   1   5
HETATM    5  C           1     -19.921  -8.102  -4.884  0.00  0.00     0.077 C 
BRANCH   5   6
HETATM    6  C           1     -20.896  -7.055  -5.327  0.00  0.00    -0.028 A 
HETATM    7  C           1     -22.196  -6.922  -4.893  0.00  0.00     0.096 A 
HETATM    8  N           1     -22.744  -5.845  -5.540  0.00  0.00    -0.365 N 
HETATM    9  H           1     -23.727  -5.501  -5.407  0.00  0.00     0.165 HD
HETATM   10  C           1     -21.819  -5.277  -6.388  0.00  0.00     0.042 A 
HETATM   11  C           1     -20.645  -6.022  -6.272  0.00  0.00    -0.002 A 
HETATM   12  C           1     -21.931  -4.172  -7.239  0.00  0.00     0.030 A 
HETATM   13  C           1     -19.527  -5.650  -7.043  0.00  0.00     0.014 A 
HETATM   14  C           1     -19.622  -4.546  -7.900  0.00  0.00     0.001 A 
HETATM   15  C           1     -20.808  -3.820  -7.994  0.00  0.00     0.002 A 
ENDBRANCH   5   6
ENDBRANCH   1   5
BRANCH   1  16
HETATM   16  N           1     -20.293  -9.791  -3.180  0.00  0.00    -0.344 N 
HETATM   17  C           1     -21.157 -10.534  -2.422  0.00  0.00     0.249 C 
HETATM   18  O           1     -21.126 -11.741  -2.481  0.00  0.00    -0.271 OA
HETATM   19  H           1     -19.388  -9.532  -2.809  0.00  0.00     0.163 HD
BRANCH  17  20
HETATM   20  C           1     -22.148  -9.848  -1.515  0.00  0.00     0.275 C 
BRANCH  20  21
HETATM   21  N           1     -23.225 -10.816  -1.127  0.00  0.00    -0.066 N 
HETATM   22  H           1     -22.810 -11.767  -1.000  0.00  0.00     0.275 HD
HETATM   23  H           1     -23.664 -10.507  -0.230  0.00  0.00     0.275 HD
HETATM   24  H           1     -23.950 -10.850  -1.878  0.00  0.00     0.275 HD
ENDBRANCH  20  21
BRANCH  20  25
HETATM   25  C           1     -21.434  -9.353  -0.264  0.00  0.00     0.046 C 
BRANCH  25  26
HETATM   26  C           1     -21.880  -7.930   0.046  0.00  0.00    -0.020 C 
HETATM   27  C           1     -23.227  -7.964   0.757  0.00  0.00     0.009 C 
HETATM   28  C           1     -22.012  -7.145  -1.253  0.00  0.00     0.009 C 
ENDBRANCH  25  26
ENDBRANCH  20  25
ENDBRANCH  17  20
ENDBRANCH   1  16
TORSDOF 8
ENDMDL
MODEL 7
REMARK VINA RESULT:      -7.4      4.239      7.593
REMARK  8 active torsions:
REMARK  status: ('A' for Active; 'I' for Inactive)
REMARK    1  A    between atoms: C_3  and  C_23 
REMARK    2  A    between atoms: C_5  and  C_21 
REMARK    3  A    between atoms: C_5  and  C_12 
REMARK    4  A    between atoms: C_5  and  N_25 
REMARK       I    between atoms: C_6  and  N_25 
REMARK    5  A    between atoms: C_6  and  C_17 
REMARK    6  A    between atoms: C_9  and  C_12 
REMARK    7  A    between atoms: N_11  and  C_17 
REMARK    8  A    between atoms: C_17  and  C_23 
ROOT
HETATM    1  C           1     -21.176  -7.707  -3.029  0.00  0.00     0.190 C 
ENDROOT
BRANCH   1   2
HETATM    2  C           1     -21.938  -6.419  -3.228  0.00  0.00     0.197 C 
HETATM    3  O           1     -22.027  -5.594  -2.294  0.00  0.00    -0.646 OA
HETATM    4  O           1     -22.479  -6.178  -4.328  0.00  0.00    -0.646 OA
ENDBRANCH   1   2
BRANCH   1   5
HETATM    5  C           1     -20.809  -7.857  -1.558  0.00  0.00     0.077 C 
BRANCH   5   6
HETATM    6  C           1     -21.950  -8.488  -0.821  0.00  0.00    -0.028 A 
HETATM    7  C           1     -22.708  -7.894   0.162  0.00  0.00     0.096 A 
HETATM    8  N           1     -23.644  -8.806   0.577  0.00  0.00    -0.365 N 
HETATM    9  H           1     -24.364  -8.630   1.321  0.00  0.00     0.165 HD
HETATM   10  C           1     -23.505  -9.983  -0.124  0.00  0.00     0.042 A 
HETATM   11  C           1     -22.443  -9.809  -1.011  0.00  0.00    -0.002 A 
HETATM   12  C           1     -24.231 -11.176  -0.039  0.00  0.00     0.030 A 
HETATM   13  C           1     -22.085 -10.876  -1.858  0.00  0.00     0.014 A 
HETATM   14  C           1     -22.802 -12.077  -1.786  0.00  0.00     0.001 A 
HETATM   15  C           1     -23.858 -12.222  -0.889  0.00  0.00     0.002 A 
ENDBRANCH   5   6
ENDBRANCH   1   5
BRANCH   1  16
HETATM   16  N           1     -19.966  -7.680  -3.828  0.00  0.00    -0.344 N 
HETATM   17  C           1     -19.850  -8.491  -4.924  0.00  0.00     0.249 C 
HETATM   18  O           1     -20.213  -8.098  -6.007  0.00  0.00    -0.271 OA
HETATM   19  H           1     -19.206  -7.060  -3.574  0.00  0.00     0.163 HD
BRANCH  17  20
HETATM   20  C           1     -19.272  -9.877  -4.779  0.00  0.00     0.275 C 
BRANCH  20  21
HETATM   21  N           1     -19.528 -10.660  -6.032  0.00  0.00    -0.066 N 
HETATM   22  H           1     -18.767 -10.471  -6.723  0.00  0.00     0.275 HD
HETATM   23  H           1     -19.548 -11.680  -5.807  0.00  0.00     0.275 HD
HETATM   24  H           1     -20.447 -10.374  -6.439  0.00  0.00     0.275 HD
ENDBRANCH  20  21
BRANCH  20  25
HETATM   25  C           1     -17.770  -9.779  -4.540  0.00  0.00     0.046 C 
BRANCH  25  26
HETATM   26  C           1     -17.504  -9.608  -3.050  0.00  0.00    -0.020 C 
HETATM   27  C           1     -16.010  -9.745  -2.783  0.00  0.00     0.009 C 
HETATM   28  C           1     -18.259 -10.677  -2.272  0.00  0.00     0.009 C 
ENDBRANCH  25  26
ENDBRANCH  20  25
ENDBRANCH  17  20
ENDBRANCH   1  16
TORSDOF 8
ENDMDL
MODEL 8
REMARK VINA RESULT:      -7.4      3.022      6.728
REMARK  8 active torsions:
REMARK  status: ('A' for Active; 'I' for Inactive)
REMARK    1  A    between atoms: C_3  and  C_23 
REMARK    2  A    between atoms: C_5  and  C_21 
REMARK    3  A    between atoms: C_5  and  C_12 
REMARK    4  A    between atoms: C_5  and  N_25 
REMARK       I    between atoms: C_6  and  N_25 
REMARK    5  A    between atoms: C_6  and  C_17 
REMARK    6  A    between atoms: C_9  and  C_12 
REMARK    7  A    between atoms: N_11  and  C_17 
REMARK    8  A    between atoms: C_17  and  C_23 
ROOT
HETATM    1  C           1     -21.270  -8.563  -1.828  0.00  0.00     0.190 C 
ENDROOT
BRANCH   1   2
HETATM    2  C           1     -21.774  -8.554  -0.405  0.00  0.00     0.197 C 
HETATM    3  O           1     -22.870  -8.019  -0.133  0.00  0.00    -0.646 OA
HETATM    4  O           1     -21.095  -9.083   0.501  0.00  0.00    -0.646 OA
ENDBRANCH   1   2
BRANCH   1   5
HETATM    5  C           1     -20.048  -9.466  -1.928  0.00  0.00     0.077 C 
BRANCH   5   6
HETATM    6  C           1     -19.648  -9.607  -3.365  0.00  0.00    -0.028 A 
HETATM    7  C           1     -20.504  -9.713  -4.438  0.00  0.00     0.096 A 
HETATM    8  N           1     -19.742  -9.825  -5.571  0.00  0.00    -0.365 N 
HETATM    9  H           1     -20.124  -9.920  -6.545  0.00  0.00     0.165 HD
HETATM   10  C           1     -18.403  -9.793  -5.250  0.00  0.00     0.042 A 
HETATM   11  C           1     -18.317  -9.657  -3.864  0.00  0.00    -0.002 A 
HETATM   12  C           1     -17.274  -9.875  -6.072  0.00  0.00     0.030 A 
HETATM   13  C           1     -17.044  -9.599  -3.266  0.00  0.00     0.014 A 
HETATM   14  C           1     -15.903  -9.678  -4.074  0.00  0.00     0.001 A 
HETATM   15  C           1     -16.020  -9.815  -5.457  0.00  0.00     0.002 A 
ENDBRANCH   5   6
ENDBRANCH   1   5
BRANCH   1  16
HETATM   16  N           1     -20.907  -7.214  -2.219  0.00  0.00    -0.344 N 
HETATM   17  C           1     -21.778  -6.456  -2.954  0.00  0.00     0.249 C 
HETATM   18  O           1     -22.586  -5.752  -2.395  0.00  0.00    -0.271 OA
HETATM   19  H           1     -20.009  -6.834  -1.948  0.00  0.00     0.163 HD
BRANCH  17  20
HETATM   20  C           1     -21.730  -6.500  -4.461  0.00  0.00     0.275 C 
BRANCH  20  21
HETATM   21  N           1     -23.101  -6.249  -5.013  0.00  0.00    -0.066 N 
HETATM   22  H           1     -23.818  -6.485  -4.289  0.00  0.00     0.275 HD
HETATM   23  H           1     -23.192  -5.242  -5.276  0.00  0.00     0.275 HD
HETATM   24  H           1     -23.251  -6.846  -5.857  0.00  0.00     0.275 HD
ENDBRANCH  20  21
BRANCH  20  25
HETATM   25  C           1     -20.774  -5.430  -4.971  0.00  0.00     0.046 C 
BRANCH  25  26
HETATM   26  C           1     -20.905  -5.311  -6.485  0.00  0.00    -0.020 C 
HETATM   27  C           1     -19.667  -5.901  -7.148  0.00  0.00     0.009 C 
HETATM   28  C           1     -21.037  -3.844  -6.870  0.00  0.00     0.009 C 
ENDBRANCH  25  26
ENDBRANCH  20  25
ENDBRANCH  17  20
ENDBRANCH   1  16
TORSDOF 8
ENDMDL
MODEL 9
REMARK VINA RESULT:      -7.3      5.026      7.894
REMARK  8 active torsions:
REMARK  status: ('A' for Active; 'I' for Inactive)
REMARK    1  A    between atoms: C_3  and  C_23 
REMARK    2  A    between atoms: C_5  and  C_21 
REMARK    3  A    between atoms: C_5  and  C_12 
REMARK    4  A    between atoms: C_5  and  N_25 
REMARK       I    between atoms: C_6  and  N_25 
REMARK    5  A    between atoms: C_6  and  C_17 
REMARK    6  A    between atoms: C_9  and  C_12 
REMARK    7  A    between atoms: N_11  and  C_17 
REMARK    8  A    between atoms: C_17  and  C_23 
ROOT
HETATM    1  C           1     -19.471 -10.016  -4.763  0.00  0.00     0.190 C 
ENDROOT
BRANCH   1   2
HETATM    2  C           1     -20.863  -9.853  -5.324  0.00  0.00     0.197 C 
HETATM    3  O           1     -21.206  -8.768  -5.839  0.00  0.00    -0.646 OA
HETATM    4  O           1     -21.672 -10.804  -5.273  0.00  0.00    -0.646 OA
ENDBRANCH   1   2
BRANCH   1   5
HETATM    5  C           1     -19.207  -8.925  -3.734  0.00  0.00     0.077 C 
BRANCH   5   6
HETATM    6  C           1     -19.831  -9.309  -2.428  0.00  0.00    -0.028 A 
HETATM    7  C           1     -19.564 -10.452  -1.707  0.00  0.00     0.096 A 
HETATM    8  N           1     -20.341 -10.424  -0.578  0.00  0.00    -0.365 N 
HETATM    9  H           1     -20.349 -11.168   0.163  0.00  0.00     0.165 HD
HETATM   10  C           1     -21.107  -9.280  -0.555  0.00  0.00     0.042 A 
HETATM   11  C           1     -20.805  -8.561  -1.711  0.00  0.00    -0.002 A 
HETATM   12  C           1     -22.037  -8.833   0.391  0.00  0.00     0.030 A 
HETATM   13  C           1     -21.459  -7.335  -1.937  0.00  0.00     0.014 A 
HETATM   14  C           1     -22.392  -6.873  -1.000  0.00  0.00     0.001 A 
HETATM   15  C           1     -22.674  -7.614   0.146  0.00  0.00     0.002 A 
ENDBRANCH   5   6
ENDBRANCH   1   5
BRANCH   1  16
HETATM   16  N           1     -18.503  -9.910  -5.838  0.00  0.00    -0.344 N 
HETATM   17  C           1     -18.026 -11.041  -6.444  0.00  0.00     0.249 C 
HETATM   18  O           1     -18.596 -11.494  -7.409  0.00  0.00    -0.271 OA
HETATM   19  H           1     -18.180  -8.999  -6.139  0.00  0.00     0.163 HD
BRANCH  17  20
HETATM   20  C           1     -16.791 -11.721  -5.908  0.00  0.00     0.275 C 
BRANCH  20  21
HETATM   21  N           1     -15.994 -12.282  -7.048  0.00  0.00    -0.066 N 
HETATM   22  H           1     -16.534 -12.177  -7.936  0.00  0.00     0.275 HD
HETATM   23  H           1     -15.089 -11.765  -7.127  0.00  0.00     0.275 HD
HETATM   24  H           1     -15.804 -13.295  -6.874  0.00  0.00     0.275 HD
ENDBRANCH  20  21
BRANCH  20  25
HETATM   25  C           1     -15.944 -10.710  -5.146  0.00  0.00     0.046 C 
BRANCH  25  26
HETATM   26  C           1     -15.937 -11.068  -3.665  0.00  0.00    -0.020 C 
HETATM   27  C           1     -15.870  -9.792  -2.835  0.00  0.00     0.009 C 
HETATM   28  C           1     -14.724 -11.936  -3.358  0.00  0.00     0.009 C 
ENDBRANCH  25  26
ENDBRANCH  20  25
ENDBRANCH  17  20
ENDBRANCH   1  16
TORSDOF 8
ENDMDL
