MODEL 1
REMARK VINA RESULT:      -7.7      0.000      0.000
REMARK  6 active torsions:
REMARK  status: ('A' for Active; 'I' for Inactive)
REMARK    1  A    between atoms: C_1  and  C_2 
REMARK    2  A    between atoms: C_2  and  C_18 
REMARK    3  A    between atoms: C_3  and  C_4 
REMARK    4  A    between atoms: C_4  and  N_11 
REMARK       I    between atoms: C_9  and  N_11 
REMARK    5  A    between atoms: C_9  and  C_18 
REMARK    6  A    between atoms: N_14  and  C_18 
ROOT
HETATM    1  C           1     -35.817  -0.552 -11.409  0.00  0.00     0.278 C 
ENDROOT
BRANCH   1   2
HETATM    2  C           1     -36.279  -1.891 -10.849  0.00  0.00     0.081 C 
BRANCH   2   3
HETATM    3  C           1     -35.194  -2.908 -11.026  0.00  0.00    -0.056 A 
HETATM    4  C           1     -35.485  -4.266 -10.900  0.00  0.00     0.007 A 
HETATM    5  C           1     -34.474  -5.213 -11.064  0.00  0.00     0.001 A 
HETATM    6  C           1     -33.173  -4.802 -11.353  0.00  0.00     0.000 A 
HETATM    7  C           1     -32.882  -3.443 -11.479  0.00  0.00     0.001 A 
HETATM    8  C           1     -33.893  -2.496 -11.315  0.00  0.00     0.007 A 
ENDBRANCH   2   3
ENDBRANCH   1   2
BRANCH   1   9
HETATM    9  C           1     -36.487  -0.303 -12.738  0.00  0.00     0.249 C 
HETATM   10  O           1     -37.666  -0.532 -12.872  0.00  0.00    -0.271 OA
HETATM   11  N           1     -35.759   0.181 -13.791  0.00  0.00    -0.345 N 
HETATM   12  H           1     -34.772   0.373 -13.678  0.00  0.00     0.163 HD
BRANCH  11  13
HETATM   13  C           1     -36.402   0.421 -15.067  0.00  0.00     0.181 C 
HETATM   14  C           1     -35.881   1.722 -15.665  0.00  0.00     0.043 C 
BRANCH  13  15
HETATM   15  C           1     -36.097  -0.720 -16.006  0.00  0.00     0.196 C 
HETATM   16  O           1     -36.707  -0.816 -17.094  0.00  0.00    -0.646 OA
HETATM   17  O           1     -35.235  -1.571 -15.697  0.00  0.00    -0.646 OA
ENDBRANCH  13  15
ENDBRANCH  11  13
ENDBRANCH   1   9
BRANCH   1  18
HETATM   18  N           1     -36.184   0.543 -10.451  0.00  0.00    -0.066 N 
HETATM   19  H           1     -35.582   0.476  -9.600  0.00  0.00     0.275 HD
HETATM   20  H           1     -37.187   0.445 -10.177  0.00  0.00     0.275 HD
HETATM   21  H           1     -36.039   1.470 -10.911  0.00  0.00     0.275 HD
ENDBRANCH   1  18
TORSDOF 6
ENDMDL
MODEL 2
REMARK VINA RESULT:      -7.0     14.595     16.890
REMARK  6 active torsions:
REMARK  status: ('A' for Active; 'I' for Inactive)
REMARK    1  A    between atoms: C_1  and  C_2 
REMARK    2  A    between atoms: C_2  and  C_18 
REMARK    3  A    between atoms: C_3  and  C_4 
REMARK    4  A    between atoms: C_4  and  N_11 
REMARK       I    between atoms: C_9  and  N_11 
REMARK    5  A    between atoms: C_9  and  C_18 
REMARK    6  A    between atoms: N_14  and  C_18 
ROOT
HETATM    1  C           1     -22.276  -5.141  -6.740  0.00  0.00     0.278 C 
ENDROOT
BRANCH   1   2
HETATM    2  C           1     -21.703  -3.872  -7.355  0.00  0.00     0.081 C 
BRANCH   2   3
HETATM    3  C           1     -21.629  -4.026  -8.843  0.00  0.00    -0.056 A 
HETATM    4  C           1     -20.390  -4.163  -9.469  0.00  0.00     0.007 A 
HETATM    5  C           1     -20.321  -4.307 -10.854  0.00  0.00     0.001 A 
HETATM    6  C           1     -21.491  -4.314 -11.614  0.00  0.00     0.000 A 
HETATM    7  C           1     -22.730  -4.178 -10.988  0.00  0.00     0.001 A 
HETATM    8  C           1     -22.799  -4.034  -9.602  0.00  0.00     0.007 A 
ENDBRANCH   2   3
ENDBRANCH   1   2
BRANCH   1   9
HETATM    9  C           1     -21.487  -5.505  -5.506  0.00  0.00     0.249 C 
HETATM   10  O           1     -20.316  -5.212  -5.431  0.00  0.00    -0.271 OA
HETATM   11  N           1     -22.095  -6.165  -4.473  0.00  0.00    -0.345 N 
HETATM   12  H           1     -23.075  -6.409  -4.537  0.00  0.00     0.163 HD
BRANCH  11  13
HETATM   13  C           1     -21.337  -6.513  -3.289  0.00  0.00     0.181 C 
HETATM   14  C           1     -22.150  -6.173  -2.045  0.00  0.00     0.043 C 
BRANCH  13  15
HETATM   15  C           1     -21.035  -7.991  -3.301  0.00  0.00     0.196 C 
HETATM   16  O           1     -20.113  -8.448  -2.591  0.00  0.00    -0.646 OA
HETATM   17  O           1     -21.707  -8.760  -4.022  0.00  0.00    -0.646 OA
ENDBRANCH  13  15
ENDBRANCH  11  13
ENDBRANCH   1   9
BRANCH   1  18
HETATM   18  N           1     -23.710  -4.911  -6.365  0.00  0.00    -0.066 N 
HETATM   19  H           1     -24.159  -5.824  -6.129  0.00  0.00     0.275 HD
HETATM   20  H           1     -24.215  -4.472  -7.168  0.00  0.00     0.275 HD
HETATM   21  H           1     -23.755  -4.275  -5.537  0.00  0.00     0.275 HD
ENDBRANCH   1  18
TORSDOF 6
ENDMDL
MODEL 3
REMARK VINA RESULT:      -6.9     13.587     15.515
REMARK  6 active torsions:
REMARK  status: ('A' for Active; 'I' for Inactive)
REMARK    1  A    between atoms: C_1  and  C_2 
REMARK    2  A    between atoms: C_2  and  C_18 
REMARK    3  A    between atoms: C_3  and  C_4 
REMARK    4  A    between atoms: C_4  and  N_11 
REMARK       I    between atoms: C_9  and  N_11 
REMARK    5  A    between atoms: C_9  and  C_18 
REMARK    6  A    between atoms: N_14  and  C_18 
ROOT
HETATM    1  C           1     -21.169  -5.691  -6.870  0.00  0.00     0.278 C 
ENDROOT
BRANCH   1   2
HETATM    2  C           1     -20.886  -5.229  -5.446  0.00  0.00     0.081 C 
BRANCH   2   3
HETATM    3  C           1     -21.159  -6.350  -4.492  0.00  0.00    -0.056 A 
HETATM    4  C           1     -21.283  -6.090  -3.128  0.00  0.00     0.007 A 
HETATM    5  C           1     -21.537  -7.134  -2.240  0.00  0.00     0.001 A 
HETATM    6  C           1     -21.667  -8.439  -2.715  0.00  0.00     0.000 A 
HETATM    7  C           1     -21.543  -8.699  -4.080  0.00  0.00     0.001 A 
HETATM    8  C           1     -21.289  -7.655  -4.969  0.00  0.00     0.007 A 
ENDBRANCH   2   3
ENDBRANCH   1   2
BRANCH   1   9
HETATM    9  C           1     -21.665  -4.525  -7.689  0.00  0.00     0.249 C 
HETATM   10  O           1     -21.571  -3.400  -7.258  0.00  0.00    -0.271 OA
HETATM   11  N           1     -22.223  -4.741  -8.920  0.00  0.00    -0.345 N 
HETATM   12  H           1     -22.301  -5.683  -9.281  0.00  0.00     0.163 HD
BRANCH  11  13
HETATM   13  C           1     -22.698  -3.621  -9.708  0.00  0.00     0.181 C 
HETATM   14  C           1     -21.820  -3.456 -10.941  0.00  0.00     0.043 C 
BRANCH  13  15
HETATM   15  C           1     -24.122  -3.877 -10.136  0.00  0.00     0.196 C 
HETATM   16  O           1     -24.676  -4.962  -9.852  0.00  0.00    -0.646 OA
HETATM   17  O           1     -24.748  -3.005 -10.777  0.00  0.00    -0.646 OA
ENDBRANCH  13  15
ENDBRANCH  11  13
ENDBRANCH   1   9
BRANCH   1  18
HETATM   18  N           1     -19.910  -6.231  -7.480  0.00  0.00    -0.066 N 
HETATM   19  H           1     -19.084  -5.850  -6.965  0.00  0.00     0.275 HD
HETATM   20  H           1     -19.858  -5.945  -8.483  0.00  0.00     0.275 HD
HETATM   21  H           1     -19.912  -7.274  -7.415  0.00  0.00     0.275 HD
ENDBRANCH   1  18
TORSDOF 6
ENDMDL
MODEL 4
REMARK VINA RESULT:      -6.5      3.128      5.133
REMARK  6 active torsions:
REMARK  status: ('A' for Active; 'I' for Inactive)
REMARK    1  A    between atoms: C_1  and  C_2 
REMARK    2  A    between atoms: C_2  and  C_18 
REMARK    3  A    between atoms: C_3  and  C_4 
REMARK    4  A    between atoms: C_4  and  N_11 
REMARK       I    between atoms: C_9  and  N_11 
REMARK    5  A    between atoms: C_9  and  C_18 
REMARK    6  A    between atoms: N_14  and  C_18 
ROOT
HETATM    1  C           1     -36.766  -0.159 -11.410  0.00  0.00     0.278 C 
ENDROOT
BRANCH   1   2
HETATM    2  C           1     -37.467  -0.944 -10.309  0.00  0.00     0.081 C 
BRANCH   2   3
HETATM    3  C           1     -37.453  -0.148  -9.040  0.00  0.00    -0.056 A 
HETATM    4  C           1     -37.878  -0.731  -7.847  0.00  0.00     0.007 A 
HETATM    5  C           1     -37.865   0.011  -6.666  0.00  0.00     0.001 A 
HETATM    6  C           1     -37.428   1.336  -6.679  0.00  0.00     0.000 A 
HETATM    7  C           1     -37.003   1.918  -7.873  0.00  0.00     0.001 A 
HETATM    8  C           1     -37.016   1.177  -9.054  0.00  0.00     0.007 A 
ENDBRANCH   2   3
ENDBRANCH   1   2
BRANCH   1   9
HETATM    9  C           1     -35.491  -0.866 -11.799  0.00  0.00     0.249 C 
HETATM   10  O           1     -34.568  -0.236 -12.259  0.00  0.00    -0.271 OA
HETATM   11  N           1     -35.380  -2.220 -11.631  0.00  0.00    -0.345 N 
HETATM   12  H           1     -36.153  -2.746 -11.245  0.00  0.00     0.163 HD
BRANCH  11  13
HETATM   13  C           1     -34.154  -2.898 -12.004  0.00  0.00     0.181 C 
HETATM   14  C           1     -33.578  -3.613 -10.788  0.00  0.00     0.043 C 
BRANCH  13  15
HETATM   15  C           1     -34.448  -3.906 -13.087  0.00  0.00     0.196 C 
HETATM   16  O           1     -34.135  -3.661 -14.272  0.00  0.00    -0.646 OA
HETATM   17  O           1     -35.005  -4.988 -12.799  0.00  0.00    -0.646 OA
ENDBRANCH  13  15
ENDBRANCH  11  13
ENDBRANCH   1   9
BRANCH   1  18
HETATM   18  N           1     -37.668  -0.061 -12.604  0.00  0.00    -0.066 N 
HETATM   19  H           1     -37.817   0.944 -12.846  0.00  0.00     0.275 HD
HETATM   20  H           1     -38.587  -0.507 -12.385  0.00  0.00     0.275 HD
HETATM   21  H           1     -37.227  -0.554 -13.414  0.00  0.00     0.275 HD
ENDBRANCH   1  18
TORSDOF 6
ENDMDL
MODEL 5
REMARK VINA RESULT:      -6.4     15.413     17.501
REMARK  6 active torsions:
REMARK  status: ('A' for Active; 'I' for Inactive)
REMARK    1  A    between atoms: C_1  and  C_2 
REMARK    2  A    between atoms: C_2  and  C_18 
REMARK    3  A    between atoms: C_3  and  C_4 
REMARK    4  A    between atoms: C_4  and  N_11 
REMARK       I    between atoms: C_9  and  N_11 
REMARK    5  A    between atoms: C_9  and  C_18 
REMARK    6  A    between atoms: N_14  and  C_18 
ROOT
HETATM    1  C           1     -21.537  -8.174  -4.431  0.00  0.00     0.278 C 
ENDROOT
BRANCH   1   2
HETATM    2  C           1     -20.658  -8.351  -3.199  0.00  0.00     0.081 C 
BRANCH   2   3
HETATM    3  C           1     -21.522  -8.517  -1.987  0.00  0.00    -0.056 A 
HETATM    4  C           1     -22.042  -9.771  -1.669  0.00  0.00     0.007 A 
HETATM    5  C           1     -22.847  -9.926  -0.541  0.00  0.00     0.001 A 
HETATM    6  C           1     -23.132  -8.826   0.269  0.00  0.00     0.000 A 
HETATM    7  C           1     -22.611  -7.572  -0.050  0.00  0.00     0.001 A 
HETATM    8  C           1     -21.807  -7.417  -1.178  0.00  0.00     0.007 A 
ENDBRANCH   2   3
ENDBRANCH   1   2
BRANCH   1   9
HETATM    9  C           1     -21.498  -6.732  -4.874  0.00  0.00     0.249 C 
HETATM   10  O           1     -22.012  -5.876  -4.193  0.00  0.00    -0.271 OA
HETATM   11  N           1     -20.881  -6.394  -6.048  0.00  0.00    -0.345 N 
HETATM   12  H           1     -20.451  -7.110  -6.618  0.00  0.00     0.163 HD
BRANCH  11  13
HETATM   13  C           1     -20.843  -5.009  -6.474  0.00  0.00     0.181 C 
HETATM   14  C           1     -19.477  -4.697  -7.072  0.00  0.00     0.043 C 
BRANCH  13  15
HETATM   15  C           1     -21.911  -4.773  -7.513  0.00  0.00     0.196 C 
HETATM   16  O           1     -21.639  -4.893  -8.728  0.00  0.00    -0.646 OA
HETATM   17  O           1     -23.067  -4.456  -7.161  0.00  0.00    -0.646 OA
ENDBRANCH  13  15
ENDBRANCH  11  13
ENDBRANCH   1   9
BRANCH   1  18
HETATM   18  N           1     -21.031  -9.051  -5.537  0.00  0.00    -0.066 N 
HETATM   19  H           1     -20.862  -8.472  -6.390  0.00  0.00     0.275 HD
HETATM   20  H           1     -21.740  -9.788  -5.750  0.00  0.00     0.275 HD
HETATM   21  H           1     -20.138  -9.504  -5.239  0.00  0.00     0.275 HD
ENDBRANCH   1  18
TORSDOF 6
ENDMDL
MODEL 6
REMARK VINA RESULT:      -6.4     14.581     17.050
REMARK  6 active torsions:
REMARK  status: ('A' for Active; 'I' for Inactive)
REMARK    1  A    between atoms: C_1  and  C_2 
REMARK    2  A    between atoms: C_2  and  C_18 
REMARK    3  A    between atoms: C_3  and  C_4 
REMARK    4  A    between atoms: C_4  and  N_11 
REMARK       I    between atoms: C_9  and  N_11 
REMARK    5  A    between atoms: C_9  and  C_18 
REMARK    6  A    between atoms: N_14  and  C_18 
ROOT
HETATM    1  C           1     -20.487  -5.039  -6.610  0.00  0.00     0.278 C 
ENDROOT
BRANCH   1   2
HETATM    2  C           1     -21.220  -3.840  -7.198  0.00  0.00     0.081 C 
BRANCH   2   3
HETATM    3  C           1     -21.433  -4.054  -8.665  0.00  0.00    -0.056 A 
HETATM    4  C           1     -22.688  -4.432  -9.139  0.00  0.00     0.007 A 
HETATM    5  C           1     -22.887  -4.631 -10.505  0.00  0.00     0.001 A 
HETATM    6  C           1     -21.829  -4.454 -11.397  0.00  0.00     0.000 A 
HETATM    7  C           1     -20.573  -4.075 -10.922  0.00  0.00     0.001 A 
HETATM    8  C           1     -20.374  -3.876  -9.557  0.00  0.00     0.007 A 
ENDBRANCH   2   3
ENDBRANCH   1   2
BRANCH   1   9
HETATM    9  C           1     -21.411  -5.787  -5.681  0.00  0.00     0.249 C 
HETATM   10  O           1     -22.596  -5.549  -5.686  0.00  0.00    -0.271 OA
HETATM   11  N           1     -20.907  -6.735  -4.832  0.00  0.00    -0.345 N 
HETATM   12  H           1     -19.915  -6.934  -4.828  0.00  0.00     0.163 HD
BRANCH  11  13
HETATM   13  C           1     -21.794  -7.454  -3.940  0.00  0.00     0.181 C 
HETATM   14  C           1     -21.412  -8.929  -3.921  0.00  0.00     0.043 C 
BRANCH  13  15
HETATM   15  C           1     -21.674  -6.887  -2.547  0.00  0.00     0.196 C 
HETATM   16  O           1     -20.888  -7.408  -1.725  0.00  0.00    -0.646 OA
HETATM   17  O           1     -22.361  -5.898  -2.213  0.00  0.00    -0.646 OA
ENDBRANCH  13  15
ENDBRANCH  11  13
ENDBRANCH   1   9
BRANCH   1  18
HETATM   18  N           1     -20.049  -5.949  -7.719  0.00  0.00    -0.066 N 
HETATM   19  H           1     -19.804  -6.885  -7.324  0.00  0.00     0.275 HD
HETATM   20  H           1     -19.212  -5.542  -8.194  0.00  0.00     0.275 HD
HETATM   21  H           1     -20.825  -6.054  -8.410  0.00  0.00     0.275 HD
ENDBRANCH   1  18
TORSDOF 6
ENDMDL
MODEL 7
REMARK VINA RESULT:      -6.1     14.815     16.620
REMARK  6 active torsions:
REMARK  status: ('A' for Active; 'I' for Inactive)
REMARK    1  A    between atoms: C_1  and  C_2 
REMARK    2  A    between atoms: C_2  and  C_18 
REMARK    3  A    between atoms: C_3  and  C_4 
REMARK    4  A    between atoms: C_4  and  N_11 
REMARK       I    between atoms: C_9  and  N_11 
REMARK    5  A    between atoms: C_9  and  C_18 
REMARK    6  A    between atoms: N_14  and  C_18 
ROOT
HETATM    1  C           1     -21.857  -6.601  -5.353  0.00  0.00     0.278 C 
ENDROOT
BRANCH   1   2
HETATM    2  C           1     -20.933  -6.172  -4.221  0.00  0.00     0.081 C 
BRANCH   2   3
HETATM    3  C           1     -21.329  -6.874  -2.958  0.00  0.00    -0.056 A 
HETATM    4  C           1     -22.113  -6.215  -2.011  0.00  0.00     0.007 A 
HETATM    5  C           1     -22.482  -6.868  -0.836  0.00  0.00     0.001 A 
HETATM    6  C           1     -22.067  -8.180  -0.607  0.00  0.00     0.000 A 
HETATM    7  C           1     -21.284  -8.839  -1.555  0.00  0.00     0.001 A 
HETATM    8  C           1     -20.914  -8.186  -2.730  0.00  0.00     0.007 A 
ENDBRANCH   2   3
ENDBRANCH   1   2
BRANCH   1   9
HETATM    9  C           1     -22.026  -5.460  -6.325  0.00  0.00     0.249 C 
HETATM   10  O           1     -23.027  -4.783  -6.293  0.00  0.00    -0.271 OA
HETATM   11  N           1     -21.047  -5.192  -7.244  0.00  0.00    -0.345 N 
HETATM   12  H           1     -20.210  -5.759  -7.270  0.00  0.00     0.163 HD
BRANCH  11  13
HETATM   13  C           1     -21.210  -4.095  -8.177  0.00  0.00     0.181 C 
HETATM   14  C           1     -19.864  -3.419  -8.408  0.00  0.00     0.043 C 
BRANCH  13  15
HETATM   15  C           1     -21.737  -4.625  -9.488  0.00  0.00     0.196 C 
HETATM   16  O           1     -20.964  -4.768 -10.461  0.00  0.00    -0.646 OA
HETATM   17  O           1     -22.946  -4.919  -9.602  0.00  0.00    -0.646 OA
ENDBRANCH  13  15
ENDBRANCH  11  13
ENDBRANCH   1   9
BRANCH   1  18
HETATM   18  N           1     -21.260  -7.780  -6.064  0.00  0.00    -0.066 N 
HETATM   19  H           1     -22.021  -8.441  -6.339  0.00  0.00     0.275 HD
HETATM   20  H           1     -20.588  -8.267  -5.430  0.00  0.00     0.275 HD
HETATM   21  H           1     -20.757  -7.451  -6.919  0.00  0.00     0.275 HD
ENDBRANCH   1  18
TORSDOF 6
ENDMDL
MODEL 8
REMARK VINA RESULT:      -5.9     16.509     18.626
REMARK  6 active torsions:
REMARK  status: ('A' for Active; 'I' for Inactive)
REMARK    1  A    between atoms: C_1  and  C_2 
REMARK    2  A    between atoms: C_2  and  C_18 
REMARK    3  A    between atoms: C_3  and  C_4 
REMARK    4  A    between atoms: C_4  and  N_11 
REMARK       I    between atoms: C_9  and  N_11 
REMARK    5  A    between atoms: C_9  and  C_18 
REMARK    6  A    between atoms: N_14  and  C_18 
ROOT
HETATM    1  C           1     -20.498  -7.452  -4.752  0.00  0.00     0.278 C 
ENDROOT
BRANCH   1   2
HETATM    2  C           1     -21.194  -6.098  -4.712  0.00  0.00     0.081 C 
BRANCH   2   3
HETATM    3  C           1     -20.959  -5.376  -6.003  0.00  0.00    -0.056 A 
HETATM    4  C           1     -19.657  -5.138  -6.442  0.00  0.00     0.007 A 
HETATM    5  C           1     -19.438  -4.467  -7.644  0.00  0.00     0.001 A 
HETATM    6  C           1     -20.522  -4.031  -8.407  0.00  0.00     0.000 A 
HETATM    7  C           1     -21.825  -4.269  -7.968  0.00  0.00     0.001 A 
HETATM    8  C           1     -22.043  -4.941  -6.765  0.00  0.00     0.007 A 
ENDBRANCH   2   3
ENDBRANCH   1   2
BRANCH   1   9
HETATM    9  C           1     -20.505  -8.063  -3.373  0.00  0.00     0.249 C 
HETATM   10  O           1     -19.534  -8.662  -2.972  0.00  0.00    -0.271 OA
HETATM   11  N           1     -21.610  -7.940  -2.575  0.00  0.00    -0.345 N 
HETATM   12  H           1     -22.423  -7.438  -2.910  0.00  0.00     0.163 HD
BRANCH  11  13
HETATM   13  C           1     -21.617  -8.527  -1.250  0.00  0.00     0.181 C 
HETATM   14  C           1     -22.182  -7.524  -0.251  0.00  0.00     0.043 C 
BRANCH  13  15
HETATM   15  C           1     -22.475  -9.768  -1.254  0.00  0.00     0.196 C 
HETATM   16  O           1     -23.349  -9.927  -0.374  0.00  0.00    -0.646 OA
HETATM   17  O           1     -22.311 -10.638  -2.136  0.00  0.00    -0.646 OA
ENDBRANCH  13  15
ENDBRANCH  11  13
ENDBRANCH   1   9
BRANCH   1  18
HETATM   18  N           1     -21.222  -8.357  -5.704  0.00  0.00    -0.066 N 
HETATM   19  H           1     -20.527  -8.889  -6.274  0.00  0.00     0.275 HD
HETATM   20  H           1     -21.828  -7.786  -6.336  0.00  0.00     0.275 HD
HETATM   21  H           1     -21.816  -9.026  -5.164  0.00  0.00     0.275 HD
ENDBRANCH   1  18
TORSDOF 6
ENDMDL
MODEL 9
REMARK VINA RESULT:      -5.9     14.904     16.885
REMARK  6 active torsions:
REMARK  status: ('A' for Active; 'I' for Inactive)
REMARK    1  A    between atoms: C_1  and  C_2 
REMARK    2  A    between atoms: C_2  and  C_18 
REMARK    3  A    between atoms: C_3  and  C_4 
REMARK    4  A    between atoms: C_4  and  N_11 
REMARK       I    between atoms: C_9  and  N_11 
REMARK    5  A    between atoms: C_9  and  C_18 
REMARK    6  A    between atoms: N_14  and  C_18 
ROOT
HETATM    1  C           1     -20.783  -5.945  -4.982  0.00  0.00     0.278 C 
ENDROOT
BRANCH   1   2
HETATM    2  C           1     -22.040  -6.112  -4.140  0.00  0.00     0.081 C 
BRANCH   2   3
HETATM    3  C           1     -21.703  -6.842  -2.876  0.00  0.00    -0.056 A 
HETATM    4  C           1     -20.706  -7.817  -2.880  0.00  0.00     0.007 A 
HETATM    5  C           1     -20.392  -8.496  -1.703  0.00  0.00     0.001 A 
HETATM    6  C           1     -21.075  -8.201  -0.523  0.00  0.00     0.000 A 
HETATM    7  C           1     -22.072  -7.225  -0.520  0.00  0.00     0.001 A 
HETATM    8  C           1     -22.386  -6.546  -1.696  0.00  0.00     0.007 A 
ENDBRANCH   2   3
ENDBRANCH   1   2
BRANCH   1   9
HETATM    9  C           1     -21.150  -5.961  -6.445  0.00  0.00     0.249 C 
HETATM   10  O           1     -21.082  -6.991  -7.074  0.00  0.00    -0.271 OA
HETATM   11  N           1     -21.561  -4.809  -7.061  0.00  0.00    -0.345 N 
HETATM   12  H           1     -21.619  -3.947  -6.534  0.00  0.00     0.163 HD
BRANCH  11  13
HETATM   13  C           1     -21.915  -4.825  -8.466  0.00  0.00     0.181 C 
HETATM   14  C           1     -23.248  -4.113  -8.664  0.00  0.00     0.043 C 
BRANCH  13  15
HETATM   15  C           1     -20.846  -4.118  -9.261  0.00  0.00     0.196 C 
HETATM   16  O           1     -19.710  -3.947  -8.769  0.00  0.00    -0.646 OA
HETATM   17  O           1     -21.096  -3.701 -10.413  0.00  0.00    -0.646 OA
ENDBRANCH  13  15
ENDBRANCH  11  13
ENDBRANCH   1   9
BRANCH   1  18
HETATM   18  N           1     -20.126  -4.639  -4.646  0.00  0.00    -0.066 N 
HETATM   19  H           1     -20.297  -3.955  -5.418  0.00  0.00     0.275 HD
HETATM   20  H           1     -19.098  -4.784  -4.529  0.00  0.00     0.275 HD
HETATM   21  H           1     -20.528  -4.268  -3.755  0.00  0.00     0.275 HD
ENDBRANCH   1  18
TORSDOF 6
ENDMDL
